MODEL 1
REMARK VINA RESULT:      -9.0      0.000      0.000
REMARK  Name = 
REMARK  7 active torsions:
REMARK  status: ('A' for Active; 'I' for Inactive)
REMARK    1  A    between atoms: C_1  and  C_2
REMARK    2  A    between atoms: C_2  and  N_3
REMARK    3  A    between atoms: C_2  and  C_4
REMARK    4  A    between atoms: C_9  and  C_10
REMARK    5  A    between atoms: C_13  and  C_14
REMARK    6  A    between atoms: C_14  and  C_15
REMARK    7  A    between atoms: C_23  and  C_24
REMARK                            x       y       z     vdW  Elec       q    Type
REMARK                         _______ _______ _______ _____ _____    ______ ____
ROOT
ATOM      1  C   UNL     1       6.492   4.888  14.770  0.00  0.00    +0.000 C 
ATOM      2  O   UNL     1       6.588   6.069  15.119  0.00  0.00    +0.000 OA
ATOM      3  N   UNL     1       5.660   3.945  15.339  0.00  0.00    +0.000 N 
ATOM      4  C   UNL     1       4.797   4.297  16.345  0.00  0.00    +0.000 A 
ATOM      5  N   UNL     1       4.416   5.491  16.688  0.00  0.00    +0.000 NA
ATOM      6  C   UNL     1       3.536   5.429  17.757  0.00  0.00    +0.000 A 
ATOM      7  C   UNL     1       3.329   4.149  18.277  0.00  0.00    +0.000 A 
ATOM      8  S   UNL     1       4.138   3.011  17.238  0.00  0.00    +0.000 S 
ATOM      9  H   UNL     1       5.732   2.968  15.113  0.00  0.00    +0.000 HD
ENDROOT
BRANCH   6  10
ATOM     10  C   UNL     1       2.937   6.679  18.223  0.00  0.00    +0.000 A 
ATOM     11  C   UNL     1       2.377   6.794  19.506  0.00  0.00    +0.000 A 
ATOM     12  C   UNL     1       1.826   7.996  19.943  0.00  0.00    +0.000 A 
ATOM     13  C   UNL     1       1.740   9.090  19.079  0.00  0.00    +0.000 A 
ATOM     14  C   UNL     1       2.270   8.978  17.788  0.00  0.00    +0.000 A 
ATOM     15  C   UNL     1       2.867   7.784  17.368  0.00  0.00    +0.000 A 
BRANCH  13  16
ATOM     16  C   UNL     1       1.027  10.339  19.535  0.00  0.00    +0.000 C 
BRANCH  16  17
ATOM     17  C   UNL     1      -0.322  10.577  18.905  0.00  0.00    +0.000 A 
ATOM     18  C   UNL     1      -0.725   9.823  17.795  0.00  0.00    +0.000 A 
ATOM     19  C   UNL     1      -2.004   9.978  17.260  0.00  0.00    +0.000 A 
ATOM     20  C   UNL     1      -2.890  10.894  17.824  0.00  0.00    +0.000 A 
ATOM     21  C   UNL     1      -2.491  11.672  18.910  0.00  0.00    +0.000 A 
ATOM     22  C   UNL     1      -1.210  11.520  19.444  0.00  0.00    +0.000 A 
ENDBRANCH  16  17
ENDBRANCH  13  16
ENDBRANCH   6  10
BRANCH   7  23
ATOM     23  C   UNL     1       2.599   3.670  19.472  0.00  0.00    +0.000 A 
ATOM     24  C   UNL     1       3.268   3.287  20.643  0.00  0.00    +0.000 A 
ATOM     25  C   UNL     1       2.563   2.785  21.744  0.00  0.00    +0.000 A 
ATOM     26  C   UNL     1       1.180   2.631  21.681  0.00  0.00    +0.000 A 
ATOM     27  C   UNL     1       0.497   3.000  20.529  0.00  0.00    +0.000 A 
ATOM     28  C   UNL     1       1.197   3.544  19.449  0.00  0.00    +0.000 A 
ENDBRANCH   7  23
BRANCH   1  30
ATOM     29  C   UNL     1       7.825   5.490  12.675  0.00  0.00    +0.000 C 
ATOM     30  C   UNL     1       7.340   4.371  13.588  0.00  0.00    +0.000 C 
BRANCH  30  31
ATOM     31  N   UNL     1       6.524   3.436  12.779  0.00  0.00    +0.000 NA
ATOM     32  H   UNL     1       5.645   3.282  13.284  0.00  0.00    +0.000 HD
ATOM     33  H   UNL     1       6.970   2.513  12.854  0.00  0.00    +0.000 HD
ENDBRANCH  30  31
ENDBRANCH   1  30
TORSDOF 6
ENDMDL
MODEL 2
REMARK VINA RESULT:      -9.0      0.165      1.254
REMARK  Name = 
REMARK  7 active torsions:
REMARK  status: ('A' for Active; 'I' for Inactive)
REMARK    1  A    between atoms: C_1  and  C_2
REMARK    2  A    between atoms: C_2  and  N_3
REMARK    3  A    between atoms: C_2  and  C_4
REMARK    4  A    between atoms: C_9  and  C_10
REMARK    5  A    between atoms: C_13  and  C_14
REMARK    6  A    between atoms: C_14  and  C_15
REMARK    7  A    between atoms: C_23  and  C_24
REMARK                            x       y       z     vdW  Elec       q    Type
REMARK                         _______ _______ _______ _____ _____    ______ ____
ROOT
ATOM      1  C   UNL     1       6.492   4.809  14.690  0.00  0.00    +0.000 C 
ATOM      2  O   UNL     1       6.596   5.980  15.071  0.00  0.00    +0.000 OA
ATOM      3  N   UNL     1       5.653   3.857  15.231  0.00  0.00    +0.000 N 
ATOM      4  C   UNL     1       4.793   4.187  16.247  0.00  0.00    +0.000 A 
ATOM      5  N   UNL     1       4.420   5.374  16.623  0.00  0.00    +0.000 NA
ATOM      6  C   UNL     1       3.538   5.288  17.689  0.00  0.00    +0.000 A 
ATOM      7  C   UNL     1       3.322   3.996  18.174  0.00  0.00    +0.000 A 
ATOM      8  S   UNL     1       4.124   2.881  17.104  0.00  0.00    +0.000 S 
ATOM      9  H   UNL     1       5.718   2.886  14.979  0.00  0.00    +0.000 HD
ENDROOT
BRANCH   6  10
ATOM     10  C   UNL     1       2.948   6.529  18.190  0.00  0.00    +0.000 A 
ATOM     11  C   UNL     1       2.289   6.584  19.429  0.00  0.00    +0.000 A 
ATOM     12  C   UNL     1       1.747   7.777  19.901  0.00  0.00    +0.000 A 
ATOM     13  C   UNL     1       1.771   8.926  19.109  0.00  0.00    +0.000 A 
ATOM     14  C   UNL     1       2.401   8.877  17.859  0.00  0.00    +0.000 A 
ATOM     15  C   UNL     1       2.987   7.688  17.408  0.00  0.00    +0.000 A 
BRANCH  13  16
ATOM     16  C   UNL     1       1.067  10.171  19.590  0.00  0.00    +0.000 C 
BRANCH  16  17
ATOM     17  C   UNL     1      -0.305  10.400  19.010  0.00  0.00    +0.000 A 
ATOM     18  C   UNL     1      -1.191  11.294  19.627  0.00  0.00    +0.000 A 
ATOM     19  C   UNL     1      -2.430  11.575  19.050  0.00  0.00    +0.000 A 
ATOM     20  C   UNL     1      -2.799  10.960  17.855  0.00  0.00    +0.000 A 
ATOM     21  C   UNL     1      -1.939  10.046  17.248  0.00  0.00    +0.000 A 
ATOM     22  C   UNL     1      -0.701   9.761  17.825  0.00  0.00    +0.000 A 
ENDBRANCH  16  17
ENDBRANCH  13  16
ENDBRANCH   6  10
BRANCH   7  23
ATOM     23  C   UNL     1       2.589   3.489  19.354  0.00  0.00    +0.000 A 
ATOM     24  C   UNL     1       1.187   3.443  19.392  0.00  0.00    +0.000 A 
ATOM     25  C   UNL     1       0.512   3.011  20.539  0.00  0.00    +0.000 A 
ATOM     26  C   UNL     1       1.225   2.643  21.678  0.00  0.00    +0.000 A 
ATOM     27  C   UNL     1       2.613   2.683  21.665  0.00  0.00    +0.000 A 
ATOM     28  C   UNL     1       3.287   3.072  20.503  0.00  0.00    +0.000 A 
ENDBRANCH   7  23
BRANCH   1  30
ATOM     29  C   UNL     1       7.906   5.464  12.663  0.00  0.00    +0.000 C 
ATOM     30  C   UNL     1       7.337   4.320  13.494  0.00  0.00    +0.000 C 
BRANCH  30  31
ATOM     31  N   UNL     1       6.490   3.485  12.611  0.00  0.00    +0.000 NA
ATOM     32  H   UNL     1       5.538   3.502  12.995  0.00  0.00    +0.000 HD
ATOM     33  H   UNL     1       6.762   2.509  12.775  0.00  0.00    +0.000 HD
ENDBRANCH  30  31
ENDBRANCH   1  30
TORSDOF 6
ENDMDL
MODEL 3
REMARK VINA RESULT:      -8.8      5.072      9.606
REMARK  Name = 
REMARK  7 active torsions:
REMARK  status: ('A' for Active; 'I' for Inactive)
REMARK    1  A    between atoms: C_1  and  C_2
REMARK    2  A    between atoms: C_2  and  N_3
REMARK    3  A    between atoms: C_2  and  C_4
REMARK    4  A    between atoms: C_9  and  C_10
REMARK    5  A    between atoms: C_13  and  C_14
REMARK    6  A    between atoms: C_14  and  C_15
REMARK    7  A    between atoms: C_23  and  C_24
REMARK                            x       y       z     vdW  Elec       q    Type
REMARK                         _______ _______ _______ _____ _____    ______ ____
ROOT
ATOM      1  C   UNL     1      -4.171  11.066  17.906  0.00  0.00    +0.000 C 
ATOM      2  O   UNL     1      -3.968   9.965  18.428  0.00  0.00    +0.000 OA
ATOM      3  N   UNL     1      -3.230  12.061  17.732  0.00  0.00    +0.000 N 
ATOM      4  C   UNL     1      -1.925  11.853  18.097  0.00  0.00    +0.000 A 
ATOM      5  N   UNL     1      -1.335  10.721  18.341  0.00  0.00    +0.000 NA
ATOM      6  C   UNL     1      -0.007  10.932  18.680  0.00  0.00    +0.000 A 
ATOM      7  C   UNL     1       0.372  12.272  18.775  0.00  0.00    +0.000 A 
ATOM      8  S   UNL     1      -0.963  13.247  18.228  0.00  0.00    +0.000 S 
ATOM      9  H   UNL     1      -3.486  12.988  17.438  0.00  0.00    +0.000 HD
ENDROOT
BRANCH   6  10
ATOM     10  C   UNL     1       0.834   9.757  18.907  0.00  0.00    +0.000 A 
ATOM     11  C   UNL     1       1.516   9.125  17.854  0.00  0.00    +0.000 A 
ATOM     12  C   UNL     1       2.328   8.018  18.087  0.00  0.00    +0.000 A 
ATOM     13  C   UNL     1       2.411   7.459  19.363  0.00  0.00    +0.000 A 
ATOM     14  C   UNL     1       1.713   8.063  20.416  0.00  0.00    +0.000 A 
ATOM     15  C   UNL     1       0.936   9.205  20.188  0.00  0.00    +0.000 A 
BRANCH  13  16
ATOM     16  C   UNL     1       3.197   6.187  19.564  0.00  0.00    +0.000 C 
BRANCH  16  17
ATOM     17  C   UNL     1       2.396   4.913  19.471  0.00  0.00    +0.000 A 
ATOM     18  C   UNL     1       1.848   4.338  20.625  0.00  0.00    +0.000 A 
ATOM     19  C   UNL     1       1.036   3.207  20.536  0.00  0.00    +0.000 A 
ATOM     20  C   UNL     1       0.770   2.635  19.294  0.00  0.00    +0.000 A 
ATOM     21  C   UNL     1       1.334   3.179  18.141  0.00  0.00    +0.000 A 
ATOM     22  C   UNL     1       2.150   4.308  18.228  0.00  0.00    +0.000 A 
ENDBRANCH  16  17
ENDBRANCH  13  16
ENDBRANCH   6  10
BRANCH   7  23
ATOM     23  C   UNL     1       1.620  12.920  19.235  0.00  0.00    +0.000 A 
ATOM     24  C   UNL     1       1.918  13.069  20.598  0.00  0.00    +0.000 A 
ATOM     25  C   UNL     1       3.077  13.734  21.013  0.00  0.00    +0.000 A 
ATOM     26  C   UNL     1       3.946  14.284  20.073  0.00  0.00    +0.000 A 
ATOM     27  C   UNL     1       3.670  14.152  18.718  0.00  0.00    +0.000 A 
ATOM     28  C   UNL     1       2.535  13.449  18.305  0.00  0.00    +0.000 A 
ENDBRANCH   7  23
BRANCH   1  30
ATOM     29  C   UNL     1      -5.901  12.892  17.452  0.00  0.00    +0.000 C 
ATOM     30  C   UNL     1      -5.577  11.406  17.366  0.00  0.00    +0.000 C 
BRANCH  30  31
ATOM     31  N   UNL     1      -6.591  10.666  18.153  0.00  0.00    +0.000 NA
ATOM     32  H   UNL     1      -6.149  10.390  19.037  0.00  0.00    +0.000 HD
ATOM     33  H   UNL     1      -6.718   9.757  17.693  0.00  0.00    +0.000 HD
ENDBRANCH  30  31
ENDBRANCH   1  30
TORSDOF 6
ENDMDL
MODEL 4
REMARK VINA RESULT:      -8.8      3.244      7.825
REMARK  Name = 
REMARK  7 active torsions:
REMARK  status: ('A' for Active; 'I' for Inactive)
REMARK    1  A    between atoms: C_1  and  C_2
REMARK    2  A    between atoms: C_2  and  N_3
REMARK    3  A    between atoms: C_2  and  C_4
REMARK    4  A    between atoms: C_9  and  C_10
REMARK    5  A    between atoms: C_13  and  C_14
REMARK    6  A    between atoms: C_14  and  C_15
REMARK    7  A    between atoms: C_23  and  C_24
REMARK                            x       y       z     vdW  Elec       q    Type
REMARK                         _______ _______ _______ _____ _____    ______ ____
ROOT
ATOM      1  C   UNL     1       1.184  10.950  19.014  0.00  0.00    +0.000 C 
ATOM      2  O   UNL     1       1.765  10.815  17.932  0.00  0.00    +0.000 OA
ATOM      3  N   UNL     1       1.011   9.964  19.964  0.00  0.00    +0.000 N 
ATOM      4  C   UNL     1       1.554   8.719  19.779  0.00  0.00    +0.000 A 
ATOM      5  N   UNL     1       2.485   8.370  18.941  0.00  0.00    +0.000 NA
ATOM      6  C   UNL     1       2.759   7.017  19.058  0.00  0.00    +0.000 A 
ATOM      7  C   UNL     1       1.940   6.324  19.952  0.00  0.00    +0.000 A 
ATOM      8  S   UNL     1       0.943   7.488  20.779  0.00  0.00    +0.000 S 
ATOM      9  H   UNL     1       0.404  10.090  20.755  0.00  0.00    +0.000 HD
ENDROOT
BRANCH   6  10
ATOM     10  C   UNL     1       3.844   6.467  18.247  0.00  0.00    +0.000 A 
ATOM     11  C   UNL     1       4.632   5.395  18.699  0.00  0.00    +0.000 A 
ATOM     12  C   UNL     1       5.651   4.870  17.909  0.00  0.00    +0.000 A 
ATOM     13  C   UNL     1       5.969   5.457  16.683  0.00  0.00    +0.000 A 
ATOM     14  C   UNL     1       5.208   6.544  16.234  0.00  0.00    +0.000 A 
ATOM     15  C   UNL     1       4.153   7.039  17.009  0.00  0.00    +0.000 A 
BRANCH  13  16
ATOM     16  C   UNL     1       7.157   4.948  15.904  0.00  0.00    +0.000 C 
BRANCH  16  17
ATOM     17  C   UNL     1       6.887   4.620  14.458  0.00  0.00    +0.000 A 
ATOM     18  C   UNL     1       7.693   5.165  13.449  0.00  0.00    +0.000 A 
ATOM     19  C   UNL     1       7.502   4.799  12.116  0.00  0.00    +0.000 A 
ATOM     20  C   UNL     1       6.499   3.893  11.777  0.00  0.00    +0.000 A 
ATOM     21  C   UNL     1       5.671   3.368  12.768  0.00  0.00    +0.000 A 
ATOM     22  C   UNL     1       5.858   3.735  14.101  0.00  0.00    +0.000 A 
ENDBRANCH  16  17
ENDBRANCH  13  16
ENDBRANCH   6  10
BRANCH   7  23
ATOM     23  C   UNL     1       1.804   4.884  20.262  0.00  0.00    +0.000 A 
ATOM     24  C   UNL     1       2.271   4.338  21.466  0.00  0.00    +0.000 A 
ATOM     25  C   UNL     1       2.182   2.964  21.717  0.00  0.00    +0.000 A 
ATOM     26  C   UNL     1       1.649   2.108  20.755  0.00  0.00    +0.000 A 
ATOM     27  C   UNL     1       1.184   2.625  19.554  0.00  0.00    +0.000 A 
ATOM     28  C   UNL     1       1.232   4.004  19.324  0.00  0.00    +0.000 A 
ENDBRANCH   7  23
BRANCH   1  30
ATOM     29  C   UNL     1       1.672  13.374  19.661  0.00  0.00    +0.000 C 
ATOM     30  C   UNL     1       0.598  12.326  19.398  0.00  0.00    +0.000 C 
BRANCH  30  31
ATOM     31  N   UNL     1      -0.215  12.180  20.628  0.00  0.00    +0.000 NA
ATOM     32  H   UNL     1      -1.021  12.810  20.538  0.00  0.00    +0.000 HD
ATOM     33  H   UNL     1       0.313  12.628  21.387  0.00  0.00    +0.000 HD
ENDBRANCH  30  31
ENDBRANCH   1  30
TORSDOF 6
ENDMDL
MODEL 5
REMARK VINA RESULT:      -8.8      3.200      7.814
REMARK  Name = 
REMARK  7 active torsions:
REMARK  status: ('A' for Active; 'I' for Inactive)
REMARK    1  A    between atoms: C_1  and  C_2
REMARK    2  A    between atoms: C_2  and  N_3
REMARK    3  A    between atoms: C_2  and  C_4
REMARK    4  A    between atoms: C_9  and  C_10
REMARK    5  A    between atoms: C_13  and  C_14
REMARK    6  A    between atoms: C_14  and  C_15
REMARK    7  A    between atoms: C_23  and  C_24
REMARK                            x       y       z     vdW  Elec       q    Type
REMARK                         _______ _______ _______ _____ _____    ______ ____
ROOT
ATOM      1  C   UNL     1       1.214  10.979  18.787  0.00  0.00    +0.000 C 
ATOM      2  O   UNL     1       1.786  10.815  17.705  0.00  0.00    +0.000 OA
ATOM      3  N   UNL     1       1.044  10.018  19.764  0.00  0.00    +0.000 N 
ATOM      4  C   UNL     1       1.583   8.767  19.606  0.00  0.00    +0.000 A 
ATOM      5  N   UNL     1       2.507   8.395  18.771  0.00  0.00    +0.000 NA
ATOM      6  C   UNL     1       2.778   7.044  18.921  0.00  0.00    +0.000 A 
ATOM      7  C   UNL     1       1.964   6.376  19.839  0.00  0.00    +0.000 A 
ATOM      8  S   UNL     1       0.977   7.565  20.642  0.00  0.00    +0.000 S 
ATOM      9  H   UNL     1       0.444  10.166  20.556  0.00  0.00    +0.000 HD
ENDROOT
BRANCH   6  10
ATOM     10  C   UNL     1       3.856   6.470  18.116  0.00  0.00    +0.000 A 
ATOM     11  C   UNL     1       4.606   5.370  18.566  0.00  0.00    +0.000 A 
ATOM     12  C   UNL     1       5.618   4.823  17.781  0.00  0.00    +0.000 A 
ATOM     13  C   UNL     1       5.968   5.414  16.566  0.00  0.00    +0.000 A 
ATOM     14  C   UNL     1       5.246   6.527  16.120  0.00  0.00    +0.000 A 
ATOM     15  C   UNL     1       4.197   7.046  16.888  0.00  0.00    +0.000 A 
BRANCH  13  16
ATOM     16  C   UNL     1       7.149   4.878  15.795  0.00  0.00    +0.000 C 
BRANCH  16  17
ATOM     17  C   UNL     1       6.859   4.468  14.373  0.00  0.00    +0.000 A 
ATOM     18  C   UNL     1       5.720   3.708  14.077  0.00  0.00    +0.000 A 
ATOM     19  C   UNL     1       5.400   3.397  12.755  0.00  0.00    +0.000 A 
ATOM     20  C   UNL     1       6.220   3.836  11.717  0.00  0.00    +0.000 A 
ATOM     21  C   UNL     1       7.372   4.567  12.001  0.00  0.00    +0.000 A 
ATOM     22  C   UNL     1       7.695   4.876  13.323  0.00  0.00    +0.000 A 
ENDBRANCH  16  17
ENDBRANCH  13  16
ENDBRANCH   6  10
BRANCH   7  23
ATOM     23  C   UNL     1       1.826   4.945  20.186  0.00  0.00    +0.000 A 
ATOM     24  C   UNL     1       2.258   4.438  21.420  0.00  0.00    +0.000 A 
ATOM     25  C   UNL     1       2.169   3.071  21.708  0.00  0.00    +0.000 A 
ATOM     26  C   UNL     1       1.672   2.184  20.756  0.00  0.00    +0.000 A 
ATOM     27  C   UNL     1       1.241   2.663  19.525  0.00  0.00    +0.000 A 
ATOM     28  C   UNL     1       1.289   4.034  19.257  0.00  0.00    +0.000 A 
ENDBRANCH   7  23
BRANCH   1  30
ATOM     29  C   UNL     1       0.047  12.422  20.545  0.00  0.00    +0.000 C 
ATOM     30  C   UNL     1       0.634  12.366  19.140  0.00  0.00    +0.000 C 
BRANCH  30  31
ATOM     31  N   UNL     1      -0.441  12.701  18.177  0.00  0.00    +0.000 NA
ATOM     32  H   UNL     1      -0.597  13.714  18.234  0.00  0.00    +0.000 HD
ATOM     33  H   UNL     1      -1.316  12.335  18.571  0.00  0.00    +0.000 HD
ENDBRANCH  30  31
ENDBRANCH   1  30
TORSDOF 6
ENDMDL
MODEL 6
REMARK VINA RESULT:      -8.7      5.027      9.327
REMARK  Name = 
REMARK  7 active torsions:
REMARK  status: ('A' for Active; 'I' for Inactive)
REMARK    1  A    between atoms: C_1  and  C_2
REMARK    2  A    between atoms: C_2  and  N_3
REMARK    3  A    between atoms: C_2  and  C_4
REMARK    4  A    between atoms: C_9  and  C_10
REMARK    5  A    between atoms: C_13  and  C_14
REMARK    6  A    between atoms: C_14  and  C_15
REMARK    7  A    between atoms: C_23  and  C_24
REMARK                            x       y       z     vdW  Elec       q    Type
REMARK                         _______ _______ _______ _____ _____    ______ ____
ROOT
ATOM      1  C   UNL     1       2.492  14.671  21.425  0.00  0.00    +0.000 C 
ATOM      2  O   UNL     1       3.409  13.943  21.032  0.00  0.00    +0.000 OA
ATOM      3  N   UNL     1       1.145  14.458  21.211  0.00  0.00    +0.000 N 
ATOM      4  C   UNL     1       0.716  13.329  20.562  0.00  0.00    +0.000 A 
ATOM      5  N   UNL     1       1.380  12.234  20.341  0.00  0.00    +0.000 NA
ATOM      6  C   UNL     1       0.595  11.323  19.651  0.00  0.00    +0.000 A 
ATOM      7  C   UNL     1      -0.663  11.796  19.273  0.00  0.00    +0.000 A 
ATOM      8  S   UNL     1      -0.885  13.366  19.994  0.00  0.00    +0.000 S 
ATOM      9  H   UNL     1       0.456  15.158  21.425  0.00  0.00    +0.000 HD
ENDROOT
BRANCH   6  10
ATOM     10  C   UNL     1       1.156   9.998  19.389  0.00  0.00    +0.000 A 
ATOM     11  C   UNL     1       1.172   8.997  20.375  0.00  0.00    +0.000 A 
ATOM     12  C   UNL     1       1.693   7.734  20.107  0.00  0.00    +0.000 A 
ATOM     13  C   UNL     1       2.292   7.464  18.875  0.00  0.00    +0.000 A 
ATOM     14  C   UNL     1       2.307   8.463  17.894  0.00  0.00    +0.000 A 
ATOM     15  C   UNL     1       1.740   9.716  18.150  0.00  0.00    +0.000 A 
BRANCH  13  16
ATOM     16  C   UNL     1       2.960   6.129  18.654  0.00  0.00    +0.000 C 
BRANCH  16  17
ATOM     17  C   UNL     1       2.305   4.959  19.342  0.00  0.00    +0.000 A 
ATOM     18  C   UNL     1       1.490   4.080  18.616  0.00  0.00    +0.000 A 
ATOM     19  C   UNL     1       0.949   2.948  19.227  0.00  0.00    +0.000 A 
ATOM     20  C   UNL     1       1.212   2.687  20.571  0.00  0.00    +0.000 A 
ATOM     21  C   UNL     1       1.996   3.570  21.311  0.00  0.00    +0.000 A 
ATOM     22  C   UNL     1       2.534   4.705  20.703  0.00  0.00    +0.000 A 
ENDBRANCH  16  17
ENDBRANCH  13  16
ENDBRANCH   6  10
BRANCH   7  23
ATOM     23  C   UNL     1      -1.727  11.216  18.424  0.00  0.00    +0.000 A 
ATOM     24  C   UNL     1      -1.452  10.242  17.454  0.00  0.00    +0.000 A 
ATOM     25  C   UNL     1      -2.464   9.746  16.624  0.00  0.00    +0.000 A 
ATOM     26  C   UNL     1      -3.764  10.236  16.732  0.00  0.00    +0.000 A 
ATOM     27  C   UNL     1      -4.059  11.204  17.683  0.00  0.00    +0.000 A 
ATOM     28  C   UNL     1      -3.056  11.665  18.541  0.00  0.00    +0.000 A 
ENDBRANCH   7  23
BRANCH   1  30
ATOM     29  C   UNL     1       4.118  15.803  23.040  0.00  0.00    +0.000 C 
ATOM     30  C   UNL     1       2.823  15.934  22.248  0.00  0.00    +0.000 C 
BRANCH  30  31
ATOM     31  N   UNL     1       1.721  16.191  23.206  0.00  0.00    +0.000 NA
ATOM     32  H   UNL     1       1.974  17.026  23.746  0.00  0.00    +0.000 HD
ATOM     33  H   UNL     1       1.775  15.457  23.922  0.00  0.00    +0.000 HD
ENDBRANCH  30  31
ENDBRANCH   1  30
TORSDOF 6
ENDMDL
MODEL 7
REMARK VINA RESULT:      -8.6      4.730      8.812
REMARK  Name = 
REMARK  7 active torsions:
REMARK  status: ('A' for Active; 'I' for Inactive)
REMARK    1  A    between atoms: C_1  and  C_2
REMARK    2  A    between atoms: C_2  and  N_3
REMARK    3  A    between atoms: C_2  and  C_4
REMARK    4  A    between atoms: C_9  and  C_10
REMARK    5  A    between atoms: C_13  and  C_14
REMARK    6  A    between atoms: C_14  and  C_15
REMARK    7  A    between atoms: C_23  and  C_24
REMARK                            x       y       z     vdW  Elec       q    Type
REMARK                         _______ _______ _______ _____ _____    ______ ____
ROOT
ATOM      1  C   UNL     1       3.640  14.728  18.268  0.00  0.00    +0.000 C 
ATOM      2  O   UNL     1       4.318  13.702  18.154  0.00  0.00    +0.000 OA
ATOM      3  N   UNL     1       2.272  14.774  18.451  0.00  0.00    +0.000 N 
ATOM      4  C   UNL     1       1.550  13.615  18.581  0.00  0.00    +0.000 A 
ATOM      5  N   UNL     1       1.995  12.423  18.848  0.00  0.00    +0.000 NA
ATOM      6  C   UNL     1       0.948  11.516  18.896  0.00  0.00    +0.000 A 
ATOM      7  C   UNL     1      -0.303  12.042  18.566  0.00  0.00    +0.000 A 
ATOM      8  S   UNL     1      -0.130  13.765  18.385  0.00  0.00    +0.000 S 
ATOM      9  H   UNL     1       1.757  15.634  18.389  0.00  0.00    +0.000 HD
ENDROOT
BRANCH   6  10
ATOM     10  C   UNL     1       1.256  10.136  19.269  0.00  0.00    +0.000 A 
ATOM     11  C   UNL     1       1.822   9.234  18.353  0.00  0.00    +0.000 A 
ATOM     12  C   UNL     1       2.126   7.928  18.727  0.00  0.00    +0.000 A 
ATOM     13  C   UNL     1       1.792   7.461  20.000  0.00  0.00    +0.000 A 
ATOM     14  C   UNL     1       1.201   8.343  20.913  0.00  0.00    +0.000 A 
ATOM     15  C   UNL     1       0.941   9.669  20.549  0.00  0.00    +0.000 A 
BRANCH  13  16
ATOM     16  C   UNL     1       2.017   6.008  20.338  0.00  0.00    +0.000 C 
BRANCH  16  17
ATOM     17  C   UNL     1       2.649   5.183  19.245  0.00  0.00    +0.000 A 
ATOM     18  C   UNL     1       1.844   4.474  18.343  0.00  0.00    +0.000 A 
ATOM     19  C   UNL     1       2.418   3.777  17.279  0.00  0.00    +0.000 A 
ATOM     20  C   UNL     1       3.802   3.775  17.112  0.00  0.00    +0.000 A 
ATOM     21  C   UNL     1       4.614   4.451  18.020  0.00  0.00    +0.000 A 
ATOM     22  C   UNL     1       4.043   5.145  19.087  0.00  0.00    +0.000 A 
ENDBRANCH  16  17
ENDBRANCH  13  16
ENDBRANCH   6  10
BRANCH   7  23
ATOM     23  C   UNL     1      -1.623  11.406  18.360  0.00  0.00    +0.000 A 
ATOM     24  C   UNL     1      -1.769  10.225  17.619  0.00  0.00    +0.000 A 
ATOM     25  C   UNL     1      -3.033   9.669  17.389  0.00  0.00    +0.000 A 
ATOM     26  C   UNL     1      -4.176  10.301  17.875  0.00  0.00    +0.000 A 
ATOM     27  C   UNL     1      -4.056  11.474  18.609  0.00  0.00    +0.000 A 
ATOM     28  C   UNL     1      -2.790  12.002  18.875  0.00  0.00    +0.000 A 
ENDBRANCH   7  23
BRANCH   1  30
ATOM     29  C   UNL     1       5.533  16.192  19.164  0.00  0.00    +0.000 C 
ATOM     30  C   UNL     1       4.332  16.107  18.231  0.00  0.00    +0.000 C 
BRANCH  30  31
ATOM     31  N   UNL     1       3.360  17.149  18.635  0.00  0.00    +0.000 NA
ATOM     32  H   UNL     1       3.885  17.888  19.115  0.00  0.00    +0.000 HD
ATOM     33  H   UNL     1       2.807  16.755  19.406  0.00  0.00    +0.000 HD
ENDBRANCH  30  31
ENDBRANCH   1  30
TORSDOF 6
ENDMDL
MODEL 8
REMARK VINA RESULT:      -8.6      3.297      7.863
REMARK  Name = 
REMARK  7 active torsions:
REMARK  status: ('A' for Active; 'I' for Inactive)
REMARK    1  A    between atoms: C_1  and  C_2
REMARK    2  A    between atoms: C_2  and  N_3
REMARK    3  A    between atoms: C_2  and  C_4
REMARK    4  A    between atoms: C_9  and  C_10
REMARK    5  A    between atoms: C_13  and  C_14
REMARK    6  A    between atoms: C_14  and  C_15
REMARK    7  A    between atoms: C_23  and  C_24
REMARK                            x       y       z     vdW  Elec       q    Type
REMARK                         _______ _______ _______ _____ _____    ______ ____
ROOT
ATOM      1  C   UNL     1       1.029  10.876  19.413  0.00  0.00    +0.000 C 
ATOM      2  O   UNL     1       1.647  10.869  18.343  0.00  0.00    +0.000 OA
ATOM      3  N   UNL     1       0.866   9.796  20.257  0.00  0.00    +0.000 N 
ATOM      4  C   UNL     1       1.463   8.596  19.971  0.00  0.00    +0.000 A 
ATOM      5  N   UNL     1       2.432   8.365  19.136  0.00  0.00    +0.000 NA
ATOM      6  C   UNL     1       2.755   7.017  19.131  0.00  0.00    +0.000 A 
ATOM      7  C   UNL     1       1.938   6.211  19.927  0.00  0.00    +0.000 A 
ATOM      8  S   UNL     1       0.872   7.253  20.827  0.00  0.00    +0.000 S 
ATOM      9  H   UNL     1       0.231   9.822  21.036  0.00  0.00    +0.000 HD
ENDROOT
BRANCH   6  10
ATOM     10  C   UNL     1       3.885   6.588  18.309  0.00  0.00    +0.000 A 
ATOM     11  C   UNL     1       4.074   7.075  17.004  0.00  0.00    +0.000 A 
ATOM     12  C   UNL     1       5.164   6.672  16.238  0.00  0.00    +0.000 A 
ATOM     13  C   UNL     1       6.047   5.703  16.720  0.00  0.00    +0.000 A 
ATOM     14  C   UNL     1       5.854   5.190  18.008  0.00  0.00    +0.000 A 
ATOM     15  C   UNL     1       4.784   5.633  18.795  0.00  0.00    +0.000 A 
BRANCH  13  16
ATOM     16  C   UNL     1       7.147   5.192  15.823  0.00  0.00    +0.000 C 
BRANCH  16  17
ATOM     17  C   UNL     1       6.696   4.682  14.478  0.00  0.00    +0.000 A 
ATOM     18  C   UNL     1       7.504   4.865  13.347  0.00  0.00    +0.000 A 
ATOM     19  C   UNL     1       7.133   4.322  12.117  0.00  0.00    +0.000 A 
ATOM     20  C   UNL     1       5.948   3.598  12.002  0.00  0.00    +0.000 A 
ATOM     21  C   UNL     1       5.121   3.434  13.112  0.00  0.00    +0.000 A 
ATOM     22  C   UNL     1       5.488   3.980  14.343  0.00  0.00    +0.000 A 
ENDBRANCH  16  17
ENDBRANCH  13  16
ENDBRANCH   6  10
BRANCH   7  23
ATOM     23  C   UNL     1       1.849   4.744  20.091  0.00  0.00    +0.000 A 
ATOM     24  C   UNL     1       1.396   3.909  19.060  0.00  0.00    +0.000 A 
ATOM     25  C   UNL     1       1.268   2.528  19.254  0.00  0.00    +0.000 A 
ATOM     26  C   UNL     1       1.566   1.963  20.492  0.00  0.00    +0.000 A 
ATOM     27  C   UNL     1       2.013   2.771  21.529  0.00  0.00    +0.000 A 
ATOM     28  C   UNL     1       2.183   4.142  21.320  0.00  0.00    +0.000 A 
ENDBRANCH   7  23
BRANCH   1  30
ATOM     29  C   UNL     1       0.332  13.266  18.834  0.00  0.00    +0.000 C 
ATOM     30  C   UNL     1       0.378  12.186  19.908  0.00  0.00    +0.000 C 
BRANCH  30  31
ATOM     31  N   UNL     1       1.153  12.709  21.056  0.00  0.00    +0.000 NA
ATOM     32  H   UNL     1       1.473  11.902  21.603  0.00  0.00    +0.000 HD
ATOM     33  H   UNL     1       0.477  13.139  21.699  0.00  0.00    +0.000 HD
ENDBRANCH  30  31
ENDBRANCH   1  30
TORSDOF 6
ENDMDL
MODEL 9
REMARK VINA RESULT:      -8.6      4.977      9.350
REMARK  Name = 
REMARK  7 active torsions:
REMARK  status: ('A' for Active; 'I' for Inactive)
REMARK    1  A    between atoms: C_1  and  C_2
REMARK    2  A    between atoms: C_2  and  N_3
REMARK    3  A    between atoms: C_2  and  C_4
REMARK    4  A    between atoms: C_9  and  C_10
REMARK    5  A    between atoms: C_13  and  C_14
REMARK    6  A    between atoms: C_14  and  C_15
REMARK    7  A    between atoms: C_23  and  C_24
REMARK                            x       y       z     vdW  Elec       q    Type
REMARK                         _______ _______ _______ _____ _____    ______ ____
ROOT
ATOM      1  C   UNL     1       2.512  14.626  21.415  0.00  0.00    +0.000 C 
ATOM      2  O   UNL     1       3.433  13.929  20.977  0.00  0.00    +0.000 OA
ATOM      3  N   UNL     1       1.164  14.389  21.233  0.00  0.00    +0.000 N 
ATOM      4  C   UNL     1       0.741  13.269  20.566  0.00  0.00    +0.000 A 
ATOM      5  N   UNL     1       1.422  12.195  20.297  0.00  0.00    +0.000 NA
ATOM      6  C   UNL     1       0.638  11.285  19.604  0.00  0.00    +0.000 A 
ATOM      7  C   UNL     1      -0.641  11.740  19.274  0.00  0.00    +0.000 A 
ATOM      8  S   UNL     1      -0.875  13.285  20.043  0.00  0.00    +0.000 S 
ATOM      9  H   UNL     1       0.467  15.068  21.484  0.00  0.00    +0.000 HD
ENDROOT
BRANCH   6  10
ATOM     10  C   UNL     1       1.219   9.981  19.292  0.00  0.00    +0.000 A 
ATOM     11  C   UNL     1       1.799   9.712  18.041  0.00  0.00    +0.000 A 
ATOM     12  C   UNL     1       2.364   8.471  17.763  0.00  0.00    +0.000 A 
ATOM     13  C   UNL     1       2.287   7.434  18.695  0.00  0.00    +0.000 A 
ATOM     14  C   UNL     1       1.686   7.681  19.936  0.00  0.00    +0.000 A 
ATOM     15  C   UNL     1       1.161   8.945  20.230  0.00  0.00    +0.000 A 
BRANCH  13  16
ATOM     16  C   UNL     1       2.795   6.064  18.322  0.00  0.00    +0.000 C 
BRANCH  16  17
ATOM     17  C   UNL     1       2.284   4.932  19.178  0.00  0.00    +0.000 A 
ATOM     18  C   UNL     1       2.695   4.816  20.512  0.00  0.00    +0.000 A 
ATOM     19  C   UNL     1       2.162   3.822  21.333  0.00  0.00    +0.000 A 
ATOM     20  C   UNL     1       1.219   2.929  20.826  0.00  0.00    +0.000 A 
ATOM     21  C   UNL     1       0.824   3.016  19.492  0.00  0.00    +0.000 A 
ATOM     22  C   UNL     1       1.360   4.007  18.668  0.00  0.00    +0.000 A 
ENDBRANCH  16  17
ENDBRANCH  13  16
ENDBRANCH   6  10
BRANCH   7  23
ATOM     23  C   UNL     1      -1.716  11.160  18.440  0.00  0.00    +0.000 A 
ATOM     24  C   UNL     1      -1.450  10.199  17.453  0.00  0.00    +0.000 A 
ATOM     25  C   UNL     1      -2.474   9.703  16.638  0.00  0.00    +0.000 A 
ATOM     26  C   UNL     1      -3.776  10.178  16.777  0.00  0.00    +0.000 A 
ATOM     27  C   UNL     1      -4.061  11.132  17.745  0.00  0.00    +0.000 A 
ATOM     28  C   UNL     1      -3.047  11.593  18.589  0.00  0.00    +0.000 A 
ENDBRANCH   7  23
BRANCH   1  30
ATOM     29  C   UNL     1       4.107  15.712  23.091  0.00  0.00    +0.000 C 
ATOM     30  C   UNL     1       2.838  15.875  22.263  0.00  0.00    +0.000 C 
BRANCH  30  31
ATOM     31  N   UNL     1       1.713  16.139  23.190  0.00  0.00    +0.000 NA
ATOM     32  H   UNL     1       1.936  16.999  23.704  0.00  0.00    +0.000 HD
ATOM     33  H   UNL     1       1.770  15.433  23.933  0.00  0.00    +0.000 HD
ENDBRANCH  30  31
ENDBRANCH   1  30
TORSDOF 6
ENDMDL
