MODEL 1
REMARK VINA RESULT:      -8.2      0.000      0.000
REMARK  Name = 
REMARK  14 active torsions:
REMARK  status: ('A' for Active; 'I' for Inactive)
REMARK    1  A    between atoms: C_2  and  C_3
REMARK    2  A    between atoms: C_3  and  C_4
REMARK    3  A    between atoms: C_6  and  C_7
REMARK    4  A    between atoms: C_12  and  C_13
REMARK    5  A    between atoms: N_18  and  C_19
REMARK    6  A    between atoms: C_19  and  C_20
REMARK    7  A    between atoms: C_20  and  C_21
REMARK    8  A    between atoms: C_21  and  C_22
REMARK    9  A    between atoms: C_22  and  N_23
REMARK   10  A    between atoms: C_25  and  O_26
REMARK   11  A    between atoms: C_27  and  O_28
REMARK   12  A    between atoms: C_29  and  O_30
REMARK   13  A    between atoms: C_31  and  C_32
REMARK   14  A    between atoms: C_32  and  O_33
REMARK                            x       y       z     vdW  Elec       q    Type
REMARK                         _______ _______ _______ _____ _____    ______ ____
ROOT
ATOM      1  O   UNL     1       7.475   8.385  16.953  0.00  0.00    +0.000 OA
ATOM      2  C   UNL     1       7.960   7.979  18.004  0.00  0.00    +0.000 C 
ATOM      3  N   UNL     1       8.774   8.743  18.814  0.00  0.00    +0.000 N 
ATOM      4  H   UNL     1       9.061   8.376  19.712  0.00  0.00    +0.000 HD
ENDROOT
BRANCH   2   5
ATOM      5  C   UNL     1       7.743   6.559  18.503  0.00  0.00    +0.000 C 
BRANCH   5   6
ATOM      6  C   UNL     1       6.656   5.845  17.737  0.00  0.00    +0.000 A 
ATOM      7  C   UNL     1       6.900   5.356  16.446  0.00  0.00    +0.000 A 
ATOM      8  C   UNL     1       5.884   4.733  15.715  0.00  0.00    +0.000 A 
ATOM      9  C   UNL     1       4.614   4.576  16.296  0.00  0.00    +0.000 A 
ATOM     10  C   UNL     1       4.341   5.068  17.576  0.00  0.00    +0.000 A 
ATOM     11  C   UNL     1       5.370   5.701  18.287  0.00  0.00    +0.000 A 
BRANCH   8  12
ATOM     12  C   UNL     1       6.086   4.277  14.298  0.00  0.00    +0.000 C 
ATOM     13  F   UNL     1       6.483   2.979  14.203  0.00  0.00    +0.000 F 
ATOM     14  F   UNL     1       4.978   4.401  13.524  0.00  0.00    +0.000 F 
ATOM     15  F   UNL     1       7.054   5.020  13.696  0.00  0.00    +0.000 F 
ENDBRANCH   8  12
BRANCH  10  16
ATOM     16  C   UNL     1       2.957   4.938  18.167  0.00  0.00    +0.000 C 
ATOM     17  F   UNL     1       2.967   4.695  19.508  0.00  0.00    +0.000 F 
ATOM     18  F   UNL     1       2.207   6.059  17.998  0.00  0.00    +0.000 F 
ATOM     19  F   UNL     1       2.247   3.918  17.613  0.00  0.00    +0.000 F 
ENDBRANCH  10  16
ENDBRANCH   5   6
ENDBRANCH   2   5
BRANCH   3  20
ATOM     20  C   UNL     1       9.097  10.124  18.509  0.00  0.00    +0.000 C 
BRANCH  20  21
ATOM     21  C   UNL     1       9.020  11.002  19.760  0.00  0.00    +0.000 C 
BRANCH  21  22
ATOM     22  C   UNL     1      10.361  11.014  20.493  0.00  0.00    +0.000 C 
BRANCH  22  23
ATOM     23  C   UNL     1      11.134  12.322  20.297  0.00  0.00    +0.000 C 
BRANCH  23  24
ATOM     24  N   UNL     1      10.753  13.083  19.094  0.00  0.00    +0.000 NA
ATOM     25  C   UNL     1      11.708  12.858  18.000  0.00  0.00    +0.000 C 
ATOM     26  C   UNL     1      11.312  13.524  16.679  0.00  0.00    +0.000 C 
ATOM     27  C   UNL     1      11.126  15.025  16.930  0.00  0.00    +0.000 C 
ATOM     28  C   UNL     1      10.018  15.210  17.978  0.00  0.00    +0.000 C 
ATOM     29  C   UNL     1      10.426  14.523  19.315  0.00  0.00    +0.000 C 
BRANCH  26  30
ATOM     30  O   UNL     1      12.319  13.264  15.700  0.00  0.00    +0.000 OA
ATOM     31  H   UNL     1      12.698  14.113  15.418  0.00  0.00    +0.000 HD
ENDBRANCH  26  30
BRANCH  27  32
ATOM     32  O   UNL     1      10.822  15.724  15.720  0.00  0.00    +0.000 OA
ATOM     33  H   UNL     1      10.078  15.261  15.293  0.00  0.00    +0.000 HD
ENDBRANCH  27  32
BRANCH  28  34
ATOM     34  O   UNL     1       9.733  16.601  18.157  0.00  0.00    +0.000 OA
ATOM     35  H   UNL     1      10.366  16.970  18.802  0.00  0.00    +0.000 HD
ENDBRANCH  28  34
BRANCH  29  36
ATOM     36  C   UNL     1       9.296  14.743  20.356  0.00  0.00    +0.000 C 
BRANCH  36  37
ATOM     37  O   UNL     1       9.348  16.058  20.902  0.00  0.00    +0.000 OA
ATOM     38  H   UNL     1      10.184  16.134  21.390  0.00  0.00    +0.000 HD
ENDBRANCH  36  37
ENDBRANCH  29  36
ENDBRANCH  23  24
ENDBRANCH  22  23
ENDBRANCH  21  22
ENDBRANCH  20  21
ENDBRANCH   3  20
TORSDOF 14
ENDMDL
MODEL 2
REMARK VINA RESULT:      -8.2      2.787      3.972
REMARK  Name = 
REMARK  14 active torsions:
REMARK  status: ('A' for Active; 'I' for Inactive)
REMARK    1  A    between atoms: C_2  and  C_3
REMARK    2  A    between atoms: C_3  and  C_4
REMARK    3  A    between atoms: C_6  and  C_7
REMARK    4  A    between atoms: C_12  and  C_13
REMARK    5  A    between atoms: N_18  and  C_19
REMARK    6  A    between atoms: C_19  and  C_20
REMARK    7  A    between atoms: C_20  and  C_21
REMARK    8  A    between atoms: C_21  and  C_22
REMARK    9  A    between atoms: C_22  and  N_23
REMARK   10  A    between atoms: C_25  and  O_26
REMARK   11  A    between atoms: C_27  and  O_28
REMARK   12  A    between atoms: C_29  and  O_30
REMARK   13  A    between atoms: C_31  and  C_32
REMARK   14  A    between atoms: C_32  and  O_33
REMARK                            x       y       z     vdW  Elec       q    Type
REMARK                         _______ _______ _______ _____ _____    ______ ____
ROOT
ATOM      1  O   UNL     1       8.160   4.300  17.444  0.00  0.00    +0.000 OA
ATOM      2  C   UNL     1       7.124   4.913  17.206  0.00  0.00    +0.000 C 
ATOM      3  N   UNL     1       6.905   6.219  17.587  0.00  0.00    +0.000 N 
ATOM      4  H   UNL     1       6.066   6.691  17.275  0.00  0.00    +0.000 HD
ENDROOT
BRANCH   2   5
ATOM      5  C   UNL     1       5.947   4.268  16.491  0.00  0.00    +0.000 C 
BRANCH   5   6
ATOM      6  C   UNL     1       4.632   4.574  17.167  0.00  0.00    +0.000 A 
ATOM      7  C   UNL     1       4.206   5.900  17.323  0.00  0.00    +0.000 A 
ATOM      8  C   UNL     1       3.009   6.191  17.988  0.00  0.00    +0.000 A 
ATOM      9  C   UNL     1       2.220   5.137  18.478  0.00  0.00    +0.000 A 
ATOM     10  C   UNL     1       2.631   3.807  18.348  0.00  0.00    +0.000 A 
ATOM     11  C   UNL     1       3.839   3.538  17.690  0.00  0.00    +0.000 A 
BRANCH   8  12
ATOM     12  C   UNL     1       2.567   7.602  18.251  0.00  0.00    +0.000 C 
ATOM     13  F   UNL     1       2.251   7.832  19.554  0.00  0.00    +0.000 F 
ATOM     14  F   UNL     1       3.490   8.535  17.905  0.00  0.00    +0.000 F 
ATOM     15  F   UNL     1       1.449   7.889  17.529  0.00  0.00    +0.000 F 
ENDBRANCH   8  12
BRANCH  10  16
ATOM     16  C   UNL     1       1.797   2.688  18.925  0.00  0.00    +0.000 C 
ATOM     17  F   UNL     1       2.403   1.470  18.847  0.00  0.00    +0.000 F 
ATOM     18  F   UNL     1       1.507   2.875  20.241  0.00  0.00    +0.000 F 
ATOM     19  F   UNL     1       0.602   2.546  18.289  0.00  0.00    +0.000 F 
ENDBRANCH  10  16
ENDBRANCH   5   6
ENDBRANCH   2   5
BRANCH   3  20
ATOM     20  C   UNL     1       7.910   7.005  18.279  0.00  0.00    +0.000 C 
BRANCH  20  21
ATOM     21  C   UNL     1       8.044   8.400  17.665  0.00  0.00    +0.000 C 
BRANCH  21  22
ATOM     22  C   UNL     1       8.606   9.388  18.687  0.00  0.00    +0.000 C 
BRANCH  22  23
ATOM     23  C   UNL     1       9.387  10.534  18.037  0.00  0.00    +0.000 C 
BRANCH  23  24
ATOM     24  N   UNL     1       9.093  11.867  18.589  0.00  0.00    +0.000 NA
ATOM     25  C   UNL     1       8.404  12.710  17.602  0.00  0.00    +0.000 C 
ATOM     26  C   UNL     1       7.960  14.072  18.145  0.00  0.00    +0.000 C 
ATOM     27  C   UNL     1       9.190  14.795  18.704  0.00  0.00    +0.000 C 
ATOM     28  C   UNL     1       9.790  13.938  19.829  0.00  0.00    +0.000 C 
ATOM     29  C   UNL     1      10.232  12.554  19.270  0.00  0.00    +0.000 C 
BRANCH  26  30
ATOM     30  O   UNL     1       7.331  14.813  17.098  0.00  0.00    +0.000 OA
ATOM     31  H   UNL     1       6.629  14.262  16.713  0.00  0.00    +0.000 HD
ENDBRANCH  26  30
BRANCH  27  32
ATOM     32  O   UNL     1       8.861  16.107  19.167  0.00  0.00    +0.000 OA
ATOM     33  H   UNL     1       7.892  16.204  19.108  0.00  0.00    +0.000 HD
ENDBRANCH  27  32
BRANCH  28  34
ATOM     34  O   UNL     1      10.873  14.631  20.457  0.00  0.00    +0.000 OA
ATOM     35  H   UNL     1      11.713  14.303  20.084  0.00  0.00    +0.000 HD
ENDBRANCH  28  34
BRANCH  29  36
ATOM     36  C   UNL     1      10.847  11.720  20.425  0.00  0.00    +0.000 C 
BRANCH  36  37
ATOM     37  O   UNL     1      10.098  11.875  21.627  0.00  0.00    +0.000 OA
ATOM     38  H   UNL     1      10.734  11.920  22.359  0.00  0.00    +0.000 HD
ENDBRANCH  36  37
ENDBRANCH  29  36
ENDBRANCH  23  24
ENDBRANCH  22  23
ENDBRANCH  21  22
ENDBRANCH  20  21
ENDBRANCH   3  20
TORSDOF 14
ENDMDL
MODEL 3
REMARK VINA RESULT:      -8.0      2.747      4.023
REMARK  Name = 
REMARK  14 active torsions:
REMARK  status: ('A' for Active; 'I' for Inactive)
REMARK    1  A    between atoms: C_2  and  C_3
REMARK    2  A    between atoms: C_3  and  C_4
REMARK    3  A    between atoms: C_6  and  C_7
REMARK    4  A    between atoms: C_12  and  C_13
REMARK    5  A    between atoms: N_18  and  C_19
REMARK    6  A    between atoms: C_19  and  C_20
REMARK    7  A    between atoms: C_20  and  C_21
REMARK    8  A    between atoms: C_21  and  C_22
REMARK    9  A    between atoms: C_22  and  N_23
REMARK   10  A    between atoms: C_25  and  O_26
REMARK   11  A    between atoms: C_27  and  O_28
REMARK   12  A    between atoms: C_29  and  O_30
REMARK   13  A    between atoms: C_31  and  C_32
REMARK   14  A    between atoms: C_32  and  O_33
REMARK                            x       y       z     vdW  Elec       q    Type
REMARK                         _______ _______ _______ _____ _____    ______ ____
ROOT
ATOM      1  O   UNL     1       6.984   5.761  15.469  0.00  0.00    +0.000 OA
ATOM      2  C   UNL     1       6.501   5.309  16.502  0.00  0.00    +0.000 C 
ATOM      3  N   UNL     1       6.889   5.706  17.764  0.00  0.00    +0.000 N 
ATOM      4  H   UNL     1       6.382   5.361  18.568  0.00  0.00    +0.000 HD
ENDROOT
BRANCH   2   5
ATOM      5  C   UNL     1       5.440   4.220  16.493  0.00  0.00    +0.000 C 
BRANCH   5   6
ATOM      6  C   UNL     1       4.191   4.634  17.233  0.00  0.00    +0.000 A 
ATOM      7  C   UNL     1       3.855   5.989  17.357  0.00  0.00    +0.000 A 
ATOM      8  C   UNL     1       2.722   6.380  18.079  0.00  0.00    +0.000 A 
ATOM      9  C   UNL     1       1.904   5.398  18.663  0.00  0.00    +0.000 A 
ATOM     10  C   UNL     1       2.227   4.040  18.566  0.00  0.00    +0.000 A 
ATOM     11  C   UNL     1       3.373   3.671  17.849  0.00  0.00    +0.000 A 
BRANCH   8  12
ATOM     12  C   UNL     1       2.382   7.825  18.306  0.00  0.00    +0.000 C 
ATOM     13  F   UNL     1       1.999   8.092  19.584  0.00  0.00    +0.000 F 
ATOM     14  F   UNL     1       3.400   8.675  18.021  0.00  0.00    +0.000 F 
ATOM     15  F   UNL     1       1.343   8.196  17.509  0.00  0.00    +0.000 F 
ENDBRANCH   8  12
BRANCH  10  16
ATOM     16  C   UNL     1       1.366   3.000  19.243  0.00  0.00    +0.000 C 
ATOM     17  F   UNL     1       0.439   2.446  18.411  0.00  0.00    +0.000 F 
ATOM     18  F   UNL     1       2.091   1.960  19.736  0.00  0.00    +0.000 F 
ATOM     19  F   UNL     1       0.664   3.506  20.293  0.00  0.00    +0.000 F 
ENDBRANCH  10  16
ENDBRANCH   5   6
ENDBRANCH   2   5
BRANCH   3  20
ATOM     20  C   UNL     1       7.889   6.737  17.980  0.00  0.00    +0.000 C 
BRANCH  20  21
ATOM     21  C   UNL     1       7.275   8.135  17.880  0.00  0.00    +0.000 C 
BRANCH  21  22
ATOM     22  C   UNL     1       8.361   9.185  17.642  0.00  0.00    +0.000 C 
BRANCH  22  23
ATOM     23  C   UNL     1       8.942   9.743  18.945  0.00  0.00    +0.000 C 
BRANCH  23  24
ATOM     24  N   UNL     1       9.472  11.113  18.841  0.00  0.00    +0.000 NA
ATOM     25  C   UNL     1      10.531  11.196  17.825  0.00  0.00    +0.000 C 
ATOM     26  C   UNL     1      11.049  12.617  17.577  0.00  0.00    +0.000 C 
ATOM     27  C   UNL     1      11.537  13.193  18.911  0.00  0.00    +0.000 C 
ATOM     28  C   UNL     1      10.357  13.215  19.894  0.00  0.00    +0.000 C 
ATOM     29  C   UNL     1       9.832  11.769  20.134  0.00  0.00    +0.000 C 
BRANCH  26  30
ATOM     30  O   UNL     1      12.087  12.574  16.597  0.00  0.00    +0.000 OA
ATOM     31  H   UNL     1      12.536  11.715  16.665  0.00  0.00    +0.000 HD
ENDBRANCH  26  30
BRANCH  27  32
ATOM     32  O   UNL     1      12.100  14.497  18.742  0.00  0.00    +0.000 OA
ATOM     33  H   UNL     1      12.797  14.430  18.064  0.00  0.00    +0.000 HD
ENDBRANCH  27  32
BRANCH  28  34
ATOM     34  O   UNL     1      10.741  13.854  21.115  0.00  0.00    +0.000 OA
ATOM     35  H   UNL     1      11.115  13.182  21.716  0.00  0.00    +0.000 HD
ENDBRANCH  28  34
BRANCH  29  36
ATOM     36  C   UNL     1       8.654  11.824  21.142  0.00  0.00    +0.000 C 
BRANCH  36  37
ATOM     37  O   UNL     1       9.120  11.726  22.484  0.00  0.00    +0.000 OA
ATOM     38  H   UNL     1       8.441  11.254  22.991  0.00  0.00    +0.000 HD
ENDBRANCH  36  37
ENDBRANCH  29  36
ENDBRANCH  23  24
ENDBRANCH  22  23
ENDBRANCH  21  22
ENDBRANCH  20  21
ENDBRANCH   3  20
TORSDOF 14
ENDMDL
MODEL 4
REMARK VINA RESULT:      -7.8      1.079      3.808
REMARK  Name = 
REMARK  14 active torsions:
REMARK  status: ('A' for Active; 'I' for Inactive)
REMARK    1  A    between atoms: C_2  and  C_3
REMARK    2  A    between atoms: C_3  and  C_4
REMARK    3  A    between atoms: C_6  and  C_7
REMARK    4  A    between atoms: C_12  and  C_13
REMARK    5  A    between atoms: N_18  and  C_19
REMARK    6  A    between atoms: C_19  and  C_20
REMARK    7  A    between atoms: C_20  and  C_21
REMARK    8  A    between atoms: C_21  and  C_22
REMARK    9  A    between atoms: C_22  and  N_23
REMARK   10  A    between atoms: C_25  and  O_26
REMARK   11  A    between atoms: C_27  and  O_28
REMARK   12  A    between atoms: C_29  and  O_30
REMARK   13  A    between atoms: C_31  and  C_32
REMARK   14  A    between atoms: C_32  and  O_33
REMARK                            x       y       z     vdW  Elec       q    Type
REMARK                         _______ _______ _______ _____ _____    ______ ____
ROOT
ATOM      1  O   UNL     1       6.539   8.004  17.068  0.00  0.00    +0.000 OA
ATOM      2  C   UNL     1       7.455   7.569  17.758  0.00  0.00    +0.000 C 
ATOM      3  N   UNL     1       8.436   8.362  18.315  0.00  0.00    +0.000 N 
ATOM      4  H   UNL     1       9.105   7.948  18.950  0.00  0.00    +0.000 HD
ENDROOT
BRANCH   2   5
ATOM      5  C   UNL     1       7.626   6.083  18.037  0.00  0.00    +0.000 C 
BRANCH   5   6
ATOM      6  C   UNL     1       6.644   5.241  17.259  0.00  0.00    +0.000 A 
ATOM      7  C   UNL     1       5.578   4.607  17.913  0.00  0.00    +0.000 A 
ATOM      8  C   UNL     1       4.691   3.790  17.205  0.00  0.00    +0.000 A 
ATOM      9  C   UNL     1       4.862   3.626  15.819  0.00  0.00    +0.000 A 
ATOM     10  C   UNL     1       5.926   4.235  15.147  0.00  0.00    +0.000 A 
ATOM     11  C   UNL     1       6.811   5.040  15.878  0.00  0.00    +0.000 A 
BRANCH   8  12
ATOM     12  C   UNL     1       3.592   3.027  17.888  0.00  0.00    +0.000 C 
ATOM     13  F   UNL     1       3.706   1.678  17.745  0.00  0.00    +0.000 F 
ATOM     14  F   UNL     1       3.508   3.270  19.220  0.00  0.00    +0.000 F 
ATOM     15  F   UNL     1       2.384   3.368  17.363  0.00  0.00    +0.000 F 
ENDBRANCH   8  12
BRANCH  10  16
ATOM     16  C   UNL     1       6.126   4.009  13.668  0.00  0.00    +0.000 C 
ATOM     17  F   UNL     1       4.975   4.116  12.947  0.00  0.00    +0.000 F 
ATOM     18  F   UNL     1       6.996   4.896  13.114  0.00  0.00    +0.000 F 
ATOM     19  F   UNL     1       6.619   2.771  13.391  0.00  0.00    +0.000 F 
ENDBRANCH  10  16
ENDBRANCH   5   6
ENDBRANCH   2   5
BRANCH   3  20
ATOM     20  C   UNL     1       8.445   9.806  18.163  0.00  0.00    +0.000 C 
BRANCH  20  21
ATOM     21  C   UNL     1       9.771  10.405  18.634  0.00  0.00    +0.000 C 
BRANCH  21  22
ATOM     22  C   UNL     1       9.535  11.716  19.385  0.00  0.00    +0.000 C 
BRANCH  22  23
ATOM     23  C   UNL     1      10.832  12.478  19.670  0.00  0.00    +0.000 C 
BRANCH  23  24
ATOM     24  N   UNL     1      10.843  13.871  19.190  0.00  0.00    +0.000 NA
ATOM     25  C   UNL     1       9.776  14.658  19.824  0.00  0.00    +0.000 C 
ATOM     26  C   UNL     1       9.800  16.147  19.463  0.00  0.00    +0.000 C 
ATOM     27  C   UNL     1       9.730  16.276  17.937  0.00  0.00    +0.000 C 
ATOM     28  C   UNL     1      10.945  15.557  17.331  0.00  0.00    +0.000 C 
ATOM     29  C   UNL     1      10.916  14.046  17.709  0.00  0.00    +0.000 C 
BRANCH  26  30
ATOM     30  O   UNL     1       8.709  16.805  20.108  0.00  0.00    +0.000 OA
ATOM     31  H   UNL     1       7.898  16.300  19.928  0.00  0.00    +0.000 HD
ENDBRANCH  26  30
BRANCH  27  32
ATOM     32  O   UNL     1       9.678  17.646  17.529  0.00  0.00    +0.000 OA
ATOM     33  H   UNL     1      10.591  17.990  17.541  0.00  0.00    +0.000 HD
ENDBRANCH  27  32
BRANCH  28  34
ATOM     34  O   UNL     1      10.980  15.752  15.913  0.00  0.00    +0.000 OA
ATOM     35  H   UNL     1      10.215  16.299  15.654  0.00  0.00    +0.000 HD
ENDBRANCH  28  34
BRANCH  29  36
ATOM     36  C   UNL     1      12.145  13.346  17.069  0.00  0.00    +0.000 C 
BRANCH  36  37
ATOM     37  O   UNL     1      11.993  13.231  15.657  0.00  0.00    +0.000 OA
ATOM     38  H   UNL     1      11.406  13.949  15.371  0.00  0.00    +0.000 HD
ENDBRANCH  36  37
ENDBRANCH  29  36
ENDBRANCH  23  24
ENDBRANCH  22  23
ENDBRANCH  21  22
ENDBRANCH  20  21
ENDBRANCH   3  20
TORSDOF 14
ENDMDL
MODEL 5
REMARK VINA RESULT:      -7.6      7.172      8.694
REMARK  Name = 
REMARK  14 active torsions:
REMARK  status: ('A' for Active; 'I' for Inactive)
REMARK    1  A    between atoms: C_2  and  C_3
REMARK    2  A    between atoms: C_3  and  C_4
REMARK    3  A    between atoms: C_6  and  C_7
REMARK    4  A    between atoms: C_12  and  C_13
REMARK    5  A    between atoms: N_18  and  C_19
REMARK    6  A    between atoms: C_19  and  C_20
REMARK    7  A    between atoms: C_20  and  C_21
REMARK    8  A    between atoms: C_21  and  C_22
REMARK    9  A    between atoms: C_22  and  N_23
REMARK   10  A    between atoms: C_25  and  O_26
REMARK   11  A    between atoms: C_27  and  O_28
REMARK   12  A    between atoms: C_29  and  O_30
REMARK   13  A    between atoms: C_31  and  C_32
REMARK   14  A    between atoms: C_32  and  O_33
REMARK                            x       y       z     vdW  Elec       q    Type
REMARK                         _______ _______ _______ _____ _____    ______ ____
ROOT
ATOM      1  O   UNL     1       1.407   4.779  17.968  0.00  0.00    +0.000 OA
ATOM      2  C   UNL     1       2.253   4.425  18.783  0.00  0.00    +0.000 C 
ATOM      3  N   UNL     1       2.368   4.963  20.047  0.00  0.00    +0.000 N 
ATOM      4  H   UNL     1       3.027   4.558  20.698  0.00  0.00    +0.000 HD
ENDROOT
BRANCH   2   5
ATOM      5  C   UNL     1       3.300   3.371  18.459  0.00  0.00    +0.000 C 
BRANCH   5   6
ATOM      6  C   UNL     1       4.538   3.969  17.836  0.00  0.00    +0.000 A 
ATOM      7  C   UNL     1       4.723   3.931  16.447  0.00  0.00    +0.000 A 
ATOM      8  C   UNL     1       5.889   4.444  15.869  0.00  0.00    +0.000 A 
ATOM      9  C   UNL     1       6.869   5.025  16.692  0.00  0.00    +0.000 A 
ATOM     10  C   UNL     1       6.714   5.061  18.082  0.00  0.00    +0.000 A 
ATOM     11  C   UNL     1       5.544   4.530  18.642  0.00  0.00    +0.000 A 
BRANCH   8  12
ATOM     12  C   UNL     1       6.160   4.341  14.395  0.00  0.00    +0.000 C 
ATOM     13  F   UNL     1       6.495   3.083  13.998  0.00  0.00    +0.000 F 
ATOM     14  F   UNL     1       5.113   4.726  13.622  0.00  0.00    +0.000 F 
ATOM     15  F   UNL     1       7.202   5.144  14.049  0.00  0.00    +0.000 F 
ENDBRANCH   8  12
BRANCH  10  16
ATOM     16  C   UNL     1       7.798   5.642  18.958  0.00  0.00    +0.000 C 
ATOM     17  F   UNL     1       8.264   6.843  18.512  0.00  0.00    +0.000 F 
ATOM     18  F   UNL     1       7.383   5.855  20.235  0.00  0.00    +0.000 F 
ATOM     19  F   UNL     1       8.890   4.833  19.043  0.00  0.00    +0.000 F 
ENDBRANCH  10  16
ENDBRANCH   5   6
ENDBRANCH   2   5
BRANCH   3  20
ATOM     20  C   UNL     1       1.460   5.981  20.543  0.00  0.00    +0.000 C 
BRANCH  20  21
ATOM     21  C   UNL     1       1.992   7.387  20.257  0.00  0.00    +0.000 C 
BRANCH  21  22
ATOM     22  C   UNL     1       1.077   8.446  20.873  0.00  0.00    +0.000 C 
BRANCH  22  23
ATOM     23  C   UNL     1       1.074   9.759  20.084  0.00  0.00    +0.000 C 
BRANCH  23  24
ATOM     24  N   UNL     1      -0.257  10.201  19.635  0.00  0.00    +0.000 NA
ATOM     25  C   UNL     1      -0.449   9.933  18.203  0.00  0.00    +0.000 C 
ATOM     26  C   UNL     1      -1.856  10.258  17.690  0.00  0.00    +0.000 C 
ATOM     27  C   UNL     1      -2.160  11.727  18.008  0.00  0.00    +0.000 C 
ATOM     28  C   UNL     1      -2.084  11.921  19.530  0.00  0.00    +0.000 C 
ATOM     29  C   UNL     1      -0.654  11.582  20.043  0.00  0.00    +0.000 C 
BRANCH  26  30
ATOM     30  O   UNL     1      -1.920   9.987  16.289  0.00  0.00    +0.000 OA
ATOM     31  H   UNL     1      -1.286  10.568  15.836  0.00  0.00    +0.000 HD
ENDBRANCH  26  30
BRANCH  27  32
ATOM     32  O   UNL     1      -3.435  12.120  17.494  0.00  0.00    +0.000 OA
ATOM     33  H   UNL     1      -3.320  12.321  16.547  0.00  0.00    +0.000 HD
ENDBRANCH  27  32
BRANCH  28  34
ATOM     34  O   UNL     1      -2.475  13.253  19.879  0.00  0.00    +0.000 OA
ATOM     35  H   UNL     1      -2.078  13.481  20.741  0.00  0.00    +0.000 HD
ENDBRANCH  28  34
BRANCH  29  36
ATOM     36  C   UNL     1      -0.606  11.804  21.578  0.00  0.00    +0.000 C 
BRANCH  36  37
ATOM     37  O   UNL     1      -1.916  11.803  22.139  0.00  0.00    +0.000 OA
ATOM     38  H   UNL     1      -2.253  10.895  22.080  0.00  0.00    +0.000 HD
ENDBRANCH  36  37
ENDBRANCH  29  36
ENDBRANCH  23  24
ENDBRANCH  22  23
ENDBRANCH  21  22
ENDBRANCH  20  21
ENDBRANCH   3  20
TORSDOF 14
ENDMDL
MODEL 6
REMARK VINA RESULT:      -7.6      8.803     12.385
REMARK  Name = 
REMARK  14 active torsions:
REMARK  status: ('A' for Active; 'I' for Inactive)
REMARK    1  A    between atoms: C_2  and  C_3
REMARK    2  A    between atoms: C_3  and  C_4
REMARK    3  A    between atoms: C_6  and  C_7
REMARK    4  A    between atoms: C_12  and  C_13
REMARK    5  A    between atoms: N_18  and  C_19
REMARK    6  A    between atoms: C_19  and  C_20
REMARK    7  A    between atoms: C_20  and  C_21
REMARK    8  A    between atoms: C_21  and  C_22
REMARK    9  A    between atoms: C_22  and  N_23
REMARK   10  A    between atoms: C_25  and  O_26
REMARK   11  A    between atoms: C_27  and  O_28
REMARK   12  A    between atoms: C_29  and  O_30
REMARK   13  A    between atoms: C_31  and  C_32
REMARK   14  A    between atoms: C_32  and  O_33
REMARK                            x       y       z     vdW  Elec       q    Type
REMARK                         _______ _______ _______ _____ _____    ______ ____
ROOT
ATOM      1  O   UNL     1      -1.372   9.465  18.810  0.00  0.00    +0.000 OA
ATOM      2  C   UNL     1      -0.991  10.498  18.268  0.00  0.00    +0.000 C 
ATOM      3  N   UNL     1       0.327  10.904  18.237  0.00  0.00    +0.000 N 
ATOM      4  H   UNL     1       0.580  11.717  17.692  0.00  0.00    +0.000 HD
ENDROOT
BRANCH   2   5
ATOM      5  C   UNL     1      -1.955  11.469  17.604  0.00  0.00    +0.000 C 
BRANCH   5   6
ATOM      6  C   UNL     1      -3.109  11.834  18.506  0.00  0.00    +0.000 A 
ATOM      7  C   UNL     1      -2.873  12.394  19.769  0.00  0.00    +0.000 A 
ATOM      8  C   UNL     1      -3.937  12.694  20.627  0.00  0.00    +0.000 A 
ATOM      9  C   UNL     1      -5.254  12.453  20.201  0.00  0.00    +0.000 A 
ATOM     10  C   UNL     1      -5.515  11.881  18.951  0.00  0.00    +0.000 A 
ATOM     11  C   UNL     1      -4.433  11.576  18.113  0.00  0.00    +0.000 A 
BRANCH   8  12
ATOM     12  C   UNL     1      -3.716  13.211  22.020  0.00  0.00    +0.000 C 
ATOM     13  F   UNL     1      -3.168  12.287  22.855  0.00  0.00    +0.000 F 
ATOM     14  F   UNL     1      -2.916  14.306  22.073  0.00  0.00    +0.000 F 
ATOM     15  F   UNL     1      -4.900  13.580  22.580  0.00  0.00    +0.000 F 
ENDBRANCH   8  12
BRANCH  10  16
ATOM     16  C   UNL     1      -6.933  11.580  18.528  0.00  0.00    +0.000 C 
ATOM     17  F   UNL     1      -7.865  12.035  19.412  0.00  0.00    +0.000 F 
ATOM     18  F   UNL     1      -7.252  12.138  17.330  0.00  0.00    +0.000 F 
ATOM     19  F   UNL     1      -7.167  10.245  18.401  0.00  0.00    +0.000 F 
ENDBRANCH  10  16
ENDBRANCH   5   6
ENDBRANCH   2   5
BRANCH   3  20
ATOM     20  C   UNL     1       1.396  10.111  18.815  0.00  0.00    +0.000 C 
BRANCH  20  21
ATOM     21  C   UNL     1       2.073   9.235  17.758  0.00  0.00    +0.000 C 
BRANCH  21  22
ATOM     22  C   UNL     1       2.203   7.795  18.254  0.00  0.00    +0.000 C 
BRANCH  22  23
ATOM     23  C   UNL     1       3.557   7.169  17.907  0.00  0.00    +0.000 C 
BRANCH  23  24
ATOM     24  N   UNL     1       3.558   5.696  17.863  0.00  0.00    +0.000 NA
ATOM     25  C   UNL     1       2.189   5.164  17.919  0.00  0.00    +0.000 C 
ATOM     26  C   UNL     1       2.104   3.643  17.757  0.00  0.00    +0.000 C 
ATOM     27  C   UNL     1       2.979   2.992  18.835  0.00  0.00    +0.000 C 
ATOM     28  C   UNL     1       4.425   3.472  18.643  0.00  0.00    +0.000 C 
ATOM     29  C   UNL     1       4.501   5.019  18.802  0.00  0.00    +0.000 C 
BRANCH  26  30
ATOM     30  O   UNL     1       0.739   3.235  17.855  0.00  0.00    +0.000 OA
ATOM     31  H   UNL     1       0.479   2.832  17.010  0.00  0.00    +0.000 HD
ENDBRANCH  26  30
BRANCH  27  32
ATOM     32  O   UNL     1       2.892   1.565  18.787  0.00  0.00    +0.000 OA
ATOM     33  H   UNL     1       2.275   1.285  19.488  0.00  0.00    +0.000 HD
ENDBRANCH  27  32
BRANCH  28  34
ATOM     34  O   UNL     1       5.296   2.798  19.558  0.00  0.00    +0.000 OA
ATOM     35  H   UNL     1       5.522   3.410  20.284  0.00  0.00    +0.000 HD
ENDBRANCH  28  34
BRANCH  29  36
ATOM     36  C   UNL     1       5.975   5.470  18.620  0.00  0.00    +0.000 C 
BRANCH  36  37
ATOM     37  O   UNL     1       6.720   5.288  19.821  0.00  0.00    +0.000 OA
ATOM     38  H   UNL     1       7.659   5.267  19.577  0.00  0.00    +0.000 HD
ENDBRANCH  36  37
ENDBRANCH  29  36
ENDBRANCH  23  24
ENDBRANCH  22  23
ENDBRANCH  21  22
ENDBRANCH  20  21
ENDBRANCH   3  20
TORSDOF 14
ENDMDL
MODEL 7
REMARK VINA RESULT:      -7.6      2.383      3.501
REMARK  Name = 
REMARK  14 active torsions:
REMARK  status: ('A' for Active; 'I' for Inactive)
REMARK    1  A    between atoms: C_2  and  C_3
REMARK    2  A    between atoms: C_3  and  C_4
REMARK    3  A    between atoms: C_6  and  C_7
REMARK    4  A    between atoms: C_12  and  C_13
REMARK    5  A    between atoms: N_18  and  C_19
REMARK    6  A    between atoms: C_19  and  C_20
REMARK    7  A    between atoms: C_20  and  C_21
REMARK    8  A    between atoms: C_21  and  C_22
REMARK    9  A    between atoms: C_22  and  N_23
REMARK   10  A    between atoms: C_25  and  O_26
REMARK   11  A    between atoms: C_27  and  O_28
REMARK   12  A    between atoms: C_29  and  O_30
REMARK   13  A    between atoms: C_31  and  C_32
REMARK   14  A    between atoms: C_32  and  O_33
REMARK                            x       y       z     vdW  Elec       q    Type
REMARK                         _______ _______ _______ _____ _____    ______ ____
ROOT
ATOM      1  O   UNL     1       7.493   6.010  15.792  0.00  0.00    +0.000 OA
ATOM      2  C   UNL     1       7.127   5.980  16.963  0.00  0.00    +0.000 C 
ATOM      3  N   UNL     1       7.273   7.037  17.836  0.00  0.00    +0.000 N 
ATOM      4  H   UNL     1       6.863   6.975  18.758  0.00  0.00    +0.000 HD
ENDROOT
BRANCH   2   5
ATOM      5  C   UNL     1       6.505   4.740  17.586  0.00  0.00    +0.000 C 
BRANCH   5   6
ATOM      6  C   UNL     1       5.023   4.902  17.821  0.00  0.00    +0.000 A 
ATOM      7  C   UNL     1       4.444   6.178  17.849  0.00  0.00    +0.000 A 
ATOM      8  C   UNL     1       3.078   6.337  18.110  0.00  0.00    +0.000 A 
ATOM      9  C   UNL     1       2.281   5.199  18.320  0.00  0.00    +0.000 A 
ATOM     10  C   UNL     1       2.837   3.916  18.312  0.00  0.00    +0.000 A 
ATOM     11  C   UNL     1       4.210   3.781  18.061  0.00  0.00    +0.000 A 
BRANCH   8  12
ATOM     12  C   UNL     1       2.443   7.692  18.234  0.00  0.00    +0.000 C 
ATOM     13  F   UNL     1       1.974   7.952  19.485  0.00  0.00    +0.000 F 
ATOM     14  F   UNL     1       3.275   8.715  17.912  0.00  0.00    +0.000 F 
ATOM     15  F   UNL     1       1.376   7.792  17.395  0.00  0.00    +0.000 F 
ENDBRANCH   8  12
BRANCH  10  16
ATOM     16  C   UNL     1       1.977   2.707  18.590  0.00  0.00    +0.000 C 
ATOM     17  F   UNL     1       0.690   2.854  18.167  0.00  0.00    +0.000 F 
ATOM     18  F   UNL     1       2.442   1.582  17.984  0.00  0.00    +0.000 F 
ATOM     19  F   UNL     1       1.897   2.418  19.918  0.00  0.00    +0.000 F 
ENDBRANCH  10  16
ENDBRANCH   5   6
ENDBRANCH   2   5
BRANCH   3  20
ATOM     20  C   UNL     1       7.844   8.308  17.428  0.00  0.00    +0.000 C 
BRANCH  20  21
ATOM     21  C   UNL     1       8.725   8.900  18.529  0.00  0.00    +0.000 C 
BRANCH  21  22
ATOM     22  C   UNL     1       8.623  10.425  18.540  0.00  0.00    +0.000 C 
BRANCH  22  23
ATOM     23  C   UNL     1       9.955  11.106  18.869  0.00  0.00    +0.000 C 
BRANCH  23  24
ATOM     24  N   UNL     1       9.938  12.575  18.751  0.00  0.00    +0.000 NA
ATOM     25  C   UNL     1      10.654  13.018  17.546  0.00  0.00    +0.000 C 
ATOM     26  C   UNL     1      10.577  14.527  17.294  0.00  0.00    +0.000 C 
ATOM     27  C   UNL     1      11.109  15.254  18.534  0.00  0.00    +0.000 C 
ATOM     28  C   UNL     1      10.238  14.865  19.738  0.00  0.00    +0.000 C 
ATOM     29  C   UNL     1      10.317  13.329  19.983  0.00  0.00    +0.000 C 
BRANCH  26  30
ATOM     30  O   UNL     1      11.326  14.847  16.121  0.00  0.00    +0.000 OA
ATOM     31  H   UNL     1      11.439  14.034  15.600  0.00  0.00    +0.000 HD
ENDBRANCH  26  30
BRANCH  27  32
ATOM     32  O   UNL     1      11.131  16.670  18.342  0.00  0.00    +0.000 OA
ATOM     33  H   UNL     1      11.714  17.050  19.025  0.00  0.00    +0.000 HD
ENDBRANCH  27  32
BRANCH  28  34
ATOM     34  O   UNL     1      10.630  15.611  20.895  0.00  0.00    +0.000 OA
ATOM     35  H   UNL     1      11.537  15.350  21.143  0.00  0.00    +0.000 HD
ENDBRANCH  28  34
BRANCH  29  36
ATOM     36  C   UNL     1       9.441  12.972  21.213  0.00  0.00    +0.000 C 
BRANCH  36  37
ATOM     37  O   UNL     1       9.934  11.810  21.875  0.00  0.00    +0.000 OA
ATOM     38  H   UNL     1       9.740  11.050  21.305  0.00  0.00    +0.000 HD
ENDBRANCH  36  37
ENDBRANCH  29  36
ENDBRANCH  23  24
ENDBRANCH  22  23
ENDBRANCH  21  22
ENDBRANCH  20  21
ENDBRANCH   3  20
TORSDOF 14
ENDMDL
MODEL 8
REMARK VINA RESULT:      -7.6      2.366      3.383
REMARK  Name = 
REMARK  14 active torsions:
REMARK  status: ('A' for Active; 'I' for Inactive)
REMARK    1  A    between atoms: C_2  and  C_3
REMARK    2  A    between atoms: C_3  and  C_4
REMARK    3  A    between atoms: C_6  and  C_7
REMARK    4  A    between atoms: C_12  and  C_13
REMARK    5  A    between atoms: N_18  and  C_19
REMARK    6  A    between atoms: C_19  and  C_20
REMARK    7  A    between atoms: C_20  and  C_21
REMARK    8  A    between atoms: C_21  and  C_22
REMARK    9  A    between atoms: C_22  and  N_23
REMARK   10  A    between atoms: C_25  and  O_26
REMARK   11  A    between atoms: C_27  and  O_28
REMARK   12  A    between atoms: C_29  and  O_30
REMARK   13  A    between atoms: C_31  and  C_32
REMARK   14  A    between atoms: C_32  and  O_33
REMARK                            x       y       z     vdW  Elec       q    Type
REMARK                         _______ _______ _______ _____ _____    ______ ____
ROOT
ATOM      1  O   UNL     1       7.002   6.115  18.993  0.00  0.00    +0.000 OA
ATOM      2  C   UNL     1       6.850   6.567  17.863  0.00  0.00    +0.000 C 
ATOM      3  N   UNL     1       7.549   7.651  17.373  0.00  0.00    +0.000 N 
ATOM      4  H   UNL     1       7.440   7.910  16.402  0.00  0.00    +0.000 HD
ENDROOT
BRANCH   2   5
ATOM      5  C   UNL     1       5.830   5.995  16.891  0.00  0.00    +0.000 C 
BRANCH   5   6
ATOM      6  C   UNL     1       4.419   6.099  17.417  0.00  0.00    +0.000 A 
ATOM      7  C   UNL     1       3.673   4.942  17.681  0.00  0.00    +0.000 A 
ATOM      8  C   UNL     1       2.350   5.032  18.127  0.00  0.00    +0.000 A 
ATOM      9  C   UNL     1       1.778   6.299  18.336  0.00  0.00    +0.000 A 
ATOM     10  C   UNL     1       2.497   7.468  18.066  0.00  0.00    +0.000 A 
ATOM     11  C   UNL     1       3.817   7.355  17.607  0.00  0.00    +0.000 A 
BRANCH   8  12
ATOM     12  C   UNL     1       1.494   3.815  18.334  0.00  0.00    +0.000 C 
ATOM     13  F   UNL     1       0.984   3.726  19.592  0.00  0.00    +0.000 F 
ATOM     14  F   UNL     1       0.440   3.741  17.483  0.00  0.00    +0.000 F 
ATOM     15  F   UNL     1       2.224   2.685  18.134  0.00  0.00    +0.000 F 
ENDBRANCH   8  12
BRANCH  10  16
ATOM     16  C   UNL     1       1.853   8.821  18.246  0.00  0.00    +0.000 C 
ATOM     17  F   UNL     1       1.429   9.050  19.521  0.00  0.00    +0.000 F 
ATOM     18  F   UNL     1       2.693   9.847  17.944  0.00  0.00    +0.000 F 
ATOM     19  F   UNL     1       0.755   8.985  17.458  0.00  0.00    +0.000 F 
ENDBRANCH  10  16
ENDBRANCH   5   6
ENDBRANCH   2   5
BRANCH   3  20
ATOM     20  C   UNL     1       8.568   8.332  18.150  0.00  0.00    +0.000 C 
BRANCH  20  21
ATOM     21  C   UNL     1       8.279   9.832  18.250  0.00  0.00    +0.000 C 
BRANCH  21  22
ATOM     22  C   UNL     1       9.484  10.576  18.826  0.00  0.00    +0.000 C 
BRANCH  22  23
ATOM     23  C   UNL     1       9.129  11.977  19.333  0.00  0.00    +0.000 C 
BRANCH  23  24
ATOM     24  N   UNL     1       9.592  13.076  18.469  0.00  0.00    +0.000 NA
ATOM     25  C   UNL     1      10.739  12.661  17.650  0.00  0.00    +0.000 C 
ATOM     26  C   UNL     1      11.201  13.716  16.639  0.00  0.00    +0.000 C 
ATOM     27  C   UNL     1      11.522  15.007  17.400  0.00  0.00    +0.000 C 
ATOM     28  C   UNL     1      10.251  15.476  18.124  0.00  0.00    +0.000 C 
ATOM     29  C   UNL     1       9.786  14.394  19.144  0.00  0.00    +0.000 C 
BRANCH  26  30
ATOM     30  O   UNL     1      12.331  13.218  15.923  0.00  0.00    +0.000 OA
ATOM     31  H   UNL     1      12.672  12.438  16.393  0.00  0.00    +0.000 HD
ENDBRANCH  26  30
BRANCH  27  32
ATOM     32  O   UNL     1      12.027  16.018  16.525  0.00  0.00    +0.000 OA
ATOM     33  H   UNL     1      11.481  16.816  16.652  0.00  0.00    +0.000 HD
ENDBRANCH  27  32
BRANCH  28  34
ATOM     34  O   UNL     1      10.477  16.741  18.753  0.00  0.00    +0.000 OA
ATOM     35  H   UNL     1       9.711  16.951  19.319  0.00  0.00    +0.000 HD
ENDBRANCH  28  34
BRANCH  29  36
ATOM     36  C   UNL     1       8.512  14.905  19.868  0.00  0.00    +0.000 C 
BRANCH  36  37
ATOM     37  O   UNL     1       8.845  15.804  20.922  0.00  0.00    +0.000 OA
ATOM     38  H   UNL     1       8.423  16.653  20.720  0.00  0.00    +0.000 HD
ENDBRANCH  36  37
ENDBRANCH  29  36
ENDBRANCH  23  24
ENDBRANCH  22  23
ENDBRANCH  21  22
ENDBRANCH  20  21
ENDBRANCH   3  20
TORSDOF 14
ENDMDL
MODEL 9
REMARK VINA RESULT:      -7.6      2.209      3.464
REMARK  Name = 
REMARK  14 active torsions:
REMARK  status: ('A' for Active; 'I' for Inactive)
REMARK    1  A    between atoms: C_2  and  C_3
REMARK    2  A    between atoms: C_3  and  C_4
REMARK    3  A    between atoms: C_6  and  C_7
REMARK    4  A    between atoms: C_12  and  C_13
REMARK    5  A    between atoms: N_18  and  C_19
REMARK    6  A    between atoms: C_19  and  C_20
REMARK    7  A    between atoms: C_20  and  C_21
REMARK    8  A    between atoms: C_21  and  C_22
REMARK    9  A    between atoms: C_22  and  N_23
REMARK   10  A    between atoms: C_25  and  O_26
REMARK   11  A    between atoms: C_27  and  O_28
REMARK   12  A    between atoms: C_29  and  O_30
REMARK   13  A    between atoms: C_31  and  C_32
REMARK   14  A    between atoms: C_32  and  O_33
REMARK                            x       y       z     vdW  Elec       q    Type
REMARK                         _______ _______ _______ _____ _____    ______ ____
ROOT
ATOM      1  O   UNL     1       7.852   6.103  18.449  0.00  0.00    +0.000 OA
ATOM      2  C   UNL     1       7.336   6.763  17.553  0.00  0.00    +0.000 C 
ATOM      3  N   UNL     1       7.524   8.120  17.398  0.00  0.00    +0.000 N 
ATOM      4  H   UNL     1       7.144   8.582  16.582  0.00  0.00    +0.000 HD
ENDROOT
BRANCH   2   5
ATOM      5  C   UNL     1       6.389   6.147  16.534  0.00  0.00    +0.000 C 
BRANCH   5   6
ATOM      6  C   UNL     1       4.974   6.059  17.050  0.00  0.00    +0.000 A 
ATOM      7  C   UNL     1       4.240   7.224  17.314  0.00  0.00    +0.000 A 
ATOM      8  C   UNL     1       2.943   7.148  17.834  0.00  0.00    +0.000 A 
ATOM      9  C   UNL     1       2.368   5.888  18.068  0.00  0.00    +0.000 A 
ATOM     10  C   UNL     1       3.084   4.711  17.826  0.00  0.00    +0.000 A 
ATOM     11  C   UNL     1       4.387   4.810  17.317  0.00  0.00    +0.000 A 
BRANCH   8  12
ATOM     12  C   UNL     1       2.163   8.375  18.212  0.00  0.00    +0.000 C 
ATOM     13  F   UNL     1       1.789   8.392  19.520  0.00  0.00    +0.000 F 
ATOM     14  F   UNL     1       2.830   9.535  17.983  0.00  0.00    +0.000 F 
ATOM     15  F   UNL     1       1.016   8.447  17.483  0.00  0.00    +0.000 F 
ENDBRANCH   8  12
BRANCH  10  16
ATOM     16  C   UNL     1       2.471   3.366  18.130  0.00  0.00    +0.000 C 
ATOM     17  F   UNL     1       2.356   2.567  17.032  0.00  0.00    +0.000 F 
ATOM     18  F   UNL     1       3.193   2.652  19.035  0.00  0.00    +0.000 F 
ATOM     19  F   UNL     1       1.214   3.469  18.643  0.00  0.00    +0.000 F 
ENDBRANCH  10  16
ENDBRANCH   5   6
ENDBRANCH   2   5
BRANCH   3  20
ATOM     20  C   UNL     1       8.394   8.887  18.271  0.00  0.00    +0.000 C 
BRANCH  20  21
ATOM     21  C   UNL     1       8.558  10.323  17.769  0.00  0.00    +0.000 C 
BRANCH  21  22
ATOM     22  C   UNL     1       9.825  10.955  18.345  0.00  0.00    +0.000 C 
BRANCH  22  23
ATOM     23  C   UNL     1       9.538  11.895  19.520  0.00  0.00    +0.000 C 
BRANCH  23  24
ATOM     24  N   UNL     1       9.779  13.320  19.237  0.00  0.00    +0.000 NA
ATOM     25  C   UNL     1      10.327  13.507  17.886  0.00  0.00    +0.000 C 
ATOM     26  C   UNL     1      10.492  14.974  17.476  0.00  0.00    +0.000 C 
ATOM     27  C   UNL     1      11.377  15.671  18.516  0.00  0.00    +0.000 C 
ATOM     28  C   UNL     1      10.690  15.569  19.886  0.00  0.00    +0.000 C 
ATOM     29  C   UNL     1      10.520  14.076  20.291  0.00  0.00    +0.000 C 
BRANCH  26  30
ATOM     30  O   UNL     1      11.054  15.036  16.164  0.00  0.00    +0.000 OA
ATOM     31  H   UNL     1      10.895  14.185  15.723  0.00  0.00    +0.000 HD
ENDBRANCH  26  30
BRANCH  27  32
ATOM     32  O   UNL     1      11.631  17.032  18.159  0.00  0.00    +0.000 OA
ATOM     33  H   UNL     1      11.749  17.535  18.986  0.00  0.00    +0.000 HD
ENDBRANCH  27  32
BRANCH  28  34
ATOM     34  O   UNL     1      11.427  16.308  20.866  0.00  0.00    +0.000 OA
ATOM     35  H   UNL     1      10.840  16.982  21.258  0.00  0.00    +0.000 HD
ENDBRANCH  28  34
BRANCH  29  36
ATOM     36  C   UNL     1       9.839  14.008  21.684  0.00  0.00    +0.000 C 
BRANCH  36  37
ATOM     37  O   UNL     1       9.047  15.167  21.926  0.00  0.00    +0.000 OA
ATOM     38  H   UNL     1       8.665  15.437  21.076  0.00  0.00    +0.000 HD
ENDBRANCH  36  37
ENDBRANCH  29  36
ENDBRANCH  23  24
ENDBRANCH  22  23
ENDBRANCH  21  22
ENDBRANCH  20  21
ENDBRANCH   3  20
TORSDOF 14
ENDMDL
