MODEL 1
REMARK VINA RESULT:      -8.6      0.000      0.000
REMARK  Name = 
REMARK  5 active torsions:
REMARK  status: ('A' for Active; 'I' for Inactive)
REMARK    1  A    between atoms: C_1  and  O_2
REMARK    2  A    between atoms: O_2  and  C_3
REMARK    3  A    between atoms: C_8  and  C_9
REMARK    4  A    between atoms: C_9  and  N_10
REMARK    5  A    between atoms: C_11  and  C_13
REMARK                            x       y       z     vdW  Elec       q    Type
REMARK                         _______ _______ _______ _____ _____    ______ ____
ROOT
ATOM      1  C   UNL     1       2.281   7.073  19.502  0.00  0.00    +0.000 A 
ATOM      2  C   UNL     1       2.216   8.000  18.455  0.00  0.00    +0.000 A 
ATOM      3  C   UNL     1       1.526   9.215  18.568  0.00  0.00    +0.000 A 
ATOM      4  C   UNL     1       0.868   9.538  19.772  0.00  0.00    +0.000 A 
ATOM      5  N   UNL     1       0.103  10.674  19.978  0.00  0.00    +0.000 NA
ATOM      6  C   UNL     1      -0.422  10.698  21.186  0.00  0.00    +0.000 A 
ATOM      7  N   UNL     1      -1.333  11.645  21.591  0.00  0.00    +0.000 N 
ATOM      8  C   UNL     1      -1.441  12.092  22.980  0.00  0.00    +0.000 C 
ATOM      9  C   UNL     1      -2.905  12.439  23.290  0.00  0.00    +0.000 C 
ATOM     10  C   UNL     1      -3.503  13.427  22.283  0.00  0.00    +0.000 C 
ATOM     11  C   UNL     1      -3.204  13.020  20.840  0.00  0.00    +0.000 C 
ATOM     12  C   UNL     1      -1.723  12.690  20.636  0.00  0.00    +0.000 C 
ATOM     13  S   UNL     1       0.092   9.345  22.162  0.00  0.00    +0.000 S 
ATOM     14  C   UNL     1       0.959   8.646  20.833  0.00  0.00    +0.000 A 
ATOM     15  C   UNL     1       1.659   7.400  20.731  0.00  0.00    +0.000 A 
ENDROOT
BRANCH   1  17
ATOM     16  N   UNL     1       2.914   5.248  17.884  0.00  0.00    +0.000 N 
ATOM     17  C   UNL     1       2.980   5.759  19.176  0.00  0.00    +0.000 C 
ATOM     18  O   UNL     1       3.600   5.189  20.058  0.00  0.00    +0.000 OA
ATOM     19  H   UNL     1       2.660   5.850  17.123  0.00  0.00    +0.000 HD
BRANCH  16  20
ATOM     20  C   UNL     1       3.677   4.051  17.510  0.00  0.00    +0.000 C 
BRANCH  20  26
ATOM     21  C   UNL     1       6.239   4.438  17.352  0.00  0.00    +0.000 A 
ATOM     22  C   UNL     1       7.372   4.666  16.557  0.00  0.00    +0.000 A 
ATOM     23  C   UNL     1       7.281   4.851  15.194  0.00  0.00    +0.000 A 
ATOM     24  C   UNL     1       6.035   4.733  14.579  0.00  0.00    +0.000 A 
ATOM     25  C   UNL     1       4.906   4.445  15.348  0.00  0.00    +0.000 A 
ATOM     26  C   UNL     1       4.964   4.308  16.754  0.00  0.00    +0.000 A 
BRANCH  21  28
ATOM     27  C   UNL     1       7.056   5.585  19.199  0.00  0.00    +0.000 C 
ATOM     28  O   UNL     1       6.369   4.417  18.721  0.00  0.00    +0.000 OA
ENDBRANCH  21  28
ENDBRANCH  20  26
ENDBRANCH  16  20
ENDBRANCH   1  17
TORSDOF 4
ENDMDL
MODEL 2
REMARK VINA RESULT:      -8.4      1.048      1.101
REMARK  Name = 
REMARK  5 active torsions:
REMARK  status: ('A' for Active; 'I' for Inactive)
REMARK    1  A    between atoms: C_1  and  O_2
REMARK    2  A    between atoms: O_2  and  C_3
REMARK    3  A    between atoms: C_8  and  C_9
REMARK    4  A    between atoms: C_9  and  N_10
REMARK    5  A    between atoms: C_11  and  C_13
REMARK                            x       y       z     vdW  Elec       q    Type
REMARK                         _______ _______ _______ _____ _____    ______ ____
ROOT
ATOM      1  C   UNL     1       2.287   7.376  19.032  0.00  0.00    +0.000 A 
ATOM      2  C   UNL     1       2.142   8.374  18.062  0.00  0.00    +0.000 A 
ATOM      3  C   UNL     1       1.417   9.552  18.297  0.00  0.00    +0.000 A 
ATOM      4  C   UNL     1       0.806   9.760  19.550  0.00  0.00    +0.000 A 
ATOM      5  N   UNL     1       0.014  10.849  19.875  0.00  0.00    +0.000 NA
ATOM      6  C   UNL     1      -0.453  10.764  21.104  0.00  0.00    +0.000 A 
ATOM      7  N   UNL     1      -1.375  11.644  21.619  0.00  0.00    +0.000 N 
ATOM      8  C   UNL     1      -1.432  11.984  23.041  0.00  0.00    +0.000 C 
ATOM      9  C   UNL     1      -2.891  12.253  23.442  0.00  0.00    +0.000 C 
ATOM     10  C   UNL     1      -3.569  13.288  22.540  0.00  0.00    +0.000 C 
ATOM     11  C   UNL     1      -3.325  13.001  21.059  0.00  0.00    +0.000 C 
ATOM     12  C   UNL     1      -1.845  12.742  20.764  0.00  0.00    +0.000 C 
ATOM     13  S   UNL     1       0.151   9.363  21.951  0.00  0.00    +0.000 S 
ATOM     14  C   UNL     1       0.977   8.797  20.536  0.00  0.00    +0.000 A 
ATOM     15  C   UNL     1       1.714   7.588  20.309  0.00  0.00    +0.000 A 
ENDROOT
BRANCH   1  17
ATOM     16  N   UNL     1       4.358   5.947  18.890  0.00  0.00    +0.000 N 
ATOM     17  C   UNL     1       3.013   6.117  18.578  0.00  0.00    +0.000 C 
ATOM     18  O   UNL     1       2.389   5.270  17.959  0.00  0.00    +0.000 OA
ATOM     19  H   UNL     1       4.771   6.491  19.625  0.00  0.00    +0.000 HD
BRANCH  16  20
ATOM     20  C   UNL     1       5.052   4.692  18.574  0.00  0.00    +0.000 C 
BRANCH  20  26
ATOM     21  C   UNL     1       6.960   5.283  16.917  0.00  0.00    +0.000 A 
ATOM     22  C   UNL     1       7.514   5.171  15.633  0.00  0.00    +0.000 A 
ATOM     23  C   UNL     1       6.857   4.517  14.612  0.00  0.00    +0.000 A 
ATOM     24  C   UNL     1       5.644   3.886  14.884  0.00  0.00    +0.000 A 
ATOM     25  C   UNL     1       5.110   3.936  16.173  0.00  0.00    +0.000 A 
ATOM     26  C   UNL     1       5.735   4.648  17.223  0.00  0.00    +0.000 A 
BRANCH  21  28
ATOM     27  C   UNL     1       7.520   7.465  17.485  0.00  0.00    +0.000 C 
ATOM     28  O   UNL     1       7.584   6.077  17.851  0.00  0.00    +0.000 OA
ENDBRANCH  21  28
ENDBRANCH  20  26
ENDBRANCH  16  20
ENDBRANCH   1  17
TORSDOF 4
ENDMDL
MODEL 3
REMARK VINA RESULT:      -8.0      2.464      4.530
REMARK  Name = 
REMARK  5 active torsions:
REMARK  status: ('A' for Active; 'I' for Inactive)
REMARK    1  A    between atoms: C_1  and  O_2
REMARK    2  A    between atoms: O_2  and  C_3
REMARK    3  A    between atoms: C_8  and  C_9
REMARK    4  A    between atoms: C_9  and  N_10
REMARK    5  A    between atoms: C_11  and  C_13
REMARK                            x       y       z     vdW  Elec       q    Type
REMARK                         _______ _______ _______ _____ _____    ______ ____
ROOT
ATOM      1  C   UNL     1       0.407   9.501  20.791  0.00  0.00    +0.000 A 
ATOM      2  C   UNL     1       0.303   9.193  22.153  0.00  0.00    +0.000 A 
ATOM      3  C   UNL     1      -0.489   9.942  23.035  0.00  0.00    +0.000 A 
ATOM      4  C   UNL     1      -1.218  11.049  22.555  0.00  0.00    +0.000 A 
ATOM      5  N   UNL     1      -1.978  11.899  23.341  0.00  0.00    +0.000 NA
ATOM      6  C   UNL     1      -2.519  12.869  22.630  0.00  0.00    +0.000 A 
ATOM      7  N   UNL     1      -3.202  13.921  23.193  0.00  0.00    +0.000 N 
ATOM      8  C   UNL     1      -4.296  14.608  22.507  0.00  0.00    +0.000 C 
ATOM      9  C   UNL     1      -4.298  16.091  22.910  0.00  0.00    +0.000 C 
ATOM     10  C   UNL     1      -4.310  16.289  24.429  0.00  0.00    +0.000 C 
ATOM     11  C   UNL     1      -3.275  15.408  25.127  0.00  0.00    +0.000 C 
ATOM     12  C   UNL     1      -3.351  13.953  24.654  0.00  0.00    +0.000 C 
ATOM     13  S   UNL     1      -2.182  12.713  20.925  0.00  0.00    +0.000 S 
ATOM     14  C   UNL     1      -1.156  11.342  21.198  0.00  0.00    +0.000 A 
ATOM     15  C   UNL     1      -0.350  10.585  20.286  0.00  0.00    +0.000 A 
ENDROOT
BRANCH   1  17
ATOM     16  N   UNL     1       1.912   7.494  20.563  0.00  0.00    +0.000 N 
ATOM     17  C   UNL     1       1.391   8.653  19.997  0.00  0.00    +0.000 C 
ATOM     18  O   UNL     1       1.690   9.002  18.867  0.00  0.00    +0.000 OA
ATOM     19  H   UNL     1       1.451   7.072  21.349  0.00  0.00    +0.000 HD
BRANCH  16  20
ATOM     20  C   UNL     1       2.766   6.592  19.780  0.00  0.00    +0.000 C 
BRANCH  20  26
ATOM     21  C   UNL     1       2.490   4.413  18.395  0.00  0.00    +0.000 A 
ATOM     22  C   UNL     1       1.914   3.142  18.259  0.00  0.00    +0.000 A 
ATOM     23  C   UNL     1       0.989   2.661  19.162  0.00  0.00    +0.000 A 
ATOM     24  C   UNL     1       0.675   3.430  20.281  0.00  0.00    +0.000 A 
ATOM     25  C   UNL     1       1.287   4.672  20.463  0.00  0.00    +0.000 A 
ATOM     26  C   UNL     1       2.195   5.212  19.524  0.00  0.00    +0.000 A 
BRANCH  21  28
ATOM     27  C   UNL     1       4.182   3.896  16.889  0.00  0.00    +0.000 C 
ATOM     28  O   UNL     1       3.285   4.904  17.386  0.00  0.00    +0.000 OA
ENDBRANCH  21  28
ENDBRANCH  20  26
ENDBRANCH  16  20
ENDBRANCH   1  17
TORSDOF 4
ENDMDL
MODEL 4
REMARK VINA RESULT:      -8.0      0.984      1.047
REMARK  Name = 
REMARK  5 active torsions:
REMARK  status: ('A' for Active; 'I' for Inactive)
REMARK    1  A    between atoms: C_1  and  O_2
REMARK    2  A    between atoms: O_2  and  C_3
REMARK    3  A    between atoms: C_8  and  C_9
REMARK    4  A    between atoms: C_9  and  N_10
REMARK    5  A    between atoms: C_11  and  C_13
REMARK                            x       y       z     vdW  Elec       q    Type
REMARK                         _______ _______ _______ _____ _____    ______ ____
ROOT
ATOM      1  C   UNL     1       2.291   7.543  19.059  0.00  0.00    +0.000 A 
ATOM      2  C   UNL     1       2.111   8.532  18.085  0.00  0.00    +0.000 A 
ATOM      3  C   UNL     1       1.357   9.691  18.320  0.00  0.00    +0.000 A 
ATOM      4  C   UNL     1       0.750   9.890  19.576  0.00  0.00    +0.000 A 
ATOM      5  N   UNL     1      -0.068  10.959  19.902  0.00  0.00    +0.000 NA
ATOM      6  C   UNL     1      -0.523  10.867  21.136  0.00  0.00    +0.000 A 
ATOM      7  N   UNL     1      -1.464  11.725  21.654  0.00  0.00    +0.000 N 
ATOM      8  C   UNL     1      -1.520  12.071  23.075  0.00  0.00    +0.000 C 
ATOM      9  C   UNL     1      -2.982  12.302  23.486  0.00  0.00    +0.000 C 
ATOM     10  C   UNL     1      -3.694  13.315  22.584  0.00  0.00    +0.000 C 
ATOM     11  C   UNL     1      -3.454  13.026  21.103  0.00  0.00    +0.000 C 
ATOM     12  C   UNL     1      -1.970  12.805  20.797  0.00  0.00    +0.000 C 
ATOM     13  S   UNL     1       0.125   9.487  21.985  0.00  0.00    +0.000 S 
ATOM     14  C   UNL     1       0.955   8.936  20.566  0.00  0.00    +0.000 A 
ATOM     15  C   UNL     1       1.721   7.747  20.339  0.00  0.00    +0.000 A 
ENDROOT
BRANCH   1  17
ATOM     16  N   UNL     1       3.385   5.325  19.534  0.00  0.00    +0.000 N 
ATOM     17  C   UNL     1       3.046   6.301  18.604  0.00  0.00    +0.000 C 
ATOM     18  O   UNL     1       3.324   6.182  17.422  0.00  0.00    +0.000 OA
ATOM     19  H   UNL     1       2.912   5.292  20.418  0.00  0.00    +0.000 HD
BRANCH  16  20
ATOM     20  C   UNL     1       4.003   4.062  19.108  0.00  0.00    +0.000 C 
BRANCH  20  26
ATOM     21  C   UNL     1       6.390   4.786  18.389  0.00  0.00    +0.000 A 
ATOM     22  C   UNL     1       7.377   4.849  17.395  0.00  0.00    +0.000 A 
ATOM     23  C   UNL     1       7.141   4.421  16.106  0.00  0.00    +0.000 A 
ATOM     24  C   UNL     1       5.911   3.839  15.802  0.00  0.00    +0.000 A 
ATOM     25  C   UNL     1       4.940   3.712  16.797  0.00  0.00    +0.000 A 
ATOM     26  C   UNL     1       5.136   4.195  18.111  0.00  0.00    +0.000 A 
BRANCH  21  28
ATOM     27  C   UNL     1       8.019   5.692  19.776  0.00  0.00    +0.000 C 
ATOM     28  O   UNL     1       6.628   5.369  19.612  0.00  0.00    +0.000 OA
ENDBRANCH  21  28
ENDBRANCH  20  26
ENDBRANCH  16  20
ENDBRANCH   1  17
TORSDOF 4
ENDMDL
MODEL 5
REMARK VINA RESULT:      -7.9      1.900      3.505
REMARK  Name = 
REMARK  5 active torsions:
REMARK  status: ('A' for Active; 'I' for Inactive)
REMARK    1  A    between atoms: C_1  and  O_2
REMARK    2  A    between atoms: O_2  and  C_3
REMARK    3  A    between atoms: C_8  and  C_9
REMARK    4  A    between atoms: C_9  and  N_10
REMARK    5  A    between atoms: C_11  and  C_13
REMARK                            x       y       z     vdW  Elec       q    Type
REMARK                         _______ _______ _______ _____ _____    ______ ____
ROOT
ATOM      1  C   UNL     1       1.234   9.095  19.490  0.00  0.00    +0.000 A 
ATOM      2  C   UNL     1       0.604   9.842  18.488  0.00  0.00    +0.000 A 
ATOM      3  C   UNL     1      -0.397  10.782  18.768  0.00  0.00    +0.000 A 
ATOM      4  C   UNL     1      -0.800  11.002  20.101  0.00  0.00    +0.000 A 
ATOM      5  N   UNL     1      -1.820  11.853  20.492  0.00  0.00    +0.000 NA
ATOM      6  C   UNL     1      -2.001  11.833  21.797  0.00  0.00    +0.000 A 
ATOM      7  N   UNL     1      -3.041  12.480  22.422  0.00  0.00    +0.000 N 
ATOM      8  C   UNL     1      -2.937  13.009  23.781  0.00  0.00    +0.000 C 
ATOM      9  C   UNL     1      -4.306  12.906  24.474  0.00  0.00    +0.000 C 
ATOM     10  C   UNL     1      -5.430  13.546  23.653  0.00  0.00    +0.000 C 
ATOM     11  C   UNL     1      -5.387  13.110  22.189  0.00  0.00    +0.000 C 
ATOM     12  C   UNL     1      -3.982  13.245  21.594  0.00  0.00    +0.000 C 
ATOM     13  S   UNL     1      -0.840  10.818  22.614  0.00  0.00    +0.000 S 
ATOM     14  C   UNL     1      -0.154  10.297  21.109  0.00  0.00    +0.000 A 
ATOM     15  C   UNL     1       0.870   9.332  20.837  0.00  0.00    +0.000 A 
ENDROOT
BRANCH   1  17
ATOM     16  N   UNL     1       2.622   7.026  19.864  0.00  0.00    +0.000 N 
ATOM     17  C   UNL     1       2.222   8.043  19.004  0.00  0.00    +0.000 C 
ATOM     18  O   UNL     1       2.632   8.107  17.856  0.00  0.00    +0.000 OA
ATOM     19  H   UNL     1       2.075   6.819  20.680  0.00  0.00    +0.000 HD
BRANCH  16  20
ATOM     20  C   UNL     1       3.475   5.930  19.388  0.00  0.00    +0.000 C 
BRANCH  20  26
ATOM     21  C   UNL     1       3.404   3.407  18.780  0.00  0.00    +0.000 A 
ATOM     22  C   UNL     1       2.713   2.187  18.799  0.00  0.00    +0.000 A 
ATOM     23  C   UNL     1       1.427   2.085  19.284  0.00  0.00    +0.000 A 
ATOM     24  C   UNL     1       0.824   3.212  19.841  0.00  0.00    +0.000 A 
ATOM     25  C   UNL     1       1.522   4.420  19.886  0.00  0.00    +0.000 A 
ATOM     26  C   UNL     1       2.820   4.565  19.343  0.00  0.00    +0.000 A 
BRANCH  21  28
ATOM     27  C   UNL     1       4.463   3.767  16.744  0.00  0.00    +0.000 C 
ATOM     28  O   UNL     1       4.621   3.483  18.144  0.00  0.00    +0.000 OA
ENDBRANCH  21  28
ENDBRANCH  20  26
ENDBRANCH  16  20
ENDBRANCH   1  17
TORSDOF 4
ENDMDL
MODEL 6
REMARK VINA RESULT:      -7.8      2.435      3.470
REMARK  Name = 
REMARK  5 active torsions:
REMARK  status: ('A' for Active; 'I' for Inactive)
REMARK    1  A    between atoms: C_1  and  O_2
REMARK    2  A    between atoms: O_2  and  C_3
REMARK    3  A    between atoms: C_8  and  C_9
REMARK    4  A    between atoms: C_9  and  N_10
REMARK    5  A    between atoms: C_11  and  C_13
REMARK                            x       y       z     vdW  Elec       q    Type
REMARK                         _______ _______ _______ _____ _____    ______ ____
ROOT
ATOM      1  C   UNL     1       1.287   8.996  19.530  0.00  0.00    +0.000 A 
ATOM      2  C   UNL     1       0.665   9.737  18.519  0.00  0.00    +0.000 A 
ATOM      3  C   UNL     1      -0.338  10.679  18.786  0.00  0.00    +0.000 A 
ATOM      4  C   UNL     1      -0.752  10.906  20.114  0.00  0.00    +0.000 A 
ATOM      5  N   UNL     1      -1.775  11.759  20.492  0.00  0.00    +0.000 NA
ATOM      6  C   UNL     1      -1.966  11.746  21.796  0.00  0.00    +0.000 A 
ATOM      7  N   UNL     1      -3.011  12.397  22.409  0.00  0.00    +0.000 N 
ATOM      8  C   UNL     1      -2.918  12.934  23.766  0.00  0.00    +0.000 C 
ATOM      9  C   UNL     1      -4.292  12.834  24.448  0.00  0.00    +0.000 C 
ATOM     10  C   UNL     1      -5.410  13.469  23.615  0.00  0.00    +0.000 C 
ATOM     11  C   UNL     1      -5.355  13.025  22.154  0.00  0.00    +0.000 C 
ATOM     12  C   UNL     1      -3.946  13.157  21.570  0.00  0.00    +0.000 C 
ATOM     13  S   UNL     1      -0.811  10.736  22.628  0.00  0.00    +0.000 S 
ATOM     14  C   UNL     1      -0.114  10.207  21.132  0.00  0.00    +0.000 A 
ATOM     15  C   UNL     1       0.912   9.240  20.873  0.00  0.00    +0.000 A 
ENDROOT
BRANCH   1  17
ATOM     16  N   UNL     1       2.715   6.961  19.944  0.00  0.00    +0.000 N 
ATOM     17  C   UNL     1       2.279   7.941  19.058  0.00  0.00    +0.000 C 
ATOM     18  O   UNL     1       2.660   7.969  17.899  0.00  0.00    +0.000 OA
ATOM     19  H   UNL     1       2.191   6.776  20.780  0.00  0.00    +0.000 HD
BRANCH  16  20
ATOM     20  C   UNL     1       3.573   5.861  19.487  0.00  0.00    +0.000 C 
BRANCH  20  26
ATOM     21  C   UNL     1       1.877   3.909  19.717  0.00  0.00    +0.000 A 
ATOM     22  C   UNL     1       1.253   2.788  19.151  0.00  0.00    +0.000 A 
ATOM     23  C   UNL     1       1.610   2.305  17.910  0.00  0.00    +0.000 A 
ATOM     24  C   UNL     1       2.566   2.995  17.166  0.00  0.00    +0.000 A 
ATOM     25  C   UNL     1       3.151   4.149  17.690  0.00  0.00    +0.000 A 
ATOM     26  C   UNL     1       2.845   4.632  18.982  0.00  0.00    +0.000 A 
BRANCH  21  28
ATOM     27  C   UNL     1       2.149   3.304  21.944  0.00  0.00    +0.000 C 
ATOM     28  O   UNL     1       1.593   4.253  21.018  0.00  0.00    +0.000 OA
ENDBRANCH  21  28
ENDBRANCH  20  26
ENDBRANCH  16  20
ENDBRANCH   1  17
TORSDOF 4
ENDMDL
MODEL 7
REMARK VINA RESULT:      -7.8      1.190      1.855
REMARK  Name = 
REMARK  5 active torsions:
REMARK  status: ('A' for Active; 'I' for Inactive)
REMARK    1  A    between atoms: C_1  and  O_2
REMARK    2  A    between atoms: O_2  and  C_3
REMARK    3  A    between atoms: C_8  and  C_9
REMARK    4  A    between atoms: C_9  and  N_10
REMARK    5  A    between atoms: C_11  and  C_13
REMARK                            x       y       z     vdW  Elec       q    Type
REMARK                         _______ _______ _______ _____ _____    ______ ____
ROOT
ATOM      1  C   UNL     1       1.878   7.564  20.050  0.00  0.00    +0.000 A 
ATOM      2  C   UNL     1       1.802   8.419  18.944  0.00  0.00    +0.000 A 
ATOM      3  C   UNL     1       1.080   9.621  18.970  0.00  0.00    +0.000 A 
ATOM      4  C   UNL     1       0.400  10.004  20.143  0.00  0.00    +0.000 A 
ATOM      5  N   UNL     1      -0.395  11.131  20.267  0.00  0.00    +0.000 NA
ATOM      6  C   UNL     1      -0.935  11.220  21.466  0.00  0.00    +0.000 A 
ATOM      7  N   UNL     1      -1.874  12.168  21.799  0.00  0.00    +0.000 N 
ATOM      8  C   UNL     1      -2.010  12.702  23.154  0.00  0.00    +0.000 C 
ATOM      9  C   UNL     1      -3.486  13.030  23.427  0.00  0.00    +0.000 C 
ATOM     10  C   UNL     1      -4.097  13.934  22.351  0.00  0.00    +0.000 C 
ATOM     11  C   UNL     1      -3.770  13.443  20.941  0.00  0.00    +0.000 C 
ATOM     12  C   UNL     1      -2.279  13.138  20.774  0.00  0.00    +0.000 C 
ATOM     13  S   UNL     1      -0.400   9.947  22.533  0.00  0.00    +0.000 S 
ATOM     14  C   UNL     1       0.500   9.186  21.262  0.00  0.00    +0.000 A 
ATOM     15  C   UNL     1       1.233   7.954  21.248  0.00  0.00    +0.000 A 
ENDROOT
BRANCH   1  17
ATOM     16  N   UNL     1       3.974   6.265  19.533  0.00  0.00    +0.000 N 
ATOM     17  C   UNL     1       2.612   6.250  19.818  0.00  0.00    +0.000 C 
ATOM     18  O   UNL     1       1.989   5.205  19.904  0.00  0.00    +0.000 OA
ATOM     19  H   UNL     1       4.519   7.080  19.747  0.00  0.00    +0.000 HD
BRANCH  16  20
ATOM     20  C   UNL     1       4.733   5.013  19.426  0.00  0.00    +0.000 C 
BRANCH  20  26
ATOM     21  C   UNL     1       4.534   4.325  16.931  0.00  0.00    +0.000 A 
ATOM     22  C   UNL     1       5.159   4.077  15.701  0.00  0.00    +0.000 A 
ATOM     23  C   UNL     1       6.530   4.118  15.559  0.00  0.00    +0.000 A 
ATOM     24  C   UNL     1       7.311   4.489  16.652  0.00  0.00    +0.000 A 
ATOM     25  C   UNL     1       6.699   4.800  17.868  0.00  0.00    +0.000 A 
ATOM     26  C   UNL     1       5.301   4.710  18.055  0.00  0.00    +0.000 A 
BRANCH  21  28
ATOM     27  C   UNL     1       2.889   2.763  17.433  0.00  0.00    +0.000 C 
ATOM     28  O   UNL     1       3.180   4.118  17.052  0.00  0.00    +0.000 OA
ENDBRANCH  21  28
ENDBRANCH  20  26
ENDBRANCH  16  20
ENDBRANCH   1  17
TORSDOF 4
ENDMDL
MODEL 8
REMARK VINA RESULT:      -7.7      1.651      2.337
REMARK  Name = 
REMARK  5 active torsions:
REMARK  status: ('A' for Active; 'I' for Inactive)
REMARK    1  A    between atoms: C_1  and  O_2
REMARK    2  A    between atoms: O_2  and  C_3
REMARK    3  A    between atoms: C_8  and  C_9
REMARK    4  A    between atoms: C_9  and  N_10
REMARK    5  A    between atoms: C_11  and  C_13
REMARK                            x       y       z     vdW  Elec       q    Type
REMARK                         _______ _______ _______ _____ _____    ______ ____
ROOT
ATOM      1  C   UNL     1       2.132   7.005  19.549  0.00  0.00    +0.000 A 
ATOM      2  C   UNL     1       1.585   7.082  20.835  0.00  0.00    +0.000 A 
ATOM      3  C   UNL     1       1.014   8.259  21.340  0.00  0.00    +0.000 A 
ATOM      4  C   UNL     1       0.976   9.419  20.541  0.00  0.00    +0.000 A 
ATOM      5  N   UNL     1       0.499  10.652  20.953  0.00  0.00    +0.000 NA
ATOM      6  C   UNL     1       0.619  11.564  20.009  0.00  0.00    +0.000 A 
ATOM      7  N   UNL     1       0.350  12.896  20.213  0.00  0.00    +0.000 N 
ATOM      8  C   UNL     1      -0.139  13.774  19.150  0.00  0.00    +0.000 C 
ATOM      9  C   UNL     1       0.409  15.194  19.369  0.00  0.00    +0.000 C 
ATOM     10  C   UNL     1       0.124  15.724  20.778  0.00  0.00    +0.000 C 
ATOM     11  C   UNL     1       0.474  14.698  21.855  0.00  0.00    +0.000 C 
ATOM     12  C   UNL     1      -0.112  13.318  21.542  0.00  0.00    +0.000 C 
ATOM     13  S   UNL     1       1.249  10.903  18.522  0.00  0.00    +0.000 S 
ATOM     14  C   UNL     1       1.479   9.346  19.247  0.00  0.00    +0.000 A 
ATOM     15  C   UNL     1       2.067   8.150  18.719  0.00  0.00    +0.000 A 
ENDROOT
BRANCH   1  17
ATOM     16  N   UNL     1       2.824   5.252  17.877  0.00  0.00    +0.000 N 
ATOM     17  C   UNL     1       2.807   5.685  19.199  0.00  0.00    +0.000 C 
ATOM     18  O   UNL     1       3.337   5.041  20.090  0.00  0.00    +0.000 OA
ATOM     19  H   UNL     1       2.652   5.906  17.136  0.00  0.00    +0.000 HD
BRANCH  16  20
ATOM     20  C   UNL     1       3.571   4.048  17.490  0.00  0.00    +0.000 C 
BRANCH  20  26
ATOM     21  C   UNL     1       6.139   4.430  17.450  0.00  0.00    +0.000 A 
ATOM     22  C   UNL     1       7.308   4.650  16.708  0.00  0.00    +0.000 A 
ATOM     23  C   UNL     1       7.282   4.824  15.340  0.00  0.00    +0.000 A 
ATOM     24  C   UNL     1       6.066   4.703  14.668  0.00  0.00    +0.000 A 
ATOM     25  C   UNL     1       4.902   4.423  15.386  0.00  0.00    +0.000 A 
ATOM     26  C   UNL     1       4.893   4.297  16.794  0.00  0.00    +0.000 A 
BRANCH  21  28
ATOM     27  C   UNL     1       6.967   5.533  19.319  0.00  0.00    +0.000 C 
ATOM     28  O   UNL     1       6.205   4.420  18.823  0.00  0.00    +0.000 OA
ENDBRANCH  21  28
ENDBRANCH  20  26
ENDBRANCH  16  20
ENDBRANCH   1  17
TORSDOF 4
ENDMDL
MODEL 9
REMARK VINA RESULT:      -7.7      2.652      3.981
REMARK  Name = 
REMARK  5 active torsions:
REMARK  status: ('A' for Active; 'I' for Inactive)
REMARK    1  A    between atoms: C_1  and  O_2
REMARK    2  A    between atoms: O_2  and  C_3
REMARK    3  A    between atoms: C_8  and  C_9
REMARK    4  A    between atoms: C_9  and  N_10
REMARK    5  A    between atoms: C_11  and  C_13
REMARK                            x       y       z     vdW  Elec       q    Type
REMARK                         _______ _______ _______ _____ _____    ______ ____
ROOT
ATOM      1  C   UNL     1       0.911   9.042  20.351  0.00  0.00    +0.000 A 
ATOM      2  C   UNL     1       0.785   8.694  21.701  0.00  0.00    +0.000 A 
ATOM      3  C   UNL     1      -0.030   9.409  22.590  0.00  0.00    +0.000 A 
ATOM      4  C   UNL     1      -0.760  10.523  22.129  0.00  0.00    +0.000 A 
ATOM      5  N   UNL     1      -1.542  11.343  22.925  0.00  0.00    +0.000 NA
ATOM      6  C   UNL     1      -2.080  12.328  22.233  0.00  0.00    +0.000 A 
ATOM      7  N   UNL     1      -2.783  13.357  22.813  0.00  0.00    +0.000 N 
ATOM      8  C   UNL     1      -3.871  14.054  22.128  0.00  0.00    +0.000 C 
ATOM      9  C   UNL     1      -3.894  15.525  22.573  0.00  0.00    +0.000 C 
ATOM     10  C   UNL     1      -3.936  15.678  24.097  0.00  0.00    +0.000 C 
ATOM     11  C   UNL     1      -2.906  14.786  24.788  0.00  0.00    +0.000 C 
ATOM     12  C   UNL     1      -2.959  13.345  24.272  0.00  0.00    +0.000 C 
ATOM     13  S   UNL     1      -1.709  12.225  20.531  0.00  0.00    +0.000 S 
ATOM     14  C   UNL     1      -0.676  10.856  20.783  0.00  0.00    +0.000 A 
ATOM     15  C   UNL     1       0.154  10.134  19.864  0.00  0.00    +0.000 A 
ENDROOT
BRANCH   1  17
ATOM     16  N   UNL     1       2.462   7.072  20.105  0.00  0.00    +0.000 N 
ATOM     17  C   UNL     1       1.919   8.227  19.551  0.00  0.00    +0.000 C 
ATOM     18  O   UNL     1       2.215   8.597  18.427  0.00  0.00    +0.000 OA
ATOM     19  H   UNL     1       2.008   6.631  20.882  0.00  0.00    +0.000 HD
BRANCH  16  20
ATOM     20  C   UNL     1       3.340   6.200  19.314  0.00  0.00    +0.000 C 
BRANCH  20  26
ATOM     21  C   UNL     1       2.067   3.998  19.831  0.00  0.00    +0.000 A 
ATOM     22  C   UNL     1       1.555   2.772  19.380  0.00  0.00    +0.000 A 
ATOM     23  C   UNL     1       1.769   2.322  18.095  0.00  0.00    +0.000 A 
ATOM     24  C   UNL     1       2.450   3.143  17.197  0.00  0.00    +0.000 A 
ATOM     25  C   UNL     1       2.912   4.393  17.613  0.00  0.00    +0.000 A 
ATOM     26  C   UNL     1       2.756   4.853  18.941  0.00  0.00    +0.000 A 
BRANCH  21  28
ATOM     27  C   UNL     1       2.083   3.162  21.999  0.00  0.00    +0.000 C 
ATOM     28  O   UNL     1       1.957   4.324  21.163  0.00  0.00    +0.000 OA
ENDBRANCH  21  28
ENDBRANCH  20  26
ENDBRANCH  16  20
ENDBRANCH   1  17
TORSDOF 4
ENDMDL
