MODEL 1
REMARK VINA RESULT:      -8.4      0.000      0.000
REMARK  Name = 
REMARK  7 active torsions:
REMARK  status: ('A' for Active; 'I' for Inactive)
REMARK    1  A    between atoms: N_1  and  C_2
REMARK    2  A    between atoms: C_2  and  C_3
REMARK    3  A    between atoms: C_3  and  N_4
REMARK    4  A    between atoms: C_10  and  O_11
REMARK    5  A    between atoms: O_11  and  C_12
REMARK    6  A    between atoms: C_12  and  C_13
REMARK    7  A    between atoms: C_12  and  C_20
REMARK                            x       y       z     vdW  Elec       q    Type
REMARK                         _______ _______ _______ _____ _____    ______ ____
ROOT
ATOM      1  C   UNL     1       3.094   6.392  17.929  0.00  0.00    +0.000 C 
ENDROOT
BRANCH   1   2
ATOM      2  C   UNL     1       2.561   5.077  18.473  0.00  0.00    +0.000 A 
ATOM      3  C   UNL     1       1.529   4.355  17.853  0.00  0.00    +0.000 A 
ATOM      4  C   UNL     1       1.227   3.044  18.265  0.00  0.00    +0.000 A 
ATOM      5  C   UNL     1       1.940   2.468  19.308  0.00  0.00    +0.000 A 
ATOM      6  F   UNL     1       1.692   1.197  19.657  0.00  0.00    +0.000 F 
ATOM      7  C   UNL     1       2.931   3.175  19.963  0.00  0.00    +0.000 A 
ATOM      8  C   UNL     1       3.238   4.478  19.553  0.00  0.00    +0.000 A 
ENDBRANCH   1   2
BRANCH   1   9
ATOM      9  C   UNL     1       2.352   7.577  18.544  0.00  0.00    +0.000 A 
ATOM     10  C   UNL     1       2.024   8.659  17.735  0.00  0.00    +0.000 A 
ATOM     11  C   UNL     1       1.346   9.787  18.283  0.00  0.00    +0.000 A 
ATOM     12  C   UNL     1       1.019   9.780  19.622  0.00  0.00    +0.000 A 
ATOM     13  F   UNL     1       0.409  10.853  20.139  0.00  0.00    +0.000 F 
ATOM     14  C   UNL     1       1.327   8.709  20.456  0.00  0.00    +0.000 A 
ATOM     15  C   UNL     1       1.976   7.604  19.913  0.00  0.00    +0.000 A 
ENDBRANCH   1   9
BRANCH   1  16
ATOM     16  O   UNL     1       4.443   6.662  18.177  0.00  0.00    +0.000 OA
BRANCH  16  23
ATOM     17  N   UNL     1       6.664   5.474  15.510  0.00  0.00    +0.000 NA
ATOM     18  C   UNL     1       5.324   5.073  15.917  0.00  0.00    +0.000 C 
ATOM     19  C   UNL     1       5.734   4.078  17.032  0.00  0.00    +0.000 C 
ATOM     20  C   UNL     1       6.997   4.615  17.686  0.00  0.00    +0.000 C 
ATOM     21  C   UNL     1       7.392   5.740  16.748  0.00  0.00    +0.000 C 
ATOM     22  C   UNL     1       6.835   7.075  17.340  0.00  0.00    +0.000 C 
ATOM     23  C   UNL     1       5.297   7.252  17.218  0.00  0.00    +0.000 C 
ATOM     24  C   UNL     1       4.795   6.522  15.988  0.00  0.00    +0.000 C 
BRANCH  17  25
ATOM     25  C   UNL     1       7.157   4.872  14.300  0.00  0.00    +0.000 C 
BRANCH  25  26
ATOM     26  C   UNL     1       6.189   3.911  13.602  0.00  0.00    +0.000 C 
BRANCH  26  27
ATOM     27  N   UNL     1       6.639   3.634  12.236  0.00  0.00    +0.000 NA
ATOM     28  H   UNL     1       5.850   3.300  11.687  0.00  0.00    +0.000 HD
ATOM     29  H   UNL     1       7.310   2.864  12.261  0.00  0.00    +0.000 HD
ENDBRANCH  26  27
ENDBRANCH  25  26
ENDBRANCH  17  25
ENDBRANCH  16  23
ENDBRANCH   1  16
TORSDOF 7
ENDMDL
MODEL 2
REMARK VINA RESULT:      -8.3      0.629      4.602
REMARK  Name = 
REMARK  7 active torsions:
REMARK  status: ('A' for Active; 'I' for Inactive)
REMARK    1  A    between atoms: N_1  and  C_2
REMARK    2  A    between atoms: C_2  and  C_3
REMARK    3  A    between atoms: C_3  and  N_4
REMARK    4  A    between atoms: C_10  and  O_11
REMARK    5  A    between atoms: O_11  and  C_12
REMARK    6  A    between atoms: C_12  and  C_13
REMARK    7  A    between atoms: C_12  and  C_20
REMARK                            x       y       z     vdW  Elec       q    Type
REMARK                         _______ _______ _______ _____ _____    ______ ____
ROOT
ATOM      1  C   UNL     1       3.291   6.698  18.690  0.00  0.00    +0.000 C 
ENDROOT
BRANCH   1   2
ATOM      2  C   UNL     1       2.227   7.741  18.992  0.00  0.00    +0.000 A 
ATOM      3  C   UNL     1       1.729   7.975  20.284  0.00  0.00    +0.000 A 
ATOM      4  C   UNL     1       0.917   9.094  20.544  0.00  0.00    +0.000 A 
ATOM      5  C   UNL     1       0.586   9.961  19.511  0.00  0.00    +0.000 A 
ATOM      6  F   UNL     1      -0.137  11.059  19.775  0.00  0.00    +0.000 F 
ATOM      7  C   UNL     1       1.027   9.727  18.223  0.00  0.00    +0.000 A 
ATOM      8  C   UNL     1       1.840   8.618  17.959  0.00  0.00    +0.000 A 
ENDBRANCH   1   2
BRANCH   1   9
ATOM      9  C   UNL     1       2.749   5.288  18.910  0.00  0.00    +0.000 A 
ATOM     10  C   UNL     1       3.161   4.577  20.032  0.00  0.00    +0.000 A 
ATOM     11  C   UNL     1       2.687   3.252  20.259  0.00  0.00    +0.000 A 
ATOM     12  C   UNL     1       1.811   2.696  19.351  0.00  0.00    +0.000 A 
ATOM     13  F   UNL     1       1.391   1.442  19.551  0.00  0.00    +0.000 F 
ATOM     14  C   UNL     1       1.374   3.385  18.223  0.00  0.00    +0.000 A 
ATOM     15  C   UNL     1       1.829   4.683  18.014  0.00  0.00    +0.000 A 
ENDBRANCH   1   9
BRANCH   1  16
ATOM     16  O   UNL     1       3.783   6.679  17.382  0.00  0.00    +0.000 OA
BRANCH  16  23
ATOM     17  N   UNL     1       6.635   5.278  15.548  0.00  0.00    +0.000 NA
ATOM     18  C   UNL     1       5.205   5.290  15.271  0.00  0.00    +0.000 C 
ATOM     19  C   UNL     1       4.820   4.043  16.106  0.00  0.00    +0.000 C 
ATOM     20  C   UNL     1       5.731   4.004  17.322  0.00  0.00    +0.000 C 
ATOM     21  C   UNL     1       6.758   5.071  16.989  0.00  0.00    +0.000 C 
ATOM     22  C   UNL     1       6.317   6.396  17.691  0.00  0.00    +0.000 C 
ATOM     23  C   UNL     1       5.090   7.099  17.047  0.00  0.00    +0.000 C 
ATOM     24  C   UNL     1       5.051   6.799  15.562  0.00  0.00    +0.000 C 
BRANCH  17  25
ATOM     25  C   UNL     1       7.472   4.757  14.500  0.00  0.00    +0.000 C 
BRANCH  25  26
ATOM     26  C   UNL     1       6.795   4.600  13.135  0.00  0.00    +0.000 C 
BRANCH  26  27
ATOM     27  N   UNL     1       6.463   3.195  12.886  0.00  0.00    +0.000 NA
ATOM     28  H   UNL     1       5.876   3.134  12.057  0.00  0.00    +0.000 HD
ATOM     29  H   UNL     1       5.892   2.851  13.661  0.00  0.00    +0.000 HD
ENDBRANCH  26  27
ENDBRANCH  25  26
ENDBRANCH  17  25
ENDBRANCH  16  23
ENDBRANCH   1  16
TORSDOF 7
ENDMDL
MODEL 3
REMARK VINA RESULT:      -8.3      3.933      6.725
REMARK  Name = 
REMARK  7 active torsions:
REMARK  status: ('A' for Active; 'I' for Inactive)
REMARK    1  A    between atoms: N_1  and  C_2
REMARK    2  A    between atoms: C_2  and  C_3
REMARK    3  A    between atoms: C_3  and  N_4
REMARK    4  A    between atoms: C_10  and  O_11
REMARK    5  A    between atoms: O_11  and  C_12
REMARK    6  A    between atoms: C_12  and  C_13
REMARK    7  A    between atoms: C_12  and  C_20
REMARK                            x       y       z     vdW  Elec       q    Type
REMARK                         _______ _______ _______ _____ _____    ______ ____
ROOT
ATOM      1  C   UNL     1       5.760   4.183  16.330  0.00  0.00    +0.000 C 
ENDROOT
BRANCH   1   2
ATOM      2  C   UNL     1       6.224   4.105  14.884  0.00  0.00    +0.000 A 
ATOM      3  C   UNL     1       5.478   3.476  13.875  0.00  0.00    +0.000 A 
ATOM      4  C   UNL     1       5.840   3.624  12.523  0.00  0.00    +0.000 A 
ATOM      5  C   UNL     1       6.955   4.380  12.186  0.00  0.00    +0.000 A 
ATOM      6  F   UNL     1       7.260   4.570  10.895  0.00  0.00    +0.000 F 
ATOM      7  C   UNL     1       7.730   4.972  13.165  0.00  0.00    +0.000 A 
ATOM      8  C   UNL     1       7.372   4.831  14.512  0.00  0.00    +0.000 A 
ENDBRANCH   1   2
BRANCH   1   9
ATOM      9  C   UNL     1       6.557   5.231  17.102  0.00  0.00    +0.000 A 
ATOM     10  C   UNL     1       6.427   6.570  16.750  0.00  0.00    +0.000 A 
ATOM     11  C   UNL     1       7.170   7.571  17.441  0.00  0.00    +0.000 A 
ATOM     12  C   UNL     1       8.011   7.187  18.464  0.00  0.00    +0.000 A 
ATOM     13  F   UNL     1       8.729   8.127  19.091  0.00  0.00    +0.000 F 
ATOM     14  C   UNL     1       8.157   5.856  18.845  0.00  0.00    +0.000 A 
ATOM     15  C   UNL     1       7.419   4.884  18.177  0.00  0.00    +0.000 A 
ENDBRANCH   1   9
BRANCH   1  16
ATOM     16  O   UNL     1       4.425   4.546  16.531  0.00  0.00    +0.000 OA
BRANCH  16  23
ATOM     17  N   UNL     1       2.149   3.543  19.227  0.00  0.00    +0.000 NA
ATOM     18  C   UNL     1       2.592   4.848  18.757  0.00  0.00    +0.000 C 
ATOM     19  C   UNL     1       3.908   4.928  19.571  0.00  0.00    +0.000 C 
ATOM     20  C   UNL     1       4.470   3.519  19.677  0.00  0.00    +0.000 C 
ATOM     21  C   UNL     1       3.322   2.675  19.152  0.00  0.00    +0.000 C 
ATOM     22  C   UNL     1       3.593   2.385  17.641  0.00  0.00    +0.000 C 
ATOM     23  C   UNL     1       3.388   3.601  16.696  0.00  0.00    +0.000 C 
ATOM     24  C   UNL     1       2.331   4.522  17.271  0.00  0.00    +0.000 C 
BRANCH  17  25
ATOM     25  C   UNL     1       1.115   3.555  20.227  0.00  0.00    +0.000 C 
BRANCH  25  26
ATOM     26  C   UNL     1       1.343   2.622  21.421  0.00  0.00    +0.000 C 
BRANCH  26  27
ATOM     27  N   UNL     1       2.298   3.216  22.360  0.00  0.00    +0.000 NA
ATOM     28  H   UNL     1       3.242   3.090  21.997  0.00  0.00    +0.000 HD
ATOM     29  H   UNL     1       2.262   2.694  23.237  0.00  0.00    +0.000 HD
ENDBRANCH  26  27
ENDBRANCH  25  26
ENDBRANCH  17  25
ENDBRANCH  16  23
ENDBRANCH   1  16
TORSDOF 7
ENDMDL
MODEL 4
REMARK VINA RESULT:      -8.2      0.928      4.364
REMARK  Name = 
REMARK  7 active torsions:
REMARK  status: ('A' for Active; 'I' for Inactive)
REMARK    1  A    between atoms: N_1  and  C_2
REMARK    2  A    between atoms: C_2  and  C_3
REMARK    3  A    between atoms: C_3  and  N_4
REMARK    4  A    between atoms: C_10  and  O_11
REMARK    5  A    between atoms: O_11  and  C_12
REMARK    6  A    between atoms: C_12  and  C_13
REMARK    7  A    between atoms: C_12  and  C_20
REMARK                            x       y       z     vdW  Elec       q    Type
REMARK                         _______ _______ _______ _____ _____    ______ ____
ROOT
ATOM      1  C   UNL     1       3.133   6.816  18.806  0.00  0.00    +0.000 C 
ENDROOT
BRANCH   1   2
ATOM      2  C   UNL     1       2.210   8.010  18.993  0.00  0.00    +0.000 A 
ATOM      3  C   UNL     1       1.759   8.802  17.924  0.00  0.00    +0.000 A 
ATOM      4  C   UNL     1       0.737   9.749  18.120  0.00  0.00    +0.000 A 
ATOM      5  C   UNL     1       0.186   9.918  19.384  0.00  0.00    +0.000 A 
ATOM      6  F   UNL     1      -0.829  10.777  19.554  0.00  0.00    +0.000 F 
ATOM      7  C   UNL     1       0.645   9.182  20.460  0.00  0.00    +0.000 A 
ATOM      8  C   UNL     1       1.658   8.234  20.269  0.00  0.00    +0.000 A 
ENDBRANCH   1   2
BRANCH   1   9
ATOM      9  C   UNL     1       2.383   5.507  19.037  0.00  0.00    +0.000 A 
ATOM     10  C   UNL     1       1.883   4.814  17.939  0.00  0.00    +0.000 A 
ATOM     11  C   UNL     1       1.165   3.598  18.121  0.00  0.00    +0.000 A 
ATOM     12  C   UNL     1       0.981   3.120  19.401  0.00  0.00    +0.000 A 
ATOM     13  F   UNL     1       0.281   1.992  19.571  0.00  0.00    +0.000 F 
ATOM     14  C   UNL     1       1.475   3.785  20.520  0.00  0.00    +0.000 A 
ATOM     15  C   UNL     1       2.188   4.966  20.335  0.00  0.00    +0.000 A 
ENDBRANCH   1   9
BRANCH   1  16
ATOM     16  O   UNL     1       3.704   6.669  17.539  0.00  0.00    +0.000 OA
BRANCH  16  23
ATOM     17  N   UNL     1       6.540   5.144  15.783  0.00  0.00    +0.000 NA
ATOM     18  C   UNL     1       5.123   5.233  15.458  0.00  0.00    +0.000 C 
ATOM     19  C   UNL     1       4.646   3.998  16.263  0.00  0.00    +0.000 C 
ATOM     20  C   UNL     1       5.512   3.897  17.508  0.00  0.00    +0.000 C 
ATOM     21  C   UNL     1       6.603   4.914  17.224  0.00  0.00    +0.000 C 
ATOM     22  C   UNL     1       6.207   6.251  17.929  0.00  0.00    +0.000 C 
ATOM     23  C   UNL     1       5.042   7.024  17.254  0.00  0.00    +0.000 C 
ATOM     24  C   UNL     1       5.037   6.744  15.764  0.00  0.00    +0.000 C 
BRANCH  17  25
ATOM     25  C   UNL     1       7.384   4.592  14.756  0.00  0.00    +0.000 C 
BRANCH  25  26
ATOM     26  C   UNL     1       6.770   4.547  13.353  0.00  0.00    +0.000 C 
BRANCH  26  27
ATOM     27  N   UNL     1       6.339   3.186  13.026  0.00  0.00    +0.000 NA
ATOM     28  H   UNL     1       6.425   2.602  13.856  0.00  0.00    +0.000 HD
ATOM     29  H   UNL     1       6.984   2.795  12.338  0.00  0.00    +0.000 HD
ENDBRANCH  26  27
ENDBRANCH  25  26
ENDBRANCH  17  25
ENDBRANCH  16  23
ENDBRANCH   1  16
TORSDOF 7
ENDMDL
MODEL 5
REMARK VINA RESULT:      -8.2      0.362      1.364
REMARK  Name = 
REMARK  7 active torsions:
REMARK  status: ('A' for Active; 'I' for Inactive)
REMARK    1  A    between atoms: N_1  and  C_2
REMARK    2  A    between atoms: C_2  and  C_3
REMARK    3  A    between atoms: C_3  and  N_4
REMARK    4  A    between atoms: C_10  and  O_11
REMARK    5  A    between atoms: O_11  and  C_12
REMARK    6  A    between atoms: C_12  and  C_13
REMARK    7  A    between atoms: C_12  and  C_20
REMARK                            x       y       z     vdW  Elec       q    Type
REMARK                         _______ _______ _______ _____ _____    ______ ____
ROOT
ATOM      1  C   UNL     1       3.257   6.309  17.944  0.00  0.00    +0.000 C 
ENDROOT
BRANCH   1   2
ATOM      2  C   UNL     1       2.819   4.997  18.574  0.00  0.00    +0.000 A 
ATOM      3  C   UNL     1       3.407   4.474  19.737  0.00  0.00    +0.000 A 
ATOM      4  C   UNL     1       2.822   3.380  20.402  0.00  0.00    +0.000 A 
ATOM      5  C   UNL     1       1.668   2.800  19.893  0.00  0.00    +0.000 A 
ATOM      6  F   UNL     1       1.079   1.799  20.562  0.00  0.00    +0.000 F 
ATOM      7  C   UNL     1       1.097   3.270  18.725  0.00  0.00    +0.000 A 
ATOM      8  C   UNL     1       1.672   4.361  18.062  0.00  0.00    +0.000 A 
ENDBRANCH   1   2
BRANCH   1   9
ATOM      9  C   UNL     1       2.456   7.480  18.509  0.00  0.00    +0.000 A 
ATOM     10  C   UNL     1       2.116   7.473  19.858  0.00  0.00    +0.000 A 
ATOM     11  C   UNL     1       1.356   8.543  20.413  0.00  0.00    +0.000 A 
ATOM     12  C   UNL     1       0.971   9.581  19.592  0.00  0.00    +0.000 A 
ATOM     13  F   UNL     1       0.232  10.569  20.110  0.00  0.00    +0.000 F 
ATOM     14  C   UNL     1       1.302   9.620  18.240  0.00  0.00    +0.000 A 
ATOM     15  C   UNL     1       2.057   8.580  17.706  0.00  0.00    +0.000 A 
ENDBRANCH   1   9
BRANCH   1  16
ATOM     16  O   UNL     1       4.591   6.675  18.143  0.00  0.00    +0.000 OA
BRANCH  16  23
ATOM     17  N   UNL     1       6.673   5.423  15.393  0.00  0.00    +0.000 NA
ATOM     18  C   UNL     1       5.357   5.030  15.881  0.00  0.00    +0.000 C 
ATOM     19  C   UNL     1       5.829   4.065  16.998  0.00  0.00    +0.000 C 
ATOM     20  C   UNL     1       7.123   4.620  17.571  0.00  0.00    +0.000 C 
ATOM     21  C   UNL     1       7.464   5.722  16.584  0.00  0.00    +0.000 C 
ATOM     22  C   UNL     1       6.935   7.070  17.171  0.00  0.00    +0.000 C 
ATOM     23  C   UNL     1       5.392   7.242  17.126  0.00  0.00    +0.000 C 
ATOM     24  C   UNL     1       4.828   6.480  15.943  0.00  0.00    +0.000 C 
BRANCH  17  25
ATOM     25  C   UNL     1       7.103   4.791  14.175  0.00  0.00    +0.000 C 
BRANCH  25  26
ATOM     26  C   UNL     1       6.078   3.861  13.518  0.00  0.00    +0.000 C 
BRANCH  26  27
ATOM     27  N   UNL     1       6.648   3.232  12.325  0.00  0.00    +0.000 NA
ATOM     28  H   UNL     1       6.723   3.928  11.586  0.00  0.00    +0.000 HD
ATOM     29  H   UNL     1       5.993   2.527  11.982  0.00  0.00    +0.000 HD
ENDBRANCH  26  27
ENDBRANCH  25  26
ENDBRANCH  17  25
ENDBRANCH  16  23
ENDBRANCH   1  16
TORSDOF 7
ENDMDL
MODEL 6
REMARK VINA RESULT:      -8.1      0.816      1.236
REMARK  Name = 
REMARK  7 active torsions:
REMARK  status: ('A' for Active; 'I' for Inactive)
REMARK    1  A    between atoms: N_1  and  C_2
REMARK    2  A    between atoms: C_2  and  C_3
REMARK    3  A    between atoms: C_3  and  N_4
REMARK    4  A    between atoms: C_10  and  O_11
REMARK    5  A    between atoms: O_11  and  C_12
REMARK    6  A    between atoms: C_12  and  C_13
REMARK    7  A    between atoms: C_12  and  C_20
REMARK                            x       y       z     vdW  Elec       q    Type
REMARK                         _______ _______ _______ _____ _____    ______ ____
ROOT
ATOM      1  C   UNL     1       3.016   6.162  18.303  0.00  0.00    +0.000 C 
ENDROOT
BRANCH   1   2
ATOM      2  C   UNL     1       2.578   5.002  19.184  0.00  0.00    +0.000 A 
ATOM      3  C   UNL     1       3.168   4.720  20.426  0.00  0.00    +0.000 A 
ATOM      4  C   UNL     1       2.584   3.782  21.297  0.00  0.00    +0.000 A 
ATOM      5  C   UNL     1       1.427   3.114  20.916  0.00  0.00    +0.000 A 
ATOM      6  F   UNL     1       0.839   2.268  21.774  0.00  0.00    +0.000 F 
ATOM      7  C   UNL     1       0.853   3.343  19.680  0.00  0.00    +0.000 A 
ATOM      8  C   UNL     1       1.428   4.279  18.812  0.00  0.00    +0.000 A 
ENDBRANCH   1   2
BRANCH   1   9
ATOM      9  C   UNL     1       2.291   7.447  18.695  0.00  0.00    +0.000 A 
ATOM     10  C   UNL     1       1.999   8.383  17.707  0.00  0.00    +0.000 A 
ATOM     11  C   UNL     1       1.338   9.600  18.043  0.00  0.00    +0.000 A 
ATOM     12  C   UNL     1       0.991   9.827  19.357  0.00  0.00    +0.000 A 
ATOM     13  F   UNL     1       0.397  10.984  19.673  0.00  0.00    +0.000 F 
ATOM     14  C   UNL     1       1.262   8.907  20.367  0.00  0.00    +0.000 A 
ATOM     15  C   UNL     1       1.895   7.714  20.032  0.00  0.00    +0.000 A 
ENDBRANCH   1   9
BRANCH   1  16
ATOM     16  O   UNL     1       4.371   6.498  18.355  0.00  0.00    +0.000 OA
BRANCH  16  23
ATOM     17  N   UNL     1       6.608   5.437  15.648  0.00  0.00    +0.000 NA
ATOM     18  C   UNL     1       5.387   4.857  16.192  0.00  0.00    +0.000 C 
ATOM     19  C   UNL     1       6.033   4.069  17.360  0.00  0.00    +0.000 C 
ATOM     20  C   UNL     1       7.216   4.880  17.864  0.00  0.00    +0.000 C 
ATOM     21  C   UNL     1       7.348   5.952  16.797  0.00  0.00    +0.000 C 
ATOM     22  C   UNL     1       6.598   7.226  17.304  0.00  0.00    +0.000 C 
ATOM     23  C   UNL     1       5.049   7.123  17.284  0.00  0.00    +0.000 C 
ATOM     24  C   UNL     1       4.614   6.193  16.168  0.00  0.00    +0.000 C 
BRANCH  17  25
ATOM     25  C   UNL     1       7.129   4.805  14.466  0.00  0.00    +0.000 C 
BRANCH  25  26
ATOM     26  C   UNL     1       6.146   3.899  13.717  0.00  0.00    +0.000 C 
BRANCH  26  27
ATOM     27  N   UNL     1       6.605   3.669  12.345  0.00  0.00    +0.000 NA
ATOM     28  H   UNL     1       5.966   4.129  11.699  0.00  0.00    +0.000 HD
ATOM     29  H   UNL     1       6.541   2.670  12.140  0.00  0.00    +0.000 HD
ENDBRANCH  26  27
ENDBRANCH  25  26
ENDBRANCH  17  25
ENDBRANCH  16  23
ENDBRANCH   1  16
TORSDOF 7
ENDMDL
MODEL 7
REMARK VINA RESULT:      -8.0      3.914      6.759
REMARK  Name = 
REMARK  7 active torsions:
REMARK  status: ('A' for Active; 'I' for Inactive)
REMARK    1  A    between atoms: N_1  and  C_2
REMARK    2  A    between atoms: C_2  and  C_3
REMARK    3  A    between atoms: C_3  and  N_4
REMARK    4  A    between atoms: C_10  and  O_11
REMARK    5  A    between atoms: O_11  and  C_12
REMARK    6  A    between atoms: C_12  and  C_13
REMARK    7  A    between atoms: C_12  and  C_20
REMARK                            x       y       z     vdW  Elec       q    Type
REMARK                         _______ _______ _______ _____ _____    ______ ____
ROOT
ATOM      1  C   UNL     1       5.706   4.508  16.335  0.00  0.00    +0.000 C 
ENDROOT
BRANCH   1   2
ATOM      2  C   UNL     1       6.075   4.470  14.860  0.00  0.00    +0.000 A 
ATOM      3  C   UNL     1       7.235   5.070  14.347  0.00  0.00    +0.000 A 
ATOM      4  C   UNL     1       7.644   4.817  13.024  0.00  0.00    +0.000 A 
ATOM      5  C   UNL     1       6.882   3.987  12.214  0.00  0.00    +0.000 A 
ATOM      6  F   UNL     1       7.307   3.699  10.975  0.00  0.00    +0.000 F 
ATOM      7  C   UNL     1       5.712   3.420  12.683  0.00  0.00    +0.000 A 
ATOM      8  C   UNL     1       5.303   3.665  14.000  0.00  0.00    +0.000 A 
ENDBRANCH   1   2
BRANCH   1   9
ATOM      9  C   UNL     1       6.555   5.532  17.083  0.00  0.00    +0.000 A 
ATOM     10  C   UNL     1       7.346   5.105  18.144  0.00  0.00    +0.000 A 
ATOM     11  C   UNL     1       8.138   6.038  18.873  0.00  0.00    +0.000 A 
ATOM     12  C   UNL     1       8.110   7.366  18.503  0.00  0.00    +0.000 A 
ATOM     13  F   UNL     1       8.832   8.244  19.208  0.00  0.00    +0.000 F 
ATOM     14  C   UNL     1       7.335   7.824  17.440  0.00  0.00    +0.000 A 
ATOM     15  C   UNL     1       6.574   6.906  16.723  0.00  0.00    +0.000 A 
ENDBRANCH   1   9
BRANCH   1  16
ATOM     16  O   UNL     1       4.388   4.868  16.632  0.00  0.00    +0.000 OA
BRANCH  16  23
ATOM     17  N   UNL     1       2.123   3.660  19.253  0.00  0.00    +0.000 NA
ATOM     18  C   UNL     1       2.583   4.996  18.897  0.00  0.00    +0.000 C 
ATOM     19  C   UNL     1       3.909   4.980  19.700  0.00  0.00    +0.000 C 
ATOM     20  C   UNL     1       4.447   3.558  19.671  0.00  0.00    +0.000 C 
ATOM     21  C   UNL     1       3.280   2.784  19.086  0.00  0.00    +0.000 C 
ATOM     22  C   UNL     1       3.531   2.629  17.551  0.00  0.00    +0.000 C 
ATOM     23  C   UNL     1       3.337   3.928  16.722  0.00  0.00    +0.000 C 
ATOM     24  C   UNL     1       2.301   4.810  17.391  0.00  0.00    +0.000 C 
BRANCH  17  25
ATOM     25  C   UNL     1       1.099   3.598  20.261  0.00  0.00    +0.000 C 
BRANCH  25  26
ATOM     26  C   UNL     1       1.359   2.610  21.403  0.00  0.00    +0.000 C 
BRANCH  26  27
ATOM     27  N   UNL     1       2.331   3.165  22.349  0.00  0.00    +0.000 NA
ATOM     28  H   UNL     1       1.878   3.886  22.906  0.00  0.00    +0.000 HD
ATOM     29  H   UNL     1       3.068   3.637  21.822  0.00  0.00    +0.000 HD
ENDBRANCH  26  27
ENDBRANCH  25  26
ENDBRANCH  17  25
ENDBRANCH  16  23
ENDBRANCH   1  16
TORSDOF 7
ENDMDL
MODEL 8
REMARK VINA RESULT:      -8.0      4.065      7.345
REMARK  Name = 
REMARK  7 active torsions:
REMARK  status: ('A' for Active; 'I' for Inactive)
REMARK    1  A    between atoms: N_1  and  C_2
REMARK    2  A    between atoms: C_2  and  C_3
REMARK    3  A    between atoms: C_3  and  N_4
REMARK    4  A    between atoms: C_10  and  O_11
REMARK    5  A    between atoms: O_11  and  C_12
REMARK    6  A    between atoms: C_12  and  C_13
REMARK    7  A    between atoms: C_12  and  C_20
REMARK                            x       y       z     vdW  Elec       q    Type
REMARK                         _______ _______ _______ _____ _____    ______ ____
ROOT
ATOM      1  C   UNL     1       5.011   5.007  16.123  0.00  0.00    +0.000 C 
ENDROOT
BRANCH   1   2
ATOM      2  C   UNL     1       5.965   5.746  17.047  0.00  0.00    +0.000 A 
ATOM      3  C   UNL     1       6.854   5.088  17.912  0.00  0.00    +0.000 A 
ATOM      4  C   UNL     1       7.865   5.807  18.577  0.00  0.00    +0.000 A 
ATOM      5  C   UNL     1       7.970   7.179  18.395  0.00  0.00    +0.000 A 
ATOM      6  F   UNL     1       8.971   7.850  18.981  0.00  0.00    +0.000 F 
ATOM      7  C   UNL     1       7.078   7.855  17.584  0.00  0.00    +0.000 A 
ATOM      8  C   UNL     1       6.073   7.144  16.915  0.00  0.00    +0.000 A 
ENDBRANCH   1   2
BRANCH   1   9
ATOM      9  C   UNL     1       5.698   4.640  14.810  0.00  0.00    +0.000 A 
ATOM     10  C   UNL     1       6.963   5.155  14.545  0.00  0.00    +0.000 A 
ATOM     11  C   UNL     1       7.625   4.845  13.322  0.00  0.00    +0.000 A 
ATOM     12  C   UNL     1       6.992   4.023  12.414  0.00  0.00    +0.000 A 
ATOM     13  F   UNL     1       7.603   3.757  11.254  0.00  0.00    +0.000 F 
ATOM     14  C   UNL     1       5.729   3.486  12.653  0.00  0.00    +0.000 A 
ATOM     15  C   UNL     1       5.093   3.781  13.855  0.00  0.00    +0.000 A 
ENDBRANCH   1   9
BRANCH   1  16
ATOM     16  O   UNL     1       4.505   3.795  16.599  0.00  0.00    +0.000 OA
BRANCH  16  23
ATOM     17  N   UNL     1       2.076   3.524  19.335  0.00  0.00    +0.000 NA
ATOM     18  C   UNL     1       3.156   4.466  19.077  0.00  0.00    +0.000 C 
ATOM     19  C   UNL     1       4.309   3.637  19.696  0.00  0.00    +0.000 C 
ATOM     20  C   UNL     1       4.009   2.169  19.439  0.00  0.00    +0.000 C 
ATOM     21  C   UNL     1       2.582   2.217  18.924  0.00  0.00    +0.000 C 
ATOM     22  C   UNL     1       2.637   2.206  17.363  0.00  0.00    +0.000 C 
ATOM     23  C   UNL     1       3.121   3.533  16.717  0.00  0.00    +0.000 C 
ATOM     24  C   UNL     1       2.745   4.701  17.607  0.00  0.00    +0.000 C 
BRANCH  17  25
ATOM     25  C   UNL     1       1.226   3.837  20.453  0.00  0.00    +0.000 C 
BRANCH  25  26
ATOM     26  C   UNL     1       1.127   2.751  21.529  0.00  0.00    +0.000 C 
BRANCH  26  27
ATOM     27  N   UNL     1       2.316   2.767  22.384  0.00  0.00    +0.000 NA
ATOM     28  H   UNL     1       2.713   1.830  22.419  0.00  0.00    +0.000 HD
ATOM     29  H   UNL     1       2.030   2.988  23.339  0.00  0.00    +0.000 HD
ENDBRANCH  26  27
ENDBRANCH  25  26
ENDBRANCH  17  25
ENDBRANCH  16  23
ENDBRANCH   1  16
TORSDOF 7
ENDMDL
MODEL 9
REMARK VINA RESULT:      -8.0      3.858      6.675
REMARK  Name = 
REMARK  7 active torsions:
REMARK  status: ('A' for Active; 'I' for Inactive)
REMARK    1  A    between atoms: N_1  and  C_2
REMARK    2  A    between atoms: C_2  and  C_3
REMARK    3  A    between atoms: C_3  and  N_4
REMARK    4  A    between atoms: C_10  and  O_11
REMARK    5  A    between atoms: O_11  and  C_12
REMARK    6  A    between atoms: C_12  and  C_13
REMARK    7  A    between atoms: C_12  and  C_20
REMARK                            x       y       z     vdW  Elec       q    Type
REMARK                         _______ _______ _______ _____ _____    ______ ____
ROOT
ATOM      1  C   UNL     1       6.368   4.418  16.871  0.00  0.00    +0.000 C 
ENDROOT
BRANCH   1   2
ATOM      2  C   UNL     1       6.439   4.467  15.353  0.00  0.00    +0.000 A 
ATOM      3  C   UNL     1       7.508   5.052  14.656  0.00  0.00    +0.000 A 
ATOM      4  C   UNL     1       7.636   4.875  13.266  0.00  0.00    +0.000 A 
ATOM      5  C   UNL     1       6.685   4.136  12.575  0.00  0.00    +0.000 A 
ATOM      6  F   UNL     1       6.843   3.917  11.261  0.00  0.00    +0.000 F 
ATOM      7  C   UNL     1       5.600   3.588  13.232  0.00  0.00    +0.000 A 
ATOM      8  C   UNL     1       5.471   3.757  14.616  0.00  0.00    +0.000 A 
ENDBRANCH   1   2
BRANCH   1   9
ATOM      9  C   UNL     1       7.039   5.642  17.488  0.00  0.00    +0.000 A 
ATOM     10  C   UNL     1       6.868   6.882  16.880  0.00  0.00    +0.000 A 
ATOM     11  C   UNL     1       7.495   8.041  17.422  0.00  0.00    +0.000 A 
ATOM     12  C   UNL     1       8.265   7.910  18.558  0.00  0.00    +0.000 A 
ATOM     13  F   UNL     1       8.876   8.996  19.047  0.00  0.00    +0.000 F 
ATOM     14  C   UNL     1       8.449   6.686  19.194  0.00  0.00    +0.000 A 
ATOM     15  C   UNL     1       7.824   5.559  18.669  0.00  0.00    +0.000 A 
ENDBRANCH   1   9
BRANCH   1  16
ATOM     16  O   UNL     1       5.086   4.408  17.428  0.00  0.00    +0.000 OA
BRANCH  16  23
ATOM     17  N   UNL     1       2.206   3.689  19.584  0.00  0.00    +0.000 NA
ATOM     18  C   UNL     1       2.659   3.103  18.330  0.00  0.00    +0.000 C 
ATOM     19  C   UNL     1       1.992   4.123  17.372  0.00  0.00    +0.000 C 
ATOM     20  C   UNL     1       2.018   5.481  18.054  0.00  0.00    +0.000 C 
ATOM     21  C   UNL     1       2.453   5.124  19.464  0.00  0.00    +0.000 C 
ATOM     22  C   UNL     1       3.997   5.343  19.558  0.00  0.00    +0.000 C 
ATOM     23  C   UNL     1       4.854   4.280  18.816  0.00  0.00    +0.000 C 
ATOM     24  C   UNL     1       4.121   2.953  18.802  0.00  0.00    +0.000 C 
BRANCH  17  25
ATOM     25  C   UNL     1       1.099   3.027  20.221  0.00  0.00    +0.000 C 
BRANCH  25  26
ATOM     26  C   UNL     1       1.266   2.761  21.721  0.00  0.00    +0.000 C 
BRANCH  26  27
ATOM     27  N   UNL     1       2.673   2.518  22.045  0.00  0.00    +0.000 NA
ATOM     28  H   UNL     1       2.745   2.221  23.016  0.00  0.00    +0.000 HD
ATOM     29  H   UNL     1       3.181   3.402  21.983  0.00  0.00    +0.000 HD
ENDBRANCH  26  27
ENDBRANCH  25  26
ENDBRANCH  17  25
ENDBRANCH  16  23
ENDBRANCH   1  16
TORSDOF 7
ENDMDL
