MODEL 1
REMARK VINA RESULT:      -6.6      0.000      0.000
REMARK  Name = 
REMARK  5 active torsions:
REMARK  status: ('A' for Active; 'I' for Inactive)
REMARK    1  A    between atoms: C_1  and  C_2
REMARK    2  A    between atoms: C_7  and  C_8
REMARK    3  A    between atoms: N_11  and  C_12
REMARK    4  A    between atoms: C_14  and  C_15
REMARK    5  A    between atoms: C_17  and  N_18
REMARK                            x       y       z     vdW  Elec       q    Type
REMARK                         _______ _______ _______ _____ _____    ______ ____
ROOT
ATOM      1  C   UNL     1       3.245   1.613  18.846  0.00  0.00    +0.000 C 
ATOM      2  C   UNL     1       2.704   2.597  19.815  0.00  0.00    +0.000 A 
ATOM      3  N   UNL     1       2.332   2.208  21.046  0.00  0.00    +0.000 NA
ATOM      4  N   UNL     1       1.911   3.344  21.642  0.00  0.00    +0.000 N 
ATOM      5  C   UNL     1       2.004   4.428  20.830  0.00  0.00    +0.000 A 
ATOM      6  C   UNL     1       2.510   3.984  19.637  0.00  0.00    +0.000 A 
ATOM      7  C   UNL     1       2.726   4.938  18.512  0.00  0.00    +0.000 C 
ATOM      8  C   UNL     1       2.490   6.366  19.004  0.00  0.00    +0.000 C 
ATOM      9  C   UNL     1       1.971   6.668  20.226  0.00  0.00    +0.000 C 
ATOM     10  O   UNL     1       1.674   5.669  21.170  0.00  0.00    +0.000 OA
ATOM     11  H   UNL     1       1.585   3.303  22.602  0.00  0.00    +0.000 HD
ENDROOT
BRANCH   7  12
ATOM     12  C   UNL     1       4.062   4.759  17.861  0.00  0.00    +0.000 A 
ATOM     13  C   UNL     1       4.357   4.459  16.509  0.00  0.00    +0.000 A 
ATOM     14  N   UNL     1       5.668   4.377  16.276  0.00  0.00    +0.000 NA
ATOM     15  N   UNL     1       6.222   4.610  17.477  0.00  0.00    +0.000 N 
ATOM     16  C   UNL     1       7.656   4.607  17.634  0.00  0.00    +0.000 C 
ATOM     17  C   UNL     1       5.306   4.849  18.458  0.00  0.00    +0.000 A 
ENDBRANCH   7  12
BRANCH   9  18
ATOM     18  N   UNL     1       1.688   7.933  20.680  0.00  0.00    +0.000 N 
ATOM     19  H   UNL     1       0.713   8.223  20.647  0.00  0.00    +0.000 HD
ATOM     20  H   UNL     1       2.331   8.635  20.319  0.00  0.00    +0.000 HD
ENDBRANCH   9  18
BRANCH   8  21
ATOM     21  C   UNL     1       2.897   7.495  18.071  0.00  0.00    +0.000 C 
ATOM     22  N   UNL     1       3.235   8.431  17.297  0.00  0.00    +0.000 NA
ENDBRANCH   8  21
TORSDOF 3
ENDMDL
MODEL 2
REMARK VINA RESULT:      -6.6      0.648      1.074
REMARK  Name = 
REMARK  5 active torsions:
REMARK  status: ('A' for Active; 'I' for Inactive)
REMARK    1  A    between atoms: C_1  and  C_2
REMARK    2  A    between atoms: C_7  and  C_8
REMARK    3  A    between atoms: N_11  and  C_12
REMARK    4  A    between atoms: C_14  and  C_15
REMARK    5  A    between atoms: C_17  and  N_18
REMARK                            x       y       z     vdW  Elec       q    Type
REMARK                         _______ _______ _______ _____ _____    ______ ____
ROOT
ATOM      1  C   UNL     1       3.700   1.697  18.956  0.00  0.00    +0.000 C 
ATOM      2  C   UNL     1       3.092   2.641  19.925  0.00  0.00    +0.000 A 
ATOM      3  N   UNL     1       2.786   2.238  21.170  0.00  0.00    +0.000 NA
ATOM      4  N   UNL     1       2.274   3.340  21.761  0.00  0.00    +0.000 N 
ATOM      5  C   UNL     1       2.248   4.416  20.932  0.00  0.00    +0.000 A 
ATOM      6  C   UNL     1       2.766   4.002  19.733  0.00  0.00    +0.000 A 
ATOM      7  C   UNL     1       2.867   4.954  18.591  0.00  0.00    +0.000 C 
ATOM      8  C   UNL     1       2.511   6.361  19.069  0.00  0.00    +0.000 C 
ATOM      9  C   UNL     1       1.994   6.633  20.299  0.00  0.00    +0.000 C 
ATOM     10  O   UNL     1       1.813   5.626  21.263  0.00  0.00    +0.000 OA
ATOM     11  H   UNL     1       1.976   3.284  22.729  0.00  0.00    +0.000 HD
ENDROOT
BRANCH   7  12
ATOM     12  C   UNL     1       4.199   4.889  17.910  0.00  0.00    +0.000 A 
ATOM     13  C   UNL     1       5.482   5.164  18.444  0.00  0.00    +0.000 A 
ATOM     14  N   UNL     1       6.456   4.998  17.547  0.00  0.00    +0.000 NA
ATOM     15  N   UNL     1       5.805   4.630  16.431  0.00  0.00    +0.000 N 
ATOM     16  C   UNL     1       6.534   4.353  15.217  0.00  0.00    +0.000 C 
ATOM     17  C   UNL     1       4.454   4.545  16.596  0.00  0.00    +0.000 A 
ENDBRANCH   7  12
BRANCH   9  18
ATOM     18  N   UNL     1       1.605   7.874  20.743  0.00  0.00    +0.000 N 
ATOM     19  H   UNL     1       0.946   8.382  20.158  0.00  0.00    +0.000 HD
ATOM     20  H   UNL     1       2.388   8.443  21.059  0.00  0.00    +0.000 HD
ENDBRANCH   9  18
BRANCH   8  21
ATOM     21  C   UNL     1       2.790   7.508  18.112  0.00  0.00    +0.000 C 
ATOM     22  N   UNL     1       3.022   8.460  17.317  0.00  0.00    +0.000 NA
ENDBRANCH   8  21
TORSDOF 3
ENDMDL
MODEL 3
REMARK VINA RESULT:      -6.3      2.011      4.417
REMARK  Name = 
REMARK  5 active torsions:
REMARK  status: ('A' for Active; 'I' for Inactive)
REMARK    1  A    between atoms: C_1  and  C_2
REMARK    2  A    between atoms: C_7  and  C_8
REMARK    3  A    between atoms: N_11  and  C_12
REMARK    4  A    between atoms: C_14  and  C_15
REMARK    5  A    between atoms: C_17  and  N_18
REMARK                            x       y       z     vdW  Elec       q    Type
REMARK                         _______ _______ _______ _____ _____    ______ ____
ROOT
ATOM      1  C   UNL     1       0.864   4.019  20.396  0.00  0.00    +0.000 C 
ATOM      2  C   UNL     1       1.640   3.332  19.335  0.00  0.00    +0.000 A 
ATOM      3  N   UNL     1       1.204   2.175  18.812  0.00  0.00    +0.000 NA
ATOM      4  N   UNL     1       2.135   1.855  17.887  0.00  0.00    +0.000 N 
ATOM      5  C   UNL     1       3.137   2.768  17.814  0.00  0.00    +0.000 A 
ATOM      6  C   UNL     1       2.855   3.737  18.739  0.00  0.00    +0.000 A 
ATOM      7  C   UNL     1       3.778   4.893  18.921  0.00  0.00    +0.000 C 
ATOM      8  C   UNL     1       4.851   4.862  17.833  0.00  0.00    +0.000 C 
ATOM      9  C   UNL     1       5.026   3.821  16.974  0.00  0.00    +0.000 C 
ATOM     10  O   UNL     1       4.168   2.707  16.979  0.00  0.00    +0.000 OA
ATOM     11  H   UNL     1       2.013   1.009  17.340  0.00  0.00    +0.000 HD
ENDROOT
BRANCH   7  12
ATOM     12  C   UNL     1       3.051   6.201  18.985  0.00  0.00    +0.000 A 
ATOM     13  C   UNL     1       2.494   6.851  20.113  0.00  0.00    +0.000 A 
ATOM     14  N   UNL     1       1.919   8.015  19.801  0.00  0.00    +0.000 NA
ATOM     15  N   UNL     1       2.091   8.111  18.473  0.00  0.00    +0.000 N 
ATOM     16  C   UNL     1       1.595   9.259  17.753  0.00  0.00    +0.000 C 
ATOM     17  C   UNL     1       2.766   7.055  17.937  0.00  0.00    +0.000 A 
ENDBRANCH   7  12
BRANCH   9  18
ATOM     18  N   UNL     1       6.015   3.729  16.024  0.00  0.00    +0.000 N 
ATOM     19  H   UNL     1       5.919   2.985  15.336  0.00  0.00    +0.000 HD
ATOM     20  H   UNL     1       6.950   3.797  16.420  0.00  0.00    +0.000 HD
ENDBRANCH   9  18
BRANCH   8  21
ATOM     21  C   UNL     1       5.739   6.089  17.703  0.00  0.00    +0.000 C 
ATOM     22  N   UNL     1       6.476   7.107  17.594  0.00  0.00    +0.000 NA
ENDBRANCH   8  21
TORSDOF 3
ENDMDL
MODEL 4
REMARK VINA RESULT:      -6.2      2.044      4.398
REMARK  Name = 
REMARK  5 active torsions:
REMARK  status: ('A' for Active; 'I' for Inactive)
REMARK    1  A    between atoms: C_1  and  C_2
REMARK    2  A    between atoms: C_7  and  C_8
REMARK    3  A    between atoms: N_11  and  C_12
REMARK    4  A    between atoms: C_14  and  C_15
REMARK    5  A    between atoms: C_17  and  N_18
REMARK                            x       y       z     vdW  Elec       q    Type
REMARK                         _______ _______ _______ _____ _____    ______ ____
ROOT
ATOM      1  C   UNL     1       0.908   4.279  20.340  0.00  0.00    +0.000 C 
ATOM      2  C   UNL     1       1.702   3.521  19.342  0.00  0.00    +0.000 A 
ATOM      3  N   UNL     1       1.303   2.305  18.935  0.00  0.00    +0.000 NA
ATOM      4  N   UNL     1       2.239   1.930  18.036  0.00  0.00    +0.000 N 
ATOM      5  C   UNL     1       3.207   2.867  17.866  0.00  0.00    +0.000 A 
ATOM      6  C   UNL     1       2.897   3.910  18.698  0.00  0.00    +0.000 A 
ATOM      7  C   UNL     1       3.779   5.109  18.760  0.00  0.00    +0.000 C 
ATOM      8  C   UNL     1       4.846   5.012  17.669  0.00  0.00    +0.000 C 
ATOM      9  C   UNL     1       5.052   3.900  16.911  0.00  0.00    +0.000 C 
ATOM     10  O   UNL     1       4.235   2.762  17.031  0.00  0.00    +0.000 OA
ATOM     11  H   UNL     1       2.144   1.032  17.574  0.00  0.00    +0.000 HD
ENDROOT
BRANCH   7  12
ATOM     12  C   UNL     1       3.006   6.391  18.706  0.00  0.00    +0.000 A 
ATOM     13  C   UNL     1       2.646   7.162  17.575  0.00  0.00    +0.000 A 
ATOM     14  N   UNL     1       1.947   8.252  17.899  0.00  0.00    +0.000 NA
ATOM     15  N   UNL     1       1.866   8.193  19.238  0.00  0.00    +0.000 N 
ATOM     16  C   UNL     1       1.168   9.220  19.974  0.00  0.00    +0.000 C 
ATOM     17  C   UNL     1       2.479   7.098  19.770  0.00  0.00    +0.000 A 
ENDBRANCH   7  12
BRANCH   9  18
ATOM     18  N   UNL     1       6.037   3.752  15.964  0.00  0.00    +0.000 N 
ATOM     19  H   UNL     1       6.378   4.604  15.525  0.00  0.00    +0.000 HD
ATOM     20  H   UNL     1       5.839   3.006  15.301  0.00  0.00    +0.000 HD
ENDBRANCH   9  18
BRANCH   8  21
ATOM     21  C   UNL     1       5.688   6.251  17.413  0.00  0.00    +0.000 C 
ATOM     22  N   UNL     1       6.387   7.279  17.200  0.00  0.00    +0.000 NA
ENDBRANCH   8  21
TORSDOF 3
ENDMDL
MODEL 5
REMARK VINA RESULT:      -6.1      2.006      3.916
REMARK  Name = 
REMARK  5 active torsions:
REMARK  status: ('A' for Active; 'I' for Inactive)
REMARK    1  A    between atoms: C_1  and  C_2
REMARK    2  A    between atoms: C_7  and  C_8
REMARK    3  A    between atoms: N_11  and  C_12
REMARK    4  A    between atoms: C_14  and  C_15
REMARK    5  A    between atoms: C_17  and  N_18
REMARK                            x       y       z     vdW  Elec       q    Type
REMARK                         _______ _______ _______ _____ _____    ______ ____
ROOT
ATOM      1  C   UNL     1       1.002   4.115  20.425  0.00  0.00    +0.000 C 
ATOM      2  C   UNL     1       1.724   5.315  19.937  0.00  0.00    +0.000 A 
ATOM      3  N   UNL     1       1.551   6.505  20.536  0.00  0.00    +0.000 NA
ATOM      4  N   UNL     1       2.357   7.344  19.849  0.00  0.00    +0.000 N 
ATOM      5  C   UNL     1       3.025   6.724  18.843  0.00  0.00    +0.000 A 
ATOM      6  C   UNL     1       2.639   5.410  18.866  0.00  0.00    +0.000 A 
ATOM      7  C   UNL     1       3.189   4.449  17.868  0.00  0.00    +0.000 C 
ATOM      8  C   UNL     1       4.297   5.129  17.064  0.00  0.00    +0.000 C 
ATOM      9  C   UNL     1       4.573   6.461  17.136  0.00  0.00    +0.000 C 
ATOM     10  O   UNL     1       3.892   7.310  18.026  0.00  0.00    +0.000 OA
ATOM     11  H   UNL     1       2.405   8.318  20.131  0.00  0.00    +0.000 HD
ENDROOT
BRANCH   7  12
ATOM     12  C   UNL     1       3.631   3.163  18.497  0.00  0.00    +0.000 A 
ATOM     13  C   UNL     1       3.338   1.836  18.101  0.00  0.00    +0.000 A 
ATOM     14  N   UNL     1       3.907   0.927  18.895  0.00  0.00    +0.000 NA
ATOM     15  N   UNL     1       4.557   1.664  19.811  0.00  0.00    +0.000 N 
ATOM     16  C   UNL     1       5.310   1.025  20.862  0.00  0.00    +0.000 C 
ATOM     17  C   UNL     1       4.428   3.007  19.615  0.00  0.00    +0.000 A 
ENDBRANCH   7  12
BRANCH   9  18
ATOM     18  N   UNL     1       5.518   7.119  16.387  0.00  0.00    +0.000 N 
ATOM     19  H   UNL     1       6.228   6.543  15.939  0.00  0.00    +0.000 HD
ATOM     20  H   UNL     1       5.900   7.935  16.861  0.00  0.00    +0.000 HD
ENDBRANCH   9  18
BRANCH   8  21
ATOM     21  C   UNL     1       5.145   4.243  16.167  0.00  0.00    +0.000 C 
ATOM     22  N   UNL     1       5.848   3.507  15.423  0.00  0.00    +0.000 NA
ENDBRANCH   8  21
TORSDOF 3
ENDMDL
MODEL 6
REMARK VINA RESULT:      -5.9      1.509      1.533
REMARK  Name = 
REMARK  5 active torsions:
REMARK  status: ('A' for Active; 'I' for Inactive)
REMARK    1  A    between atoms: C_1  and  C_2
REMARK    2  A    between atoms: C_7  and  C_8
REMARK    3  A    between atoms: N_11  and  C_12
REMARK    4  A    between atoms: C_14  and  C_15
REMARK    5  A    between atoms: C_17  and  N_18
REMARK                            x       y       z     vdW  Elec       q    Type
REMARK                         _______ _______ _______ _____ _____    ______ ____
ROOT
ATOM      1  C   UNL     1       4.324   2.924  17.848  0.00  0.00    +0.000 C 
ATOM      2  C   UNL     1       3.553   3.518  18.967  0.00  0.00    +0.000 A 
ATOM      3  N   UNL     1       3.323   2.812  20.087  0.00  0.00    +0.000 NA
ATOM      4  N   UNL     1       2.620   3.655  20.874  0.00  0.00    +0.000 N 
ATOM      5  C   UNL     1       2.401   4.861  20.288  0.00  0.00    +0.000 A 
ATOM      6  C   UNL     1       2.987   4.809  19.051  0.00  0.00    +0.000 A 
ATOM      7  C   UNL     1       2.916   5.984  18.138  0.00  0.00    +0.000 C 
ATOM      8  C   UNL     1       2.310   7.173  18.885  0.00  0.00    +0.000 C 
ATOM      9  C   UNL     1       1.750   7.081  20.122  0.00  0.00    +0.000 C 
ATOM     10  O   UNL     1       1.753   5.876  20.847  0.00  0.00    +0.000 OA
ATOM     11  H   UNL     1       2.335   3.342  21.796  0.00  0.00    +0.000 HD
ENDROOT
BRANCH   7  12
ATOM     12  C   UNL     1       4.239   6.303  17.512  0.00  0.00    +0.000 A 
ATOM     13  C   UNL     1       4.589   6.322  16.140  0.00  0.00    +0.000 A 
ATOM     14  N   UNL     1       5.866   6.657  15.943  0.00  0.00    +0.000 NA
ATOM     15  N   UNL     1       6.345   6.840  17.184  0.00  0.00    +0.000 N 
ATOM     16  C   UNL     1       7.722   7.221  17.387  0.00  0.00    +0.000 C 
ATOM     17  C   UNL     1       5.412   6.645  18.158  0.00  0.00    +0.000 A 
ENDBRANCH   7  12
BRANCH   9  18
ATOM     18  N   UNL     1       1.143   8.110  20.800  0.00  0.00    +0.000 N 
ATOM     19  H   UNL     1       1.756   8.762  21.285  0.00  0.00    +0.000 HD
ATOM     20  H   UNL     1       0.354   7.801  21.365  0.00  0.00    +0.000 HD
ENDBRANCH   9  18
BRANCH   8  21
ATOM     21  C   UNL     1       2.378   8.528  18.200  0.00  0.00    +0.000 C 
ATOM     22  N   UNL     1       2.435   9.652  17.632  0.00  0.00    +0.000 NA
ENDBRANCH   8  21
TORSDOF 3
ENDMDL
MODEL 7
REMARK VINA RESULT:      -5.8      4.664      7.766
REMARK  Name = 
REMARK  5 active torsions:
REMARK  status: ('A' for Active; 'I' for Inactive)
REMARK    1  A    between atoms: C_1  and  C_2
REMARK    2  A    between atoms: C_7  and  C_8
REMARK    3  A    between atoms: N_11  and  C_12
REMARK    4  A    between atoms: C_14  and  C_15
REMARK    5  A    between atoms: C_17  and  N_18
REMARK                            x       y       z     vdW  Elec       q    Type
REMARK                         _______ _______ _______ _____ _____    ______ ____
ROOT
ATOM      1  C   UNL     1      -1.525  12.611  21.931  0.00  0.00    +0.000 C 
ATOM      2  C   UNL     1      -0.933  11.304  22.308  0.00  0.00    +0.000 A 
ATOM      3  N   UNL     1      -1.202  10.752  23.503  0.00  0.00    +0.000 NA
ATOM      4  N   UNL     1      -0.519   9.587  23.494  0.00  0.00    +0.000 N 
ATOM      5  C   UNL     1       0.168   9.391  22.339  0.00  0.00    +0.000 A 
ATOM      6  C   UNL     1      -0.072  10.483  21.548  0.00  0.00    +0.000 A 
ATOM      7  C   UNL     1       0.554  10.584  20.199  0.00  0.00    +0.000 C 
ATOM      8  C   UNL     1       1.253   9.266  19.863  0.00  0.00    +0.000 C 
ATOM      9  C   UNL     1       1.429   8.255  20.758  0.00  0.00    +0.000 C 
ATOM     10  O   UNL     1       0.907   8.323  22.061  0.00  0.00    +0.000 OA
ATOM     11  H   UNL     1      -0.578   8.978  24.303  0.00  0.00    +0.000 HD
ENDROOT
BRANCH   7  12
ATOM     12  C   UNL     1      -0.423  11.009  19.147  0.00  0.00    +0.000 A 
ATOM     13  C   UNL     1      -0.492  12.238  18.446  0.00  0.00    +0.000 A 
ATOM     14  N   UNL     1      -1.497  12.271  17.568  0.00  0.00    +0.000 NA
ATOM     15  N   UNL     1      -2.085  11.072  17.709  0.00  0.00    +0.000 N 
ATOM     16  C   UNL     1      -3.234  10.723  16.910  0.00  0.00    +0.000 C 
ATOM     17  C   UNL     1      -1.479  10.278  18.637  0.00  0.00    +0.000 A 
ENDBRANCH   7  12
BRANCH   9  18
ATOM     18  N   UNL     1       2.103   7.084  20.512  0.00  0.00    +0.000 N 
ATOM     19  H   UNL     1       1.812   6.552  19.694  0.00  0.00    +0.000 HD
ATOM     20  H   UNL     1       2.218   6.511  21.347  0.00  0.00    +0.000 HD
ENDBRANCH   9  18
BRANCH   8  21
ATOM     21  C   UNL     1       1.740   9.087  18.435  0.00  0.00    +0.000 C 
ATOM     22  N   UNL     1       2.145   8.938  17.250  0.00  0.00    +0.000 NA
ENDBRANCH   8  21
TORSDOF 3
ENDMDL
MODEL 8
REMARK VINA RESULT:      -5.7      1.912      4.554
REMARK  Name = 
REMARK  5 active torsions:
REMARK  status: ('A' for Active; 'I' for Inactive)
REMARK    1  A    between atoms: C_1  and  C_2
REMARK    2  A    between atoms: C_7  and  C_8
REMARK    3  A    between atoms: N_11  and  C_12
REMARK    4  A    between atoms: C_14  and  C_15
REMARK    5  A    between atoms: C_17  and  N_18
REMARK                            x       y       z     vdW  Elec       q    Type
REMARK                         _______ _______ _______ _____ _____    ______ ____
ROOT
ATOM      1  C   UNL     1       5.173   3.782  18.285  0.00  0.00    +0.000 C 
ATOM      2  C   UNL     1       4.823   5.067  17.630  0.00  0.00    +0.000 A 
ATOM      3  N   UNL     1       5.296   5.361  16.408  0.00  0.00    +0.000 NA
ATOM      4  N   UNL     1       4.772   6.575  16.131  0.00  0.00    +0.000 N 
ATOM      5  C   UNL     1       3.991   7.051  17.134  0.00  0.00    +0.000 A 
ATOM      6  C   UNL     1       4.002   6.105  18.124  0.00  0.00    +0.000 A 
ATOM      7  C   UNL     1       3.241   6.330  19.386  0.00  0.00    +0.000 C 
ATOM      8  C   UNL     1       2.387   7.590  19.246  0.00  0.00    +0.000 C 
ATOM      9  C   UNL     1       2.483   8.455  18.200  0.00  0.00    +0.000 C 
ATOM     10  O   UNL     1       3.343   8.210  17.115  0.00  0.00    +0.000 OA
ATOM     11  H   UNL     1       4.984   7.008  15.238  0.00  0.00    +0.000 HD
ENDROOT
BRANCH   7  12
ATOM     12  C   UNL     1       2.445   5.129  19.795  0.00  0.00    +0.000 A 
ATOM     13  C   UNL     1       1.480   4.409  19.050  0.00  0.00    +0.000 A 
ATOM     14  N   UNL     1       0.969   3.381  19.730  0.00  0.00    +0.000 NA
ATOM     15  N   UNL     1       1.593   3.442  20.918  0.00  0.00    +0.000 N 
ATOM     16  C   UNL     1       1.302   2.474  21.947  0.00  0.00    +0.000 C 
ATOM     17  C   UNL     1       2.489   4.466  21.007  0.00  0.00    +0.000 A 
ENDBRANCH   7  12
BRANCH   9  18
ATOM     18  N   UNL     1       1.778   9.627  18.068  0.00  0.00    +0.000 N 
ATOM     19  H   UNL     1       2.084  10.265  17.336  0.00  0.00    +0.000 HD
ATOM     20  H   UNL     1       1.606  10.087  18.960  0.00  0.00    +0.000 HD
ENDBRANCH   9  18
BRANCH   8  21
ATOM     21  C   UNL     1       1.357   7.851  20.333  0.00  0.00    +0.000 C 
ATOM     22  N   UNL     1       0.502   8.067  21.235  0.00  0.00    +0.000 NA
ENDBRANCH   8  21
TORSDOF 3
ENDMDL
MODEL 9
REMARK VINA RESULT:      -5.7      2.294      5.307
REMARK  Name = 
REMARK  5 active torsions:
REMARK  status: ('A' for Active; 'I' for Inactive)
REMARK    1  A    between atoms: C_1  and  C_2
REMARK    2  A    between atoms: C_7  and  C_8
REMARK    3  A    between atoms: N_11  and  C_12
REMARK    4  A    between atoms: C_14  and  C_15
REMARK    5  A    between atoms: C_17  and  N_18
REMARK                            x       y       z     vdW  Elec       q    Type
REMARK                         _______ _______ _______ _____ _____    ______ ____
ROOT
ATOM      1  C   UNL     1       6.426   8.036  17.471  0.00  0.00    +0.000 C 
ATOM      2  C   UNL     1       6.579   6.623  17.898  0.00  0.00    +0.000 A 
ATOM      3  N   UNL     1       7.755   6.177  18.369  0.00  0.00    +0.000 NA
ATOM      4  N   UNL     1       7.525   4.879  18.666  0.00  0.00    +0.000 N 
ATOM      5  C   UNL     1       6.249   4.498  18.397  0.00  0.00    +0.000 A 
ATOM      6  C   UNL     1       5.607   5.599  17.895  0.00  0.00    +0.000 A 
ATOM      7  C   UNL     1       4.177   5.511  17.484  0.00  0.00    +0.000 C 
ATOM      8  C   UNL     1       3.612   4.153  17.900  0.00  0.00    +0.000 C 
ATOM      9  C   UNL     1       4.373   3.134  18.385  0.00  0.00    +0.000 C 
ATOM     10  O   UNL     1       5.753   3.285  18.610  0.00  0.00    +0.000 OA
ATOM     11  H   UNL     1       8.279   4.323  19.056  0.00  0.00    +0.000 HD
ENDROOT
BRANCH   7  12
ATOM     12  C   UNL     1       3.365   6.661  17.994  0.00  0.00    +0.000 A 
ATOM     13  C   UNL     1       2.795   6.845  19.277  0.00  0.00    +0.000 A 
ATOM     14  N   UNL     1       2.135   8.000  19.384  0.00  0.00    +0.000 NA
ATOM     15  N   UNL     1       2.265   8.557  18.168  0.00  0.00    +0.000 N 
ATOM     16  C   UNL     1       1.673   9.842  17.886  0.00  0.00    +0.000 C 
ATOM     17  C   UNL     1       2.995   7.799  17.302  0.00  0.00    +0.000 A 
ENDBRANCH   7  12
BRANCH   9  18
ATOM     18  N   UNL     1       3.912   1.882  18.713  0.00  0.00    +0.000 N 
ATOM     19  H   UNL     1       3.054   1.578  18.258  0.00  0.00    +0.000 HD
ATOM     20  H   UNL     1       3.922   1.707  19.716  0.00  0.00    +0.000 HD
ENDBRANCH   9  18
BRANCH   8  21
ATOM     21  C   UNL     1       2.107   3.967  17.788  0.00  0.00    +0.000 C 
ATOM     22  N   UNL     1       0.859   3.812  17.695  0.00  0.00    +0.000 NA
ENDBRANCH   8  21
TORSDOF 3
ENDMDL
