MODEL 1
REMARK VINA RESULT:      -8.2      0.000      0.000
REMARK  Name = 
REMARK  12 active torsions:
REMARK  status: ('A' for Active; 'I' for Inactive)
REMARK    1  A    between atoms: C_1  and  C_2
REMARK    2  A    between atoms: C_2  and  C_3
REMARK    3  A    between atoms: C_2  and  C_4
REMARK    4  A    between atoms: C_2  and  C_5
REMARK    5  A    between atoms: C_7  and  C_8
REMARK    6  A    between atoms: N_10  and  C_11
REMARK    7  A    between atoms: C_14  and  C_15
REMARK    8  A    between atoms: C_20  and  O_21
REMARK    9  A    between atoms: C_22  and  C_23
REMARK   10  A    between atoms: C_23  and  C_24
REMARK   11  A    between atoms: C_23  and  C_25
REMARK   12  A    between atoms: C_23  and  C_26
REMARK                            x       y       z     vdW  Elec       q    Type
REMARK                         _______ _______ _______ _____ _____    ______ ____
ROOT
ATOM      1  C   UNL     1       4.367   5.495  17.455  0.00  0.00    +0.000 A 
ATOM      2  C   UNL     1       3.721   6.649  17.913  0.00  0.00    +0.000 A 
ATOM      3  C   UNL     1       2.650   6.575  18.829  0.00  0.00    +0.000 A 
ATOM      4  C   UNL     1       2.245   5.324  19.331  0.00  0.00    +0.000 A 
ATOM      5  C   UNL     1       2.867   4.133  18.914  0.00  0.00    +0.000 A 
ATOM      6  C   UNL     1       3.910   4.275  17.970  0.00  0.00    +0.000 A 
ENDROOT
BRANCH   1   8
ATOM      7  C   UNL     1       6.834   5.940  17.098  0.00  0.00    +0.000 C 
ATOM      8  C   UNL     1       5.504   5.557  16.417  0.00  0.00    +0.000 C 
ATOM      9  C   UNL     1       5.160   6.607  15.341  0.00  0.00    +0.000 C 
ATOM     10  C   UNL     1       5.745   4.214  15.681  0.00  0.00    +0.000 C 
ENDBRANCH   1   8
BRANCH   3  11
ATOM     11  C   UNL     1       2.059   7.873  19.245  0.00  0.00    +0.000 C 
ATOM     12  O   UNL     1       1.852   8.045  20.445  0.00  0.00    +0.000 OA
ATOM     13  N   UNL     1       1.738   8.782  18.234  0.00  0.00    +0.000 N 
ATOM     14  H   UNL     1       1.853   8.453  17.282  0.00  0.00    +0.000 HD
BRANCH  13  15
ATOM     15  C   UNL     1       1.128  10.036  18.437  0.00  0.00    +0.000 A 
ATOM     16  C   UNL     1       1.863  11.224  18.513  0.00  0.00    +0.000 A 
ATOM     17  C   UNL     1       1.230  12.454  18.732  0.00  0.00    +0.000 A 
ATOM     18  C   UNL     1      -0.156  12.511  18.884  0.00  0.00    +0.000 A 
ATOM     19  C   UNL     1      -0.898  11.326  18.816  0.00  0.00    +0.000 A 
ATOM     20  C   UNL     1      -0.267  10.097  18.571  0.00  0.00    +0.000 A 
BRANCH  18  21
ATOM     21  C   UNL     1      -0.828  13.821  19.114  0.00  0.00    +0.000 C 
ATOM     22  N   UNL     1      -0.414  14.930  18.582  0.00  0.00    +0.000 NA
ATOM     23  N   UNL     1      -1.934  13.918  19.902  0.00  0.00    +0.000 N 
ATOM     24  H   UNL     1       0.448  14.791  18.051  0.00  0.00    +0.000 HD
ATOM     25  H   UNL     1      -2.588  13.146  19.861  0.00  0.00    +0.000 HD
ATOM     26  H   UNL     1      -2.383  14.819  19.771  0.00  0.00    +0.000 HD
ENDBRANCH  18  21
ENDBRANCH  13  15
ENDBRANCH   3  11
BRANCH   5  27
ATOM     27  C   UNL     1       2.460   2.698  19.334  0.00  0.00    +0.000 C 
ATOM     28  C   UNL     1       3.399   1.696  18.629  0.00  0.00    +0.000 C 
ATOM     29  C   UNL     1       2.593   2.497  20.872  0.00  0.00    +0.000 C 
ATOM     30  C   UNL     1       1.011   2.293  18.996  0.00  0.00    +0.000 C 
ENDBRANCH   5  27
BRANCH   4  31
ATOM     31  O   UNL     1       1.250   5.301  20.267  0.00  0.00    +0.000 OA
ATOM     32  H   UNL     1       1.473   4.555  20.857  0.00  0.00    +0.000 HD
ENDBRANCH   4  31
TORSDOF 6
ENDMDL
MODEL 2
REMARK VINA RESULT:      -8.1      0.135      1.166
REMARK  Name = 
REMARK  12 active torsions:
REMARK  status: ('A' for Active; 'I' for Inactive)
REMARK    1  A    between atoms: C_1  and  C_2
REMARK    2  A    between atoms: C_2  and  C_3
REMARK    3  A    between atoms: C_2  and  C_4
REMARK    4  A    between atoms: C_2  and  C_5
REMARK    5  A    between atoms: C_7  and  C_8
REMARK    6  A    between atoms: N_10  and  C_11
REMARK    7  A    between atoms: C_14  and  C_15
REMARK    8  A    between atoms: C_20  and  O_21
REMARK    9  A    between atoms: C_22  and  C_23
REMARK   10  A    between atoms: C_23  and  C_24
REMARK   11  A    between atoms: C_23  and  C_25
REMARK   12  A    between atoms: C_23  and  C_26
REMARK                            x       y       z     vdW  Elec       q    Type
REMARK                         _______ _______ _______ _____ _____    ______ ____
ROOT
ATOM      1  C   UNL     1       4.307   5.514  17.547  0.00  0.00    +0.000 A 
ATOM      2  C   UNL     1       3.666   6.674  17.996  0.00  0.00    +0.000 A 
ATOM      3  C   UNL     1       2.614   6.615  18.932  0.00  0.00    +0.000 A 
ATOM      4  C   UNL     1       2.220   5.373  19.465  0.00  0.00    +0.000 A 
ATOM      5  C   UNL     1       2.838   4.175  19.059  0.00  0.00    +0.000 A 
ATOM      6  C   UNL     1       3.862   4.302  18.093  0.00  0.00    +0.000 A 
ENDROOT
BRANCH   1   8
ATOM      7  C   UNL     1       5.107   6.624  15.417  0.00  0.00    +0.000 C 
ATOM      8  C   UNL     1       5.424   5.559  16.487  0.00  0.00    +0.000 C 
ATOM      9  C   UNL     1       5.549   4.178  15.813  0.00  0.00    +0.000 C 
ATOM     10  C   UNL     1       6.817   5.909  17.070  0.00  0.00    +0.000 C 
ENDBRANCH   1   8
BRANCH   3  11
ATOM     11  C   UNL     1       2.027   7.920  19.336  0.00  0.00    +0.000 C 
ATOM     12  O   UNL     1       1.810   8.100  20.534  0.00  0.00    +0.000 OA
ATOM     13  N   UNL     1       1.722   8.824  18.317  0.00  0.00    +0.000 N 
ATOM     14  H   UNL     1       1.843   8.489  17.368  0.00  0.00    +0.000 HD
BRANCH  13  15
ATOM     15  C   UNL     1       1.118  10.083  18.507  0.00  0.00    +0.000 A 
ATOM     16  C   UNL     1       1.852  11.274  18.515  0.00  0.00    +0.000 A 
ATOM     17  C   UNL     1       1.228  12.510  18.723  0.00  0.00    +0.000 A 
ATOM     18  C   UNL     1      -0.151  12.570  18.933  0.00  0.00    +0.000 A 
ATOM     19  C   UNL     1      -0.892  11.383  18.934  0.00  0.00    +0.000 A 
ATOM     20  C   UNL     1      -0.270  10.148  18.700  0.00  0.00    +0.000 A 
BRANCH  18  21
ATOM     21  C   UNL     1      -0.815  13.886  19.151  0.00  0.00    +0.000 C 
ATOM     22  N   UNL     1      -0.384  14.991  18.624  0.00  0.00    +0.000 NA
ATOM     23  N   UNL     1      -1.932  13.993  19.923  0.00  0.00    +0.000 N 
ATOM     24  H   UNL     1       0.484  14.844  18.106  0.00  0.00    +0.000 HD
ATOM     25  H   UNL     1      -2.592  13.227  19.873  0.00  0.00    +0.000 HD
ATOM     26  H   UNL     1      -2.372  14.898  19.784  0.00  0.00    +0.000 HD
ENDBRANCH  18  21
ENDBRANCH  13  15
ENDBRANCH   3  11
BRANCH   5  27
ATOM     27  C   UNL     1       2.442   2.747  19.512  0.00  0.00    +0.000 C 
ATOM     28  C   UNL     1       1.010   2.455  19.015  0.00  0.00    +0.000 C 
ATOM     29  C   UNL     1       3.398   1.676  18.910  0.00  0.00    +0.000 C 
ATOM     30  C   UNL     1       2.466   2.503  21.034  0.00  0.00    +0.000 C 
ENDBRANCH   5  27
BRANCH   4  31
ATOM     31  O   UNL     1       1.243   5.365  20.420  0.00  0.00    +0.000 OA
ATOM     32  H   UNL     1       0.605   4.687  20.124  0.00  0.00    +0.000 HD
ENDBRANCH   4  31
TORSDOF 6
ENDMDL
MODEL 3
REMARK VINA RESULT:      -8.1      0.130      1.267
REMARK  Name = 
REMARK  12 active torsions:
REMARK  status: ('A' for Active; 'I' for Inactive)
REMARK    1  A    between atoms: C_1  and  C_2
REMARK    2  A    between atoms: C_2  and  C_3
REMARK    3  A    between atoms: C_2  and  C_4
REMARK    4  A    between atoms: C_2  and  C_5
REMARK    5  A    between atoms: C_7  and  C_8
REMARK    6  A    between atoms: N_10  and  C_11
REMARK    7  A    between atoms: C_14  and  C_15
REMARK    8  A    between atoms: C_20  and  O_21
REMARK    9  A    between atoms: C_22  and  C_23
REMARK   10  A    between atoms: C_23  and  C_24
REMARK   11  A    between atoms: C_23  and  C_25
REMARK   12  A    between atoms: C_23  and  C_26
REMARK                            x       y       z     vdW  Elec       q    Type
REMARK                         _______ _______ _______ _____ _____    ______ ____
ROOT
ATOM      1  C   UNL     1       4.365   5.564  17.566  0.00  0.00    +0.000 A 
ATOM      2  C   UNL     1       3.702   6.707  18.028  0.00  0.00    +0.000 A 
ATOM      3  C   UNL     1       2.623   6.614  18.930  0.00  0.00    +0.000 A 
ATOM      4  C   UNL     1       2.223   5.354  19.415  0.00  0.00    +0.000 A 
ATOM      5  C   UNL     1       2.862   4.173  18.993  0.00  0.00    +0.000 A 
ATOM      6  C   UNL     1       3.913   4.335  18.063  0.00  0.00    +0.000 A 
ENDROOT
BRANCH   1   8
ATOM      7  C   UNL     1       5.135   6.597  15.386  0.00  0.00    +0.000 C 
ATOM      8  C   UNL     1       5.513   5.648  16.541  0.00  0.00    +0.000 C 
ATOM      9  C   UNL     1       5.800   4.243  15.975  0.00  0.00    +0.000 C 
ATOM     10  C   UNL     1       6.841   6.177  17.141  0.00  0.00    +0.000 C 
ENDBRANCH   1   8
BRANCH   3  11
ATOM     11  C   UNL     1       2.014   7.902  19.352  0.00  0.00    +0.000 C 
ATOM     12  O   UNL     1       1.815   8.070  20.555  0.00  0.00    +0.000 OA
ATOM     13  N   UNL     1       1.669   8.806  18.345  0.00  0.00    +0.000 N 
ATOM     14  H   UNL     1       1.780   8.479  17.392  0.00  0.00    +0.000 HD
BRANCH  13  15
ATOM     15  C   UNL     1       1.041  10.050  18.555  0.00  0.00    +0.000 A 
ATOM     16  C   UNL     1      -0.339  10.170  18.747  0.00  0.00    +0.000 A 
ATOM     17  C   UNL     1      -0.939  11.421  18.937  0.00  0.00    +0.000 A 
ATOM     18  C   UNL     1      -0.159  12.578  18.930  0.00  0.00    +0.000 A 
ATOM     19  C   UNL     1       1.222  12.468  18.731  0.00  0.00    +0.000 A 
ATOM     20  C   UNL     1       1.825  11.213  18.567  0.00  0.00    +0.000 A 
BRANCH  18  21
ATOM     21  C   UNL     1      -0.798  13.909  19.135  0.00  0.00    +0.000 C 
ATOM     22  N   UNL     1      -0.370  14.994  18.567  0.00  0.00    +0.000 NA
ATOM     23  N   UNL     1      -1.889  14.051  19.938  0.00  0.00    +0.000 N 
ATOM     24  H   UNL     1       0.480  14.822  18.025  0.00  0.00    +0.000 HD
ATOM     25  H   UNL     1      -2.560  13.293  19.928  0.00  0.00    +0.000 HD
ATOM     26  H   UNL     1      -2.321  14.958  19.789  0.00  0.00    +0.000 HD
ENDBRANCH  18  21
ENDBRANCH  13  15
ENDBRANCH   3  11
BRANCH   5  27
ATOM     27  C   UNL     1       2.463   2.730  19.393  0.00  0.00    +0.000 C 
ATOM     28  C   UNL     1       3.423   1.745  18.694  0.00  0.00    +0.000 C 
ATOM     29  C   UNL     1       2.576   2.516  20.931  0.00  0.00    +0.000 C 
ATOM     30  C   UNL     1       1.024   2.314  19.031  0.00  0.00    +0.000 C 
ENDBRANCH   5  27
BRANCH   4  31
ATOM     31  O   UNL     1       1.218   5.312  20.339  0.00  0.00    +0.000 OA
ATOM     32  H   UNL     1       0.408   5.127  19.825  0.00  0.00    +0.000 HD
ENDBRANCH   4  31
TORSDOF 6
ENDMDL
MODEL 4
REMARK VINA RESULT:      -8.1      0.102      1.317
REMARK  Name = 
REMARK  12 active torsions:
REMARK  status: ('A' for Active; 'I' for Inactive)
REMARK    1  A    between atoms: C_1  and  C_2
REMARK    2  A    between atoms: C_2  and  C_3
REMARK    3  A    between atoms: C_2  and  C_4
REMARK    4  A    between atoms: C_2  and  C_5
REMARK    5  A    between atoms: C_7  and  C_8
REMARK    6  A    between atoms: N_10  and  C_11
REMARK    7  A    between atoms: C_14  and  C_15
REMARK    8  A    between atoms: C_20  and  O_21
REMARK    9  A    between atoms: C_22  and  C_23
REMARK   10  A    between atoms: C_23  and  C_24
REMARK   11  A    between atoms: C_23  and  C_25
REMARK   12  A    between atoms: C_23  and  C_26
REMARK                            x       y       z     vdW  Elec       q    Type
REMARK                         _______ _______ _______ _____ _____    ______ ____
ROOT
ATOM      1  C   UNL     1       4.355   5.554  17.367  0.00  0.00    +0.000 A 
ATOM      2  C   UNL     1       3.705   6.698  17.843  0.00  0.00    +0.000 A 
ATOM      3  C   UNL     1       2.660   6.608  18.786  0.00  0.00    +0.000 A 
ATOM      4  C   UNL     1       2.284   5.352  19.297  0.00  0.00    +0.000 A 
ATOM      5  C   UNL     1       2.912   4.169  18.862  0.00  0.00    +0.000 A 
ATOM      6  C   UNL     1       3.928   4.327  17.892  0.00  0.00    +0.000 A 
ENDROOT
BRANCH   1   8
ATOM      7  C   UNL     1       5.150   6.748  15.281  0.00  0.00    +0.000 C 
ATOM      8  C   UNL     1       5.463   5.633  16.300  0.00  0.00    +0.000 C 
ATOM      9  C   UNL     1       5.566   4.282  15.564  0.00  0.00    +0.000 C 
ATOM     10  C   UNL     1       6.866   5.941  16.884  0.00  0.00    +0.000 C 
ENDBRANCH   1   8
BRANCH   3  11
ATOM     11  C   UNL     1       2.061   7.898  19.219  0.00  0.00    +0.000 C 
ATOM     12  O   UNL     1       1.868   8.059  20.424  0.00  0.00    +0.000 OA
ATOM     13  N   UNL     1       1.719   8.811  18.220  0.00  0.00    +0.000 N 
ATOM     14  H   UNL     1       1.824   8.489  17.264  0.00  0.00    +0.000 HD
BRANCH  13  15
ATOM     15  C   UNL     1       1.099  10.057  18.440  0.00  0.00    +0.000 A 
ATOM     16  C   UNL     1       1.826  11.247  18.549  0.00  0.00    +0.000 A 
ATOM     17  C   UNL     1       1.185  12.469  18.784  0.00  0.00    +0.000 A 
ATOM     18  C   UNL     1      -0.204  12.516  18.920  0.00  0.00    +0.000 A 
ATOM     19  C   UNL     1      -0.938  11.329  18.819  0.00  0.00    +0.000 A 
ATOM     20  C   UNL     1      -0.298  10.109  18.558  0.00  0.00    +0.000 A 
BRANCH  18  21
ATOM     21  C   UNL     1      -0.885  13.818  19.167  0.00  0.00    +0.000 C 
ATOM     22  N   UNL     1      -1.932  13.935  19.925  0.00  0.00    +0.000 NA
ATOM     23  N   UNL     1      -0.428  14.971  18.605  0.00  0.00    +0.000 N 
ATOM     24  H   UNL     1      -2.250  13.026  20.267  0.00  0.00    +0.000 HD
ATOM     25  H   UNL     1       0.576  15.066  18.520  0.00  0.00    +0.000 HD
ATOM     26  H   UNL     1      -0.861  15.775  19.047  0.00  0.00    +0.000 HD
ENDBRANCH  18  21
ENDBRANCH  13  15
ENDBRANCH   3  11
BRANCH   5  27
ATOM     27  C   UNL     1       2.536   2.728  19.290  0.00  0.00    +0.000 C 
ATOM     28  C   UNL     1       2.697   2.613  20.821  0.00  0.00    +0.000 C 
ATOM     29  C   UNL     1       1.059   2.396  18.926  0.00  0.00    +0.000 C 
ATOM     30  C   UNL     1       3.374   1.605  18.648  0.00  0.00    +0.000 C 
ENDBRANCH   5  27
BRANCH   4  31
ATOM     31  O   UNL     1       1.315   5.314  20.258  0.00  0.00    +0.000 OA
ATOM     32  H   UNL     1       0.565   4.843  19.844  0.00  0.00    +0.000 HD
ENDBRANCH   4  31
TORSDOF 6
ENDMDL
MODEL 5
REMARK VINA RESULT:      -8.1      2.230      2.528
REMARK  Name = 
REMARK  12 active torsions:
REMARK  status: ('A' for Active; 'I' for Inactive)
REMARK    1  A    between atoms: C_1  and  C_2
REMARK    2  A    between atoms: C_2  and  C_3
REMARK    3  A    between atoms: C_2  and  C_4
REMARK    4  A    between atoms: C_2  and  C_5
REMARK    5  A    between atoms: C_7  and  C_8
REMARK    6  A    between atoms: N_10  and  C_11
REMARK    7  A    between atoms: C_14  and  C_15
REMARK    8  A    between atoms: C_20  and  O_21
REMARK    9  A    between atoms: C_22  and  C_23
REMARK   10  A    between atoms: C_23  and  C_24
REMARK   11  A    between atoms: C_23  and  C_25
REMARK   12  A    between atoms: C_23  and  C_26
REMARK                            x       y       z     vdW  Elec       q    Type
REMARK                         _______ _______ _______ _____ _____    ______ ____
ROOT
ATOM      1  C   UNL     1       4.484   5.749  17.946  0.00  0.00    +0.000 A 
ATOM      2  C   UNL     1       3.688   6.833  18.333  0.00  0.00    +0.000 A 
ATOM      3  C   UNL     1       2.596   6.664  19.209  0.00  0.00    +0.000 A 
ATOM      4  C   UNL     1       2.319   5.392  19.745  0.00  0.00    +0.000 A 
ATOM      5  C   UNL     1       3.094   4.269  19.399  0.00  0.00    +0.000 A 
ATOM      6  C   UNL     1       4.151   4.501  18.490  0.00  0.00    +0.000 A 
ENDROOT
BRANCH   1   8
ATOM      7  C   UNL     1       5.148   6.540  15.634  0.00  0.00    +0.000 C 
ATOM      8  C   UNL     1       5.648   5.909  16.950  0.00  0.00    +0.000 C 
ATOM      9  C   UNL     1       6.265   4.528  16.653  0.00  0.00    +0.000 C 
ATOM     10  C   UNL     1       6.792   6.815  17.475  0.00  0.00    +0.000 C 
ENDBRANCH   1   8
BRANCH   3  11
ATOM     11  C   UNL     1       1.840   7.897  19.552  0.00  0.00    +0.000 C 
ATOM     12  O   UNL     1       1.671   8.727  18.659  0.00  0.00    +0.000 OA
ATOM     13  N   UNL     1       1.418   8.040  20.875  0.00  0.00    +0.000 N 
ATOM     14  H   UNL     1       1.736   7.331  21.526  0.00  0.00    +0.000 HD
BRANCH  13  15
ATOM     15  C   UNL     1       0.735   9.160  21.390  0.00  0.00    +0.000 A 
ATOM     16  C   UNL     1       0.863  10.437  20.835  0.00  0.00    +0.000 A 
ATOM     17  C   UNL     1       0.184  11.535  21.378  0.00  0.00    +0.000 A 
ATOM     18  C   UNL     1      -0.635  11.368  22.496  0.00  0.00    +0.000 A 
ATOM     19  C   UNL     1      -0.763  10.094  23.062  0.00  0.00    +0.000 A 
ATOM     20  C   UNL     1      -0.103   8.990  22.502  0.00  0.00    +0.000 A 
BRANCH  18  21
ATOM     21  C   UNL     1      -1.359  12.537  23.071  0.00  0.00    +0.000 C 
ATOM     22  N   UNL     1      -0.758  13.621  23.453  0.00  0.00    +0.000 NA
ATOM     23  N   UNL     1      -2.713  12.525  23.217  0.00  0.00    +0.000 N 
ATOM     24  H   UNL     1       0.256  13.538  23.365  0.00  0.00    +0.000 HD
ATOM     25  H   UNL     1      -3.242  12.056  22.493  0.00  0.00    +0.000 HD
ATOM     26  H   UNL     1      -3.055  13.461  23.407  0.00  0.00    +0.000 HD
ENDBRANCH  18  21
ENDBRANCH  13  15
ENDBRANCH   3  11
BRANCH   5  27
ATOM     27  C   UNL     1       2.840   2.811  19.858  0.00  0.00    +0.000 C 
ATOM     28  C   UNL     1       4.023   1.937  19.391  0.00  0.00    +0.000 C 
ATOM     29  C   UNL     1       2.740   2.714  21.409  0.00  0.00    +0.000 C 
ATOM     30  C   UNL     1       1.545   2.164  19.328  0.00  0.00    +0.000 C 
ENDBRANCH   5  27
BRANCH   4  31
ATOM     31  O   UNL     1       1.295   5.284  20.642  0.00  0.00    +0.000 OA
ATOM     32  H   UNL     1       1.656   5.625  21.483  0.00  0.00    +0.000 HD
ENDBRANCH   4  31
TORSDOF 6
ENDMDL
MODEL 6
REMARK VINA RESULT:      -8.1      0.136      1.341
REMARK  Name = 
REMARK  12 active torsions:
REMARK  status: ('A' for Active; 'I' for Inactive)
REMARK    1  A    between atoms: C_1  and  C_2
REMARK    2  A    between atoms: C_2  and  C_3
REMARK    3  A    between atoms: C_2  and  C_4
REMARK    4  A    between atoms: C_2  and  C_5
REMARK    5  A    between atoms: C_7  and  C_8
REMARK    6  A    between atoms: N_10  and  C_11
REMARK    7  A    between atoms: C_14  and  C_15
REMARK    8  A    between atoms: C_20  and  O_21
REMARK    9  A    between atoms: C_22  and  C_23
REMARK   10  A    between atoms: C_23  and  C_24
REMARK   11  A    between atoms: C_23  and  C_25
REMARK   12  A    between atoms: C_23  and  C_26
REMARK                            x       y       z     vdW  Elec       q    Type
REMARK                         _______ _______ _______ _____ _____    ______ ____
ROOT
ATOM      1  C   UNL     1       4.261   5.523  17.389  0.00  0.00    +0.000 A 
ATOM      2  C   UNL     1       3.630   6.679  17.862  0.00  0.00    +0.000 A 
ATOM      3  C   UNL     1       2.615   6.612  18.839  0.00  0.00    +0.000 A 
ATOM      4  C   UNL     1       2.253   5.368  19.388  0.00  0.00    +0.000 A 
ATOM      5  C   UNL     1       2.864   4.174  18.958  0.00  0.00    +0.000 A 
ATOM      6  C   UNL     1       3.848   4.309  17.952  0.00  0.00    +0.000 A 
ENDROOT
BRANCH   1   8
ATOM      7  C   UNL     1       5.369   4.248  15.503  0.00  0.00    +0.000 C 
ATOM      8  C   UNL     1       5.335   5.577  16.285  0.00  0.00    +0.000 C 
ATOM      9  C   UNL     1       6.715   5.831  16.923  0.00  0.00    +0.000 C 
ATOM     10  C   UNL     1       5.099   6.704  15.246  0.00  0.00    +0.000 C 
ENDBRANCH   1   8
BRANCH   3  11
ATOM     11  C   UNL     1       2.035   7.913  19.265  0.00  0.00    +0.000 C 
ATOM     12  O   UNL     1       1.863   8.091  20.470  0.00  0.00    +0.000 OA
ATOM     13  N   UNL     1       1.683   8.815  18.259  0.00  0.00    +0.000 N 
ATOM     14  H   UNL     1       1.770   8.480  17.306  0.00  0.00    +0.000 HD
BRANCH  13  15
ATOM     15  C   UNL     1       1.078  10.069  18.472  0.00  0.00    +0.000 A 
ATOM     16  C   UNL     1       1.816  11.255  18.549  0.00  0.00    +0.000 A 
ATOM     17  C   UNL     1       1.188  12.486  18.779  0.00  0.00    +0.000 A 
ATOM     18  C   UNL     1      -0.197  12.545  18.941  0.00  0.00    +0.000 A 
ATOM     19  C   UNL     1      -0.942  11.363  18.872  0.00  0.00    +0.000 A 
ATOM     20  C   UNL     1      -0.316  10.133  18.617  0.00  0.00    +0.000 A 
BRANCH  18  21
ATOM     21  C   UNL     1      -0.863  13.856  19.182  0.00  0.00    +0.000 C 
ATOM     22  N   UNL     1      -1.884  13.995  19.971  0.00  0.00    +0.000 NA
ATOM     23  N   UNL     1      -0.419  14.994  18.579  0.00  0.00    +0.000 N 
ATOM     24  H   UNL     1      -2.195  13.096  20.343  0.00  0.00    +0.000 HD
ATOM     25  H   UNL     1       0.582  15.082  18.460  0.00  0.00    +0.000 HD
ATOM     26  H   UNL     1      -0.833  15.810  19.018  0.00  0.00    +0.000 HD
ENDBRANCH  18  21
ENDBRANCH  13  15
ENDBRANCH   3  11
BRANCH   5  27
ATOM     27  C   UNL     1       2.497   2.744  19.427  0.00  0.00    +0.000 C 
ATOM     28  C   UNL     1       1.045   2.444  18.997  0.00  0.00    +0.000 C 
ATOM     29  C   UNL     1       3.430   1.679  18.780  0.00  0.00    +0.000 C 
ATOM     30  C   UNL     1       2.593   2.498  20.945  0.00  0.00    +0.000 C 
ENDBRANCH   5  27
BRANCH   4  31
ATOM     31  O   UNL     1       1.315   5.353  20.380  0.00  0.00    +0.000 OA
ATOM     32  H   UNL     1       1.779   5.681  21.174  0.00  0.00    +0.000 HD
ENDBRANCH   4  31
TORSDOF 6
ENDMDL
MODEL 7
REMARK VINA RESULT:      -8.1      0.085      1.185
REMARK  Name = 
REMARK  12 active torsions:
REMARK  status: ('A' for Active; 'I' for Inactive)
REMARK    1  A    between atoms: C_1  and  C_2
REMARK    2  A    between atoms: C_2  and  C_3
REMARK    3  A    between atoms: C_2  and  C_4
REMARK    4  A    between atoms: C_2  and  C_5
REMARK    5  A    between atoms: C_7  and  C_8
REMARK    6  A    between atoms: N_10  and  C_11
REMARK    7  A    between atoms: C_14  and  C_15
REMARK    8  A    between atoms: C_20  and  O_21
REMARK    9  A    between atoms: C_22  and  C_23
REMARK   10  A    between atoms: C_23  and  C_24
REMARK   11  A    between atoms: C_23  and  C_25
REMARK   12  A    between atoms: C_23  and  C_26
REMARK                            x       y       z     vdW  Elec       q    Type
REMARK                         _______ _______ _______ _____ _____    ______ ____
ROOT
ATOM      1  C   UNL     1       4.382   5.484  17.375  0.00  0.00    +0.000 A 
ATOM      2  C   UNL     1       3.736   6.634  17.843  0.00  0.00    +0.000 A 
ATOM      3  C   UNL     1       2.681   6.553  18.776  0.00  0.00    +0.000 A 
ATOM      4  C   UNL     1       2.291   5.300  19.285  0.00  0.00    +0.000 A 
ATOM      5  C   UNL     1       2.915   4.112  18.858  0.00  0.00    +0.000 A 
ATOM      6  C   UNL     1       3.941   4.261  17.898  0.00  0.00    +0.000 A 
ENDROOT
BRANCH   1   8
ATOM      7  C   UNL     1       5.637   4.202  15.589  0.00  0.00    +0.000 C 
ATOM      8  C   UNL     1       5.502   5.554  16.319  0.00  0.00    +0.000 C 
ATOM      9  C   UNL     1       6.837   5.899  17.008  0.00  0.00    +0.000 C 
ATOM     10  C   UNL     1       5.260   6.631  15.230  0.00  0.00    +0.000 C 
ENDBRANCH   1   8
BRANCH   3  11
ATOM     11  C   UNL     1       2.087   7.848  19.201  0.00  0.00    +0.000 C 
ATOM     12  O   UNL     1       1.878   8.010  20.403  0.00  0.00    +0.000 OA
ATOM     13  N   UNL     1       1.767   8.763  18.197  0.00  0.00    +0.000 N 
ATOM     14  H   UNL     1       1.883   8.441  17.242  0.00  0.00    +0.000 HD
BRANCH  13  15
ATOM     15  C   UNL     1       1.155  10.015  18.408  0.00  0.00    +0.000 A 
ATOM     16  C   UNL     1       1.891  11.198  18.531  0.00  0.00    +0.000 A 
ATOM     17  C   UNL     1       1.257  12.426  18.758  0.00  0.00    +0.000 A 
ATOM     18  C   UNL     1      -0.134  12.485  18.870  0.00  0.00    +0.000 A 
ATOM     19  C   UNL     1      -0.877  11.305  18.755  0.00  0.00    +0.000 A 
ATOM     20  C   UNL     1      -0.243  10.079  18.503  0.00  0.00    +0.000 A 
BRANCH  18  21
ATOM     21  C   UNL     1      -0.807  13.793  19.108  0.00  0.00    +0.000 C 
ATOM     22  N   UNL     1      -0.415  14.900  18.557  0.00  0.00    +0.000 NA
ATOM     23  N   UNL     1      -1.892  13.889  19.926  0.00  0.00    +0.000 N 
ATOM     24  H   UNL     1       0.432  14.763  18.003  0.00  0.00    +0.000 HD
ATOM     25  H   UNL     1      -2.542  13.113  19.908  0.00  0.00    +0.000 HD
ATOM     26  H   UNL     1      -2.350  14.786  19.800  0.00  0.00    +0.000 HD
ENDBRANCH  18  21
ENDBRANCH  13  15
ENDBRANCH   3  11
BRANCH   5  27
ATOM     27  C   UNL     1       2.524   2.675  19.284  0.00  0.00    +0.000 C 
ATOM     28  C   UNL     1       2.642   2.569  20.820  0.00  0.00    +0.000 C 
ATOM     29  C   UNL     1       1.057   2.343  18.881  0.00  0.00    +0.000 C 
ATOM     30  C   UNL     1       3.377   1.546  18.673  0.00  0.00    +0.000 C 
ENDBRANCH   5  27
BRANCH   4  31
ATOM     31  O   UNL     1       1.312   5.270  20.236  0.00  0.00    +0.000 OA
ATOM     32  H   UNL     1       1.012   4.341  20.264  0.00  0.00    +0.000 HD
ENDBRANCH   4  31
TORSDOF 6
ENDMDL
MODEL 8
REMARK VINA RESULT:      -8.1      0.129      1.118
REMARK  Name = 
REMARK  12 active torsions:
REMARK  status: ('A' for Active; 'I' for Inactive)
REMARK    1  A    between atoms: C_1  and  C_2
REMARK    2  A    between atoms: C_2  and  C_3
REMARK    3  A    between atoms: C_2  and  C_4
REMARK    4  A    between atoms: C_2  and  C_5
REMARK    5  A    between atoms: C_7  and  C_8
REMARK    6  A    between atoms: N_10  and  C_11
REMARK    7  A    between atoms: C_14  and  C_15
REMARK    8  A    between atoms: C_20  and  O_21
REMARK    9  A    between atoms: C_22  and  C_23
REMARK   10  A    between atoms: C_23  and  C_24
REMARK   11  A    between atoms: C_23  and  C_25
REMARK   12  A    between atoms: C_23  and  C_26
REMARK                            x       y       z     vdW  Elec       q    Type
REMARK                         _______ _______ _______ _____ _____    ______ ____
ROOT
ATOM      1  C   UNL     1       4.376   5.605  17.449  0.00  0.00    +0.000 A 
ATOM      2  C   UNL     1       3.713   6.738  17.935  0.00  0.00    +0.000 A 
ATOM      3  C   UNL     1       2.642   6.626  18.846  0.00  0.00    +0.000 A 
ATOM      4  C   UNL     1       2.251   5.358  19.314  0.00  0.00    +0.000 A 
ATOM      5  C   UNL     1       2.890   4.185  18.867  0.00  0.00    +0.000 A 
ATOM      6  C   UNL     1       3.933   4.366  17.930  0.00  0.00    +0.000 A 
ENDROOT
BRANCH   1   8
ATOM      7  C   UNL     1       6.806   6.216  17.088  0.00  0.00    +0.000 C 
ATOM      8  C   UNL     1       5.513   5.710  16.416  0.00  0.00    +0.000 C 
ATOM      9  C   UNL     1       5.103   6.687  15.296  0.00  0.00    +0.000 C 
ATOM     10  C   UNL     1       5.859   4.360  15.736  0.00  0.00    +0.000 C 
ENDBRANCH   1   8
BRANCH   3  11
ATOM     11  C   UNL     1       2.033   7.906  19.295  0.00  0.00    +0.000 C 
ATOM     12  O   UNL     1       1.866   8.063  20.504  0.00  0.00    +0.000 OA
ATOM     13  N   UNL     1       1.651   8.813  18.304  0.00  0.00    +0.000 N 
ATOM     14  H   UNL     1       1.739   8.494  17.346  0.00  0.00    +0.000 HD
BRANCH  13  15
ATOM     15  C   UNL     1       1.017  10.049  18.540  0.00  0.00    +0.000 A 
ATOM     16  C   UNL     1      -0.358  10.153  18.772  0.00  0.00    +0.000 A 
ATOM     17  C   UNL     1      -0.965  11.397  18.988  0.00  0.00    +0.000 A 
ATOM     18  C   UNL     1      -0.196  12.563  18.968  0.00  0.00    +0.000 A 
ATOM     19  C   UNL     1       1.179  12.467  18.730  0.00  0.00    +0.000 A 
ATOM     20  C   UNL     1       1.790  11.219  18.540  0.00  0.00    +0.000 A 
BRANCH  18  21
ATOM     21  C   UNL     1      -0.843  13.885  19.201  0.00  0.00    +0.000 C 
ATOM     22  N   UNL     1      -1.852  14.047  19.999  0.00  0.00    +0.000 NA
ATOM     23  N   UNL     1      -0.390  15.010  18.580  0.00  0.00    +0.000 N 
ATOM     24  H   UNL     1      -2.171  13.157  20.385  0.00  0.00    +0.000 HD
ATOM     25  H   UNL     1       0.611  15.083  18.449  0.00  0.00    +0.000 HD
ATOM     26  H   UNL     1      -0.789  15.837  19.013  0.00  0.00    +0.000 HD
ENDBRANCH  18  21
ENDBRANCH  13  15
ENDBRANCH   3  11
BRANCH   5  27
ATOM     27  C   UNL     1       2.500   2.735  19.247  0.00  0.00    +0.000 C 
ATOM     28  C   UNL     1       3.453   1.764  18.518  0.00  0.00    +0.000 C 
ATOM     29  C   UNL     1       2.633   2.495  20.780  0.00  0.00    +0.000 C 
ATOM     30  C   UNL     1       1.057   2.321  18.897  0.00  0.00    +0.000 C 
ENDBRANCH   5  27
BRANCH   4  31
ATOM     31  O   UNL     1       1.255   5.297  20.246  0.00  0.00    +0.000 OA
ATOM     32  H   UNL     1       1.273   4.378  20.579  0.00  0.00    +0.000 HD
ENDBRANCH   4  31
TORSDOF 6
ENDMDL
MODEL 9
REMARK VINA RESULT:      -8.0      0.892      3.646
REMARK  Name = 
REMARK  12 active torsions:
REMARK  status: ('A' for Active; 'I' for Inactive)
REMARK    1  A    between atoms: C_1  and  C_2
REMARK    2  A    between atoms: C_2  and  C_3
REMARK    3  A    between atoms: C_2  and  C_4
REMARK    4  A    between atoms: C_2  and  C_5
REMARK    5  A    between atoms: C_7  and  C_8
REMARK    6  A    between atoms: N_10  and  C_11
REMARK    7  A    between atoms: C_14  and  C_15
REMARK    8  A    between atoms: C_20  and  O_21
REMARK    9  A    between atoms: C_22  and  C_23
REMARK   10  A    between atoms: C_23  and  C_24
REMARK   11  A    between atoms: C_23  and  C_25
REMARK   12  A    between atoms: C_23  and  C_26
REMARK                            x       y       z     vdW  Elec       q    Type
REMARK                         _______ _______ _______ _____ _____    ______ ____
ROOT
ATOM      1  C   UNL     1       2.809   4.058  18.629  0.00  0.00    +0.000 A 
ATOM      2  C   UNL     1       2.285   5.300  19.008  0.00  0.00    +0.000 A 
ATOM      3  C   UNL     1       2.838   6.505  18.529  0.00  0.00    +0.000 A 
ATOM      4  C   UNL     1       3.909   6.470  17.616  0.00  0.00    +0.000 A 
ATOM      5  C   UNL     1       4.467   5.249  17.192  0.00  0.00    +0.000 A 
ATOM      6  C   UNL     1       3.889   4.080  17.737  0.00  0.00    +0.000 A 
ENDROOT
BRANCH   1   8
ATOM      7  C   UNL     1       2.291   2.739  20.726  0.00  0.00    +0.000 C 
ATOM      8  C   UNL     1       2.248   2.735  19.185  0.00  0.00    +0.000 C 
ATOM      9  C   UNL     1       3.088   1.557  18.653  0.00  0.00    +0.000 C 
ATOM     10  C   UNL     1       0.777   2.466  18.777  0.00  0.00    +0.000 C 
ENDBRANCH   1   8
BRANCH   3  11
ATOM     11  C   UNL     1       2.182   7.754  18.997  0.00  0.00    +0.000 C 
ATOM     12  O   UNL     1       1.936   7.851  20.199  0.00  0.00    +0.000 OA
ATOM     13  N   UNL     1       1.850   8.703  18.028  0.00  0.00    +0.000 N 
ATOM     14  H   UNL     1       2.004   8.432  17.063  0.00  0.00    +0.000 HD
BRANCH  13  15
ATOM     15  C   UNL     1       1.183   9.919  18.281  0.00  0.00    +0.000 A 
ATOM     16  C   UNL     1       1.868  11.111  18.538  0.00  0.00    +0.000 A 
ATOM     17  C   UNL     1       1.179  12.300  18.802  0.00  0.00    +0.000 A 
ATOM     18  C   UNL     1      -0.217  12.311  18.818  0.00  0.00    +0.000 A 
ATOM     19  C   UNL     1      -0.910  11.121  18.569  0.00  0.00    +0.000 A 
ATOM     20  C   UNL     1      -0.220   9.935  18.279  0.00  0.00    +0.000 A 
BRANCH  18  21
ATOM     21  C   UNL     1      -0.950  13.579  19.097  0.00  0.00    +0.000 C 
ATOM     22  N   UNL     1      -2.041  13.625  19.796  0.00  0.00    +0.000 NA
ATOM     23  N   UNL     1      -0.494  14.774  18.628  0.00  0.00    +0.000 N 
ATOM     24  H   UNL     1      -2.352  12.690  20.067  0.00  0.00    +0.000 HD
ATOM     25  H   UNL     1       0.510  14.900  18.609  0.00  0.00    +0.000 HD
ATOM     26  H   UNL     1      -0.976  15.540  19.088  0.00  0.00    +0.000 HD
ENDBRANCH  18  21
ENDBRANCH  13  15
ENDBRANCH   3  11
BRANCH   5  27
ATOM     27  C   UNL     1       5.692   5.084  16.258  0.00  0.00    +0.000 C 
ATOM     28  C   UNL     1       5.899   3.580  15.981  0.00  0.00    +0.000 C 
ATOM     29  C   UNL     1       5.470   5.807  14.897  0.00  0.00    +0.000 C 
ATOM     30  C   UNL     1       7.022   5.645  16.801  0.00  0.00    +0.000 C 
ENDBRANCH   5  27
BRANCH   4  31
ATOM     31  O   UNL     1       4.371   7.657  17.123  0.00  0.00    +0.000 OA
ATOM     32  H   UNL     1       5.340   7.621  17.242  0.00  0.00    +0.000 HD
ENDBRANCH   4  31
TORSDOF 6
ENDMDL
