MODEL 1
REMARK VINA RESULT:      -7.6      0.000      0.000
REMARK  Name = 
REMARK  4 active torsions:
REMARK  status: ('A' for Active; 'I' for Inactive)
REMARK    1  A    between atoms: N_7  and  C_8
REMARK    2  A    between atoms: C_8  and  C_9
REMARK    3  A    between atoms: C_9  and  C_10
REMARK    4  A    between atoms: C_20  and  C_21
REMARK                            x       y       z     vdW  Elec       q    Type
REMARK                         _______ _______ _______ _____ _____    ______ ____
ROOT
ATOM      1  O   UNL     1       2.069   3.263  18.887  0.00  0.00    +0.000 OA
ATOM      2  C   UNL     1       2.717   4.216  18.486  0.00  0.00    +0.000 C 
ATOM      3  C   UNL     1       2.041   5.377  17.856  0.00  0.00    +0.000 C 
ATOM      4  C   UNL     1       2.386   6.636  18.701  0.00  0.00    +0.000 C 
ATOM      5  C   UNL     1       1.993   7.885  17.880  0.00  0.00    +0.000 C 
ATOM      6  C   UNL     1       2.136   9.168  18.732  0.00  0.00    +0.000 C 
ATOM      7  N   UNL     1       1.330   9.100  19.975  0.00  0.00    +0.000 NA
ATOM      8  C   UNL     1       1.768   7.934  20.782  0.00  0.00    +0.000 C 
ATOM      9  C   UNL     1       1.562   6.619  20.022  0.00  0.00    +0.000 C 
ATOM     10  O   UNL     1       3.796   6.752  18.962  0.00  0.00    +0.000 OA
ATOM     11  C   UNL     1       4.363   5.612  19.601  0.00  0.00    +0.000 C 
ATOM     12  C   UNL     1       4.191   4.341  18.760  0.00  0.00    +0.000 C 
ENDROOT
BRANCH  12  13
ATOM     13  C   UNL     1       5.059   4.387  17.497  0.00  0.00    +0.000 A 
ATOM     14  C   UNL     1       6.421   4.714  17.621  0.00  0.00    +0.000 A 
ATOM     15  C   UNL     1       7.247   4.777  16.495  0.00  0.00    +0.000 A 
ATOM     16  C   UNL     1       6.728   4.511  15.226  0.00  0.00    +0.000 A 
ATOM     17  F   UNL     1       7.529   4.567  14.133  0.00  0.00    +0.000 F 
ATOM     18  C   UNL     1       5.379   4.196  15.081  0.00  0.00    +0.000 A 
ATOM     19  C   UNL     1       4.550   4.141  16.199  0.00  0.00    +0.000 A 
ENDBRANCH  12  13
BRANCH   7  20
ATOM     20  C   UNL     1      -0.125   9.132  19.668  0.00  0.00    +0.000 C 
BRANCH  20  21
ATOM     21  C   UNL     1      -0.698  10.556  19.537  0.00  0.00    +0.000 C 
BRANCH  21  22
ATOM     22  C   UNL     1      -1.723  10.623  18.438  0.00  0.00    +0.000 A 
ATOM     23  C   UNL     1      -1.585   9.825  17.283  0.00  0.00    +0.000 A 
ATOM     24  C   UNL     1      -2.542   9.881  16.269  0.00  0.00    +0.000 A 
ATOM     25  C   UNL     1      -3.647  10.726  16.398  0.00  0.00    +0.000 A 
ATOM     26  C   UNL     1      -3.794  11.516  17.542  0.00  0.00    +0.000 A 
ATOM     27  C   UNL     1      -2.837  11.465  18.559  0.00  0.00    +0.000 A 
ENDBRANCH  21  22
ENDBRANCH  20  21
ENDBRANCH   7  20
TORSDOF 4
ENDMDL
MODEL 2
REMARK VINA RESULT:      -7.2      4.567      9.376
REMARK  Name = 
REMARK  4 active torsions:
REMARK  status: ('A' for Active; 'I' for Inactive)
REMARK    1  A    between atoms: N_7  and  C_8
REMARK    2  A    between atoms: C_8  and  C_9
REMARK    3  A    between atoms: C_9  and  C_10
REMARK    4  A    between atoms: C_20  and  C_21
REMARK                            x       y       z     vdW  Elec       q    Type
REMARK                         _______ _______ _______ _____ _____    ______ ____
ROOT
ATOM      1  O   UNL     1      -2.592  11.746  17.438  0.00  0.00    +0.000 OA
ATOM      2  C   UNL     1      -2.088  11.520  18.526  0.00  0.00    +0.000 C 
ATOM      3  C   UNL     1      -1.719  10.136  18.914  0.00  0.00    +0.000 C 
ATOM      4  C   UNL     1      -0.191  10.120  19.201  0.00  0.00    +0.000 C 
ATOM      5  C   UNL     1       0.145   8.802  19.933  0.00  0.00    +0.000 C 
ATOM      6  C   UNL     1       1.676   8.633  20.085  0.00  0.00    +0.000 C 
ATOM      7  N   UNL     1       2.369   8.679  18.775  0.00  0.00    +0.000 NA
ATOM      8  C   UNL     1       2.091   9.979  18.116  0.00  0.00    +0.000 C 
ATOM      9  C   UNL     1       0.591  10.164  17.855  0.00  0.00    +0.000 C 
ATOM     10  O   UNL     1       0.214  11.185  20.078  0.00  0.00    +0.000 OA
ATOM     11  C   UNL     1      -0.144  12.485  19.619  0.00  0.00    +0.000 C 
ATOM     12  C   UNL     1      -1.661  12.632  19.446  0.00  0.00    +0.000 C 
ENDROOT
BRANCH  12  13
ATOM     13  C   UNL     1      -2.378  12.631  20.800  0.00  0.00    +0.000 A 
ATOM     14  C   UNL     1      -3.774  12.804  20.829  0.00  0.00    +0.000 A 
ATOM     15  C   UNL     1      -4.469  12.819  22.042  0.00  0.00    +0.000 A 
ATOM     16  C   UNL     1      -3.782  12.659  23.248  0.00  0.00    +0.000 A 
ATOM     17  F   UNL     1      -4.455  12.669  24.425  0.00  0.00    +0.000 F 
ATOM     18  C   UNL     1      -2.399  12.498  23.241  0.00  0.00    +0.000 A 
ATOM     19  C   UNL     1      -1.702  12.491  22.035  0.00  0.00    +0.000 A 
ENDBRANCH  12  13
BRANCH   7  20
ATOM     20  C   UNL     1       2.039   7.483  17.954  0.00  0.00    +0.000 C 
BRANCH  20  21
ATOM     21  C   UNL     1       2.982   6.289  18.194  0.00  0.00    +0.000 C 
BRANCH  21  22
ATOM     22  C   UNL     1       2.239   5.135  18.810  0.00  0.00    +0.000 A 
ATOM     23  C   UNL     1       1.692   4.122  17.997  0.00  0.00    +0.000 A 
ATOM     24  C   UNL     1       1.012   3.047  18.572  0.00  0.00    +0.000 A 
ATOM     25  C   UNL     1       0.877   2.969  19.959  0.00  0.00    +0.000 A 
ATOM     26  C   UNL     1       1.422   3.966  20.773  0.00  0.00    +0.000 A 
ATOM     27  C   UNL     1       2.101   5.045  20.203  0.00  0.00    +0.000 A 
ENDBRANCH  21  22
ENDBRANCH  20  21
ENDBRANCH   7  20
TORSDOF 4
ENDMDL
MODEL 3
REMARK VINA RESULT:      -7.1      4.509      9.311
REMARK  Name = 
REMARK  4 active torsions:
REMARK  status: ('A' for Active; 'I' for Inactive)
REMARK    1  A    between atoms: N_7  and  C_8
REMARK    2  A    between atoms: C_8  and  C_9
REMARK    3  A    between atoms: C_9  and  C_10
REMARK    4  A    between atoms: C_20  and  C_21
REMARK                            x       y       z     vdW  Elec       q    Type
REMARK                         _______ _______ _______ _____ _____    ______ ____
ROOT
ATOM      1  O   UNL     1      -2.395  11.672  17.491  0.00  0.00    +0.000 OA
ATOM      2  C   UNL     1      -1.833  11.498  18.561  0.00  0.00    +0.000 C 
ATOM      3  C   UNL     1      -1.555  10.125  19.053  0.00  0.00    +0.000 C 
ATOM      4  C   UNL     1      -0.016   9.995  19.238  0.00  0.00    +0.000 C 
ATOM      5  C   UNL     1       0.260   8.722  20.067  0.00  0.00    +0.000 C 
ATOM      6  C   UNL     1       1.777   8.428  20.133  0.00  0.00    +0.000 C 
ATOM      7  N   UNL     1       2.373   8.296  18.782  0.00  0.00    +0.000 NA
ATOM      8  C   UNL     1       2.158   9.553  18.024  0.00  0.00    +0.000 C 
ATOM      9  C   UNL     1       0.665   9.849  17.845  0.00  0.00    +0.000 C 
ATOM     10  O   UNL     1       0.541  11.093  19.983  0.00  0.00    +0.000 OA
ATOM     11  C   UNL     1       0.261  12.374  19.427  0.00  0.00    +0.000 C 
ATOM     12  C   UNL     1      -1.246  12.642  19.342  0.00  0.00    +0.000 C 
ENDROOT
BRANCH  12  13
ATOM     13  C   UNL     1      -1.860  12.826  20.734  0.00  0.00    +0.000 A 
ATOM     14  C   UNL     1      -1.004  13.039  21.831  0.00  0.00    +0.000 A 
ATOM     15  C   UNL     1      -1.519  13.202  23.120  0.00  0.00    +0.000 A 
ATOM     16  C   UNL     1      -2.898  13.159  23.337  0.00  0.00    +0.000 A 
ATOM     17  F   UNL     1      -3.399  13.321  24.586  0.00  0.00    +0.000 F 
ATOM     18  C   UNL     1      -3.761  12.937  22.267  0.00  0.00    +0.000 A 
ATOM     19  C   UNL     1      -3.252  12.766  20.982  0.00  0.00    +0.000 A 
ENDBRANCH  12  13
BRANCH   7  20
ATOM     20  C   UNL     1       1.884   7.068  18.101  0.00  0.00    +0.000 C 
BRANCH  20  21
ATOM     21  C   UNL     1       2.845   5.869  18.220  0.00  0.00    +0.000 C 
BRANCH  21  22
ATOM     22  C   UNL     1       2.289   4.827  19.152  0.00  0.00    +0.000 A 
ATOM     23  C   UNL     1       2.612   4.849  20.524  0.00  0.00    +0.000 A 
ATOM     24  C   UNL     1       2.087   3.887  21.387  0.00  0.00    +0.000 A 
ATOM     25  C   UNL     1       1.231   2.900  20.895  0.00  0.00    +0.000 A 
ATOM     26  C   UNL     1       0.901   2.874  19.537  0.00  0.00    +0.000 A 
ATOM     27  C   UNL     1       1.426   3.834  18.667  0.00  0.00    +0.000 A 
ENDBRANCH  21  22
ENDBRANCH  20  21
ENDBRANCH   7  20
TORSDOF 4
ENDMDL
MODEL 4
REMARK VINA RESULT:      -7.0      3.281      5.691
REMARK  Name = 
REMARK  4 active torsions:
REMARK  status: ('A' for Active; 'I' for Inactive)
REMARK    1  A    between atoms: N_7  and  C_8
REMARK    2  A    between atoms: C_8  and  C_9
REMARK    3  A    between atoms: C_9  and  C_10
REMARK    4  A    between atoms: C_20  and  C_21
REMARK                            x       y       z     vdW  Elec       q    Type
REMARK                         _______ _______ _______ _____ _____    ______ ____
ROOT
ATOM      1  O   UNL     1       0.970  10.426  21.784  0.00  0.00    +0.000 OA
ATOM      2  C   UNL     1       0.706   9.794  20.774  0.00  0.00    +0.000 C 
ATOM      3  C   UNL     1      -0.702   9.473  20.431  0.00  0.00    +0.000 C 
ATOM      4  C   UNL     1      -1.003  10.103  19.041  0.00  0.00    +0.000 C 
ATOM      5  C   UNL     1      -2.322   9.495  18.515  0.00  0.00    +0.000 C 
ATOM      6  C   UNL     1      -2.779  10.212  17.222  0.00  0.00    +0.000 C 
ATOM      7  N   UNL     1      -2.937  11.672  17.427  0.00  0.00    +0.000 NA
ATOM      8  C   UNL     1      -1.643  12.250  17.866  0.00  0.00    +0.000 C 
ATOM      9  C   UNL     1      -1.182  11.642  19.196  0.00  0.00    +0.000 C 
ATOM     10  O   UNL     1       0.006   9.787  18.066  0.00  0.00    +0.000 OA
ATOM     11  C   UNL     1       1.325  10.159  18.453  0.00  0.00    +0.000 C 
ATOM     12  C   UNL     1       1.758   9.464  19.750  0.00  0.00    +0.000 C 
ENDROOT
BRANCH  12  13
ATOM     13  C   UNL     1       1.967   7.961  19.533  0.00  0.00    +0.000 A 
ATOM     14  C   UNL     1       1.745   7.083  20.610  0.00  0.00    +0.000 A 
ATOM     15  C   UNL     1       1.933   5.706  20.460  0.00  0.00    +0.000 A 
ATOM     16  C   UNL     1       2.343   5.181  19.232  0.00  0.00    +0.000 A 
ATOM     17  F   UNL     1       2.521   3.845  19.084  0.00  0.00    +0.000 F 
ATOM     18  C   UNL     1       2.579   6.035  18.158  0.00  0.00    +0.000 A 
ATOM     19  C   UNL     1       2.401   7.409  18.305  0.00  0.00    +0.000 A 
ENDBRANCH  12  13
BRANCH   7  20
ATOM     20  C   UNL     1      -4.085  11.963  18.325  0.00  0.00    +0.000 C 
BRANCH  20  21
ATOM     21  C   UNL     1      -5.430  11.416  17.809  0.00  0.00    +0.000 C 
BRANCH  21  22
ATOM     22  C   UNL     1      -6.274  10.909  18.946  0.00  0.00    +0.000 A 
ATOM     23  C   UNL     1      -6.741  11.794  19.939  0.00  0.00    +0.000 A 
ATOM     24  C   UNL     1      -7.533  11.322  20.988  0.00  0.00    +0.000 A 
ATOM     25  C   UNL     1      -7.871   9.969  21.053  0.00  0.00    +0.000 A 
ATOM     26  C   UNL     1      -7.417   9.086  20.069  0.00  0.00    +0.000 A 
ATOM     27  C   UNL     1      -6.622   9.553  19.019  0.00  0.00    +0.000 A 
ENDBRANCH  21  22
ENDBRANCH  20  21
ENDBRANCH   7  20
TORSDOF 4
ENDMDL
MODEL 5
REMARK VINA RESULT:      -7.0      1.731      2.401
REMARK  Name = 
REMARK  4 active torsions:
REMARK  status: ('A' for Active; 'I' for Inactive)
REMARK    1  A    between atoms: N_7  and  C_8
REMARK    2  A    between atoms: C_8  and  C_9
REMARK    3  A    between atoms: C_9  and  C_10
REMARK    4  A    between atoms: C_20  and  C_21
REMARK                            x       y       z     vdW  Elec       q    Type
REMARK                         _______ _______ _______ _____ _____    ______ ____
ROOT
ATOM      1  O   UNL     1       2.128   2.338  17.468  0.00  0.00    +0.000 OA
ATOM      2  C   UNL     1       2.823   3.341  17.502  0.00  0.00    +0.000 C 
ATOM      3  C   UNL     1       2.206   4.689  17.432  0.00  0.00    +0.000 C 
ATOM      4  C   UNL     1       2.600   5.453  18.728  0.00  0.00    +0.000 C 
ATOM      5  C   UNL     1       2.271   6.948  18.520  0.00  0.00    +0.000 C 
ATOM      6  C   UNL     1       2.464   7.740  19.835  0.00  0.00    +0.000 C 
ATOM      7  N   UNL     1       1.644   7.187  20.939  0.00  0.00    +0.000 NA
ATOM      8  C   UNL     1       2.021   5.770  21.170  0.00  0.00    +0.000 C 
ATOM      9  C   UNL     1       1.763   4.913  19.926  0.00  0.00    +0.000 C 
ATOM     10  O   UNL     1       4.011   5.383  18.999  0.00  0.00    +0.000 OA
ATOM     11  C   UNL     1       4.520   4.056  19.087  0.00  0.00    +0.000 C 
ATOM     12  C   UNL     1       4.299   3.272  17.788  0.00  0.00    +0.000 C 
ENDROOT
BRANCH  12  13
ATOM     13  C   UNL     1       5.179   3.810  16.654  0.00  0.00    +0.000 A 
ATOM     14  C   UNL     1       6.429   4.372  16.974  0.00  0.00    +0.000 A 
ATOM     15  C   UNL     1       7.260   4.884  15.973  0.00  0.00    +0.000 A 
ATOM     16  C   UNL     1       6.859   4.842  14.636  0.00  0.00    +0.000 A 
ATOM     17  F   UNL     1       7.666   5.334  13.664  0.00  0.00    +0.000 F 
ATOM     18  C   UNL     1       5.621   4.301  14.301  0.00  0.00    +0.000 A 
ATOM     19  C   UNL     1       4.785   3.797  15.295  0.00  0.00    +0.000 A 
ENDBRANCH  12  13
BRANCH   7  20
ATOM     20  C   UNL     1       0.195   7.412  20.692  0.00  0.00    +0.000 C 
BRANCH  20  21
ATOM     21  C   UNL     1      -0.376   8.638  21.429  0.00  0.00    +0.000 C 
BRANCH  21  22
ATOM     22  C   UNL     1      -0.129   9.898  20.645  0.00  0.00    +0.000 A 
ATOM     23  C   UNL     1       0.745  10.887  21.138  0.00  0.00    +0.000 A 
ATOM     24  C   UNL     1       0.981  12.050  20.403  0.00  0.00    +0.000 A 
ATOM     25  C   UNL     1       0.353  12.235  19.170  0.00  0.00    +0.000 A 
ATOM     26  C   UNL     1      -0.512  11.257  18.671  0.00  0.00    +0.000 A 
ATOM     27  C   UNL     1      -0.752  10.092  19.403  0.00  0.00    +0.000 A 
ENDBRANCH  21  22
ENDBRANCH  20  21
ENDBRANCH   7  20
TORSDOF 4
ENDMDL
MODEL 6
REMARK VINA RESULT:      -6.9      2.001      2.660
REMARK  Name = 
REMARK  4 active torsions:
REMARK  status: ('A' for Active; 'I' for Inactive)
REMARK    1  A    between atoms: N_7  and  C_8
REMARK    2  A    between atoms: C_8  and  C_9
REMARK    3  A    between atoms: C_9  and  C_10
REMARK    4  A    between atoms: C_20  and  C_21
REMARK                            x       y       z     vdW  Elec       q    Type
REMARK                         _______ _______ _______ _____ _____    ______ ____
ROOT
ATOM      1  O   UNL     1       2.149   2.464  17.458  0.00  0.00    +0.000 OA
ATOM      2  C   UNL     1       2.853   3.458  17.522  0.00  0.00    +0.000 C 
ATOM      3  C   UNL     1       2.252   4.814  17.457  0.00  0.00    +0.000 C 
ATOM      4  C   UNL     1       2.627   5.556  18.772  0.00  0.00    +0.000 C 
ATOM      5  C   UNL     1       2.318   7.057  18.578  0.00  0.00    +0.000 C 
ATOM      6  C   UNL     1       2.492   7.829  19.908  0.00  0.00    +0.000 C 
ATOM      7  N   UNL     1       1.642   7.269  20.986  0.00  0.00    +0.000 NA
ATOM      8  C   UNL     1       1.999   5.846  21.206  0.00  0.00    +0.000 C 
ATOM      9  C   UNL     1       1.759   5.009  19.944  0.00  0.00    +0.000 C 
ATOM     10  O   UNL     1       4.031   5.466  19.072  0.00  0.00    +0.000 OA
ATOM     11  C   UNL     1       4.524   4.133  19.152  0.00  0.00    +0.000 C 
ATOM     12  C   UNL     1       4.322   3.369  17.837  0.00  0.00    +0.000 C 
ENDROOT
BRANCH  12  13
ATOM     13  C   UNL     1       5.232   3.914  16.731  0.00  0.00    +0.000 A 
ATOM     14  C   UNL     1       4.809   3.813  15.392  0.00  0.00    +0.000 A 
ATOM     15  C   UNL     1       5.611   4.288  14.351  0.00  0.00    +0.000 A 
ATOM     16  C   UNL     1       6.848   4.875  14.627  0.00  0.00    +0.000 A 
ATOM     17  F   UNL     1       7.624   5.340  13.617  0.00  0.00    +0.000 F 
ATOM     18  C   UNL     1       7.289   4.973  15.943  0.00  0.00    +0.000 A 
ATOM     19  C   UNL     1       6.498   4.494  16.984  0.00  0.00    +0.000 A 
ENDBRANCH  12  13
BRANCH   7  20
ATOM     20  C   UNL     1       0.201   7.513  20.711  0.00  0.00    +0.000 C 
BRANCH  20  21
ATOM     21  C   UNL     1      -0.483   8.419  21.753  0.00  0.00    +0.000 C 
BRANCH  21  22
ATOM     22  C   UNL     1      -0.408   9.863  21.339  0.00  0.00    +0.000 A 
ATOM     23  C   UNL     1      -0.284  10.211  19.978  0.00  0.00    +0.000 A 
ATOM     24  C   UNL     1      -0.226  11.552  19.596  0.00  0.00    +0.000 A 
ATOM     25  C   UNL     1      -0.296  12.557  20.563  0.00  0.00    +0.000 A 
ATOM     26  C   UNL     1      -0.424  12.221  21.914  0.00  0.00    +0.000 A 
ATOM     27  C   UNL     1      -0.481  10.880  22.302  0.00  0.00    +0.000 A 
ENDBRANCH  21  22
ENDBRANCH  20  21
ENDBRANCH   7  20
TORSDOF 4
ENDMDL
MODEL 7
REMARK VINA RESULT:      -6.8      4.708      9.547
REMARK  Name = 
REMARK  4 active torsions:
REMARK  status: ('A' for Active; 'I' for Inactive)
REMARK    1  A    between atoms: N_7  and  C_8
REMARK    2  A    between atoms: C_8  and  C_9
REMARK    3  A    between atoms: C_9  and  C_10
REMARK    4  A    between atoms: C_20  and  C_21
REMARK                            x       y       z     vdW  Elec       q    Type
REMARK                         _______ _______ _______ _____ _____    ______ ____
ROOT
ATOM      1  O   UNL     1      -2.862  11.152  16.691  0.00  0.00    +0.000 OA
ATOM      2  C   UNL     1      -2.527  11.164  17.864  0.00  0.00    +0.000 C 
ATOM      3  C   UNL     1      -2.080   9.917  18.534  0.00  0.00    +0.000 C 
ATOM      4  C   UNL     1      -0.629  10.151  19.042  0.00  0.00    +0.000 C 
ATOM      5  C   UNL     1      -0.279   9.017  20.031  0.00  0.00    +0.000 C 
ATOM      6  C   UNL     1       1.213   9.082  20.434  0.00  0.00    +0.000 C 
ATOM      7  N   UNL     1       2.108   9.023  19.253  0.00  0.00    +0.000 NA
ATOM      8  C   UNL     1       1.804  10.158  18.348  0.00  0.00    +0.000 C 
ATOM      9  C   UNL     1       0.359  10.096  17.839  0.00  0.00    +0.000 C 
ATOM     10  O   UNL     1      -0.496  11.382  19.775  0.00  0.00    +0.000 OA
ATOM     11  C   UNL     1      -0.912  12.537  19.052  0.00  0.00    +0.000 C 
ATOM     12  C   UNL     1      -2.384  12.449  18.633  0.00  0.00    +0.000 C 
ENDROOT
BRANCH  12  13
ATOM     13  C   UNL     1      -3.316  12.556  19.846  0.00  0.00    +0.000 A 
ATOM     14  C   UNL     1      -4.693  12.332  19.667  0.00  0.00    +0.000 A 
ATOM     15  C   UNL     1      -5.580  12.429  20.743  0.00  0.00    +0.000 A 
ATOM     16  C   UNL     1      -5.107  12.747  22.018  0.00  0.00    +0.000 A 
ATOM     17  F   UNL     1      -5.966  12.837  23.063  0.00  0.00    +0.000 F 
ATOM     18  C   UNL     1      -3.749  12.985  22.214  0.00  0.00    +0.000 A 
ATOM     19  C   UNL     1      -2.862  12.898  21.143  0.00  0.00    +0.000 A 
ENDBRANCH  12  13
BRANCH   7  20
ATOM     20  C   UNL     1       2.053   7.683  18.610  0.00  0.00    +0.000 C 
BRANCH  20  21
ATOM     21  C   UNL     1       2.902   6.616  19.328  0.00  0.00    +0.000 C 
BRANCH  21  22
ATOM     22  C   UNL     1       2.178   5.299  19.376  0.00  0.00    +0.000 A 
ATOM     23  C   UNL     1       1.955   4.562  18.195  0.00  0.00    +0.000 A 
ATOM     24  C   UNL     1       1.293   3.334  18.244  0.00  0.00    +0.000 A 
ATOM     25  C   UNL     1       0.852   2.828  19.468  0.00  0.00    +0.000 A 
ATOM     26  C   UNL     1       1.074   3.549  20.644  0.00  0.00    +0.000 A 
ATOM     27  C   UNL     1       1.735   4.780  20.600  0.00  0.00    +0.000 A 
ENDBRANCH  21  22
ENDBRANCH  20  21
ENDBRANCH   7  20
TORSDOF 4
ENDMDL
MODEL 8
REMARK VINA RESULT:      -6.8      4.410      9.282
REMARK  Name = 
REMARK  4 active torsions:
REMARK  status: ('A' for Active; 'I' for Inactive)
REMARK    1  A    between atoms: N_7  and  C_8
REMARK    2  A    between atoms: C_8  and  C_9
REMARK    3  A    between atoms: C_9  and  C_10
REMARK    4  A    between atoms: C_20  and  C_21
REMARK                            x       y       z     vdW  Elec       q    Type
REMARK                         _______ _______ _______ _____ _____    ______ ____
ROOT
ATOM      1  O   UNL     1      -2.188  11.711  17.452  0.00  0.00    +0.000 OA
ATOM      2  C   UNL     1      -1.627  11.544  18.523  0.00  0.00    +0.000 C 
ATOM      3  C   UNL     1      -1.399  10.175  19.050  0.00  0.00    +0.000 C 
ATOM      4  C   UNL     1       0.135   9.992  19.233  0.00  0.00    +0.000 C 
ATOM      5  C   UNL     1       0.367   8.731  20.094  0.00  0.00    +0.000 C 
ATOM      6  C   UNL     1       1.873   8.382  20.162  0.00  0.00    +0.000 C 
ATOM      7  N   UNL     1       2.457   8.193  18.812  0.00  0.00    +0.000 NA
ATOM      8  C   UNL     1       2.285   9.437  18.022  0.00  0.00    +0.000 C 
ATOM      9  C   UNL     1       0.803   9.784  17.842  0.00  0.00    +0.000 C 
ATOM     10  O   UNL     1       0.736  11.086  19.947  0.00  0.00    +0.000 OA
ATOM     11  C   UNL     1       0.502  12.362  19.359  0.00  0.00    +0.000 C 
ATOM     12  C   UNL     1      -0.995  12.685  19.272  0.00  0.00    +0.000 C 
ENDROOT
BRANCH  12  13
ATOM     13  C   UNL     1      -1.594  12.928  20.661  0.00  0.00    +0.000 A 
ATOM     14  C   UNL     1      -0.726  13.072  21.760  0.00  0.00    +0.000 A 
ATOM     15  C   UNL     1      -1.229  13.285  23.046  0.00  0.00    +0.000 A 
ATOM     16  C   UNL     1      -2.608  13.362  23.259  0.00  0.00    +0.000 A 
ATOM     17  F   UNL     1      -3.097  13.573  24.505  0.00  0.00    +0.000 F 
ATOM     18  C   UNL     1      -3.483  13.211  22.187  0.00  0.00    +0.000 A 
ATOM     19  C   UNL     1      -2.987  12.989  20.904  0.00  0.00    +0.000 A 
ENDBRANCH  12  13
BRANCH   7  20
ATOM     20  C   UNL     1       1.918   6.966  18.166  0.00  0.00    +0.000 C 
BRANCH  20  21
ATOM     21  C   UNL     1       2.979   5.875  17.928  0.00  0.00    +0.000 C 
BRANCH  21  22
ATOM     22  C   UNL     1       2.450   4.520  18.313  0.00  0.00    +0.000 A 
ATOM     23  C   UNL     1       2.948   3.356  17.693  0.00  0.00    +0.000 A 
ATOM     24  C   UNL     1       2.462   2.100  18.059  0.00  0.00    +0.000 A 
ATOM     25  C   UNL     1       1.482   1.991  19.047  0.00  0.00    +0.000 A 
ATOM     26  C   UNL     1       0.987   3.140  19.671  0.00  0.00    +0.000 A 
ATOM     27  C   UNL     1       1.468   4.400  19.307  0.00  0.00    +0.000 A 
ENDBRANCH  21  22
ENDBRANCH  20  21
ENDBRANCH   7  20
TORSDOF 4
ENDMDL
MODEL 9
REMARK VINA RESULT:      -6.8      5.224      9.578
REMARK  Name = 
REMARK  4 active torsions:
REMARK  status: ('A' for Active; 'I' for Inactive)
REMARK    1  A    between atoms: N_7  and  C_8
REMARK    2  A    between atoms: C_8  and  C_9
REMARK    3  A    between atoms: C_9  and  C_10
REMARK    4  A    between atoms: C_20  and  C_21
REMARK                            x       y       z     vdW  Elec       q    Type
REMARK                         _______ _______ _______ _____ _____    ______ ____
ROOT
ATOM      1  O   UNL     1       2.244  14.523  22.183  0.00  0.00    +0.000 OA
ATOM      2  C   UNL     1       1.725  14.375  21.089  0.00  0.00    +0.000 C 
ATOM      3  C   UNL     1       2.267  13.385  20.124  0.00  0.00    +0.000 C 
ATOM      4  C   UNL     1       1.132  12.370  19.807  0.00  0.00    +0.000 C 
ATOM      5  C   UNL     1       1.552  11.556  18.563  0.00  0.00    +0.000 C 
ATOM      6  C   UNL     1       0.556  10.401  18.301  0.00  0.00    +0.000 C 
ATOM      7  N   UNL     1       0.426   9.507  19.475  0.00  0.00    +0.000 NA
ATOM      8  C   UNL     1      -0.044  10.292  20.643  0.00  0.00    +0.000 C 
ATOM      9  C   UNL     1       0.953  11.398  21.010  0.00  0.00    +0.000 C 
ATOM     10  O   UNL     1      -0.106  13.019  19.467  0.00  0.00    +0.000 OA
ATOM     11  C   UNL     1      -0.578  13.926  20.458  0.00  0.00    +0.000 C 
ATOM     12  C   UNL     1       0.429  15.050  20.730  0.00  0.00    +0.000 C 
ENDROOT
BRANCH  12  13
ATOM     13  C   UNL     1       0.533  16.005  19.536  0.00  0.00    +0.000 A 
ATOM     14  C   UNL     1       1.804  16.467  19.144  0.00  0.00    +0.000 A 
ATOM     15  C   UNL     1       1.945  17.346  18.067  0.00  0.00    +0.000 A 
ATOM     16  C   UNL     1       0.820  17.778  17.359  0.00  0.00    +0.000 A 
ATOM     17  F   UNL     1       0.956  18.628  16.312  0.00  0.00    +0.000 F 
ATOM     18  C   UNL     1      -0.446  17.343  17.739  0.00  0.00    +0.000 A 
ATOM     19  C   UNL     1      -0.593  16.473  18.817  0.00  0.00    +0.000 A 
ENDBRANCH  12  13
BRANCH   7  20
ATOM     20  C   UNL     1       1.681   8.742  19.704  0.00  0.00    +0.000 C 
BRANCH  20  21
ATOM     21  C   UNL     1       2.154   7.946  18.473  0.00  0.00    +0.000 C 
BRANCH  21  22
ATOM     22  C   UNL     1       2.488   6.528  18.848  0.00  0.00    +0.000 A 
ATOM     23  C   UNL     1       3.175   5.692  17.943  0.00  0.00    +0.000 A 
ATOM     24  C   UNL     1       3.492   4.380  18.298  0.00  0.00    +0.000 A 
ATOM     25  C   UNL     1       3.135   3.891  19.556  0.00  0.00    +0.000 A 
ATOM     26  C   UNL     1       2.459   4.715  20.461  0.00  0.00    +0.000 A 
ATOM     27  C   UNL     1       2.137   6.028  20.110  0.00  0.00    +0.000 A 
ENDBRANCH  21  22
ENDBRANCH  20  21
ENDBRANCH   7  20
TORSDOF 4
ENDMDL
