MODEL 1
REMARK VINA RESULT:      -8.0      0.000      0.000
REMARK  Name = 
REMARK  7 active torsions:
REMARK  status: ('A' for Active; 'I' for Inactive)
REMARK    1  A    between atoms: C_1  and  O_2
REMARK    2  A    between atoms: O_2  and  C_3
REMARK    3  A    between atoms: N_6  and  C_7
REMARK    4  A    between atoms: C_10  and  C_11
REMARK    5  A    between atoms: C_16  and  S_17
REMARK    6  A    between atoms: S_17  and  C_18
REMARK    7  A    between atoms: C_18  and  C_19
REMARK                            x       y       z     vdW  Elec       q    Type
REMARK                         _______ _______ _______ _____ _____    ______ ____
ROOT
ATOM      1  C   UNL     1       0.674   9.409  20.802  0.00  0.00    +0.000 A 
ATOM      2  C   UNL     1       1.294   8.109  21.143  0.00  0.00    +0.000 A 
ATOM      3  N   UNL     1       1.949   7.330  20.359  0.00  0.00    +0.000 NA
ATOM      4  N   UNL     1       2.174   7.762  19.076  0.00  0.00    +0.000 N 
ATOM      5  C   UNL     1       1.729   9.010  18.598  0.00  0.00    +0.000 A 
ATOM      6  O   UNL     1       1.933   9.433  17.458  0.00  0.00    +0.000 OA
ATOM      7  C   UNL     1       0.897   9.842  19.551  0.00  0.00    +0.000 A 
ENDROOT
BRANCH   4   8
ATOM      8  C   UNL     1       2.879   6.812  18.259  0.00  0.00    +0.000 A 
ATOM      9  C   UNL     1       2.496   5.466  18.189  0.00  0.00    +0.000 A 
ATOM     10  C   UNL     1       3.244   4.529  17.470  0.00  0.00    +0.000 A 
ATOM     11  C   UNL     1       4.404   4.912  16.797  0.00  0.00    +0.000 A 
ATOM     12  C   UNL     1       5.254   3.891  16.104  0.00  0.00    +0.000 C 
ATOM     13  C   UNL     1       4.768   6.261  16.803  0.00  0.00    +0.000 A 
ATOM     14  C   UNL     1       4.007   7.201  17.515  0.00  0.00    +0.000 A 
ENDBRANCH   4   8
BRANCH   1  16
ATOM     15  C   UNL     1      -0.198   9.553  23.018  0.00  0.00    +0.000 C 
ATOM     16  O   UNL     1      -0.112  10.099  21.705  0.00  0.00    +0.000 OA
ENDBRANCH   1  16
BRANCH   7  17
ATOM     17  S   UNL     1       0.132  11.244  18.821  0.00  0.00    +0.000 S 
BRANCH  17  18
ATOM     18  C   UNL     1      -1.641  11.081  19.143  0.00  0.00    +0.000 C 
BRANCH  18  19
ATOM     19  C   UNL     1      -2.415  10.864  17.856  0.00  0.00    +0.000 A 
ATOM     20  C   UNL     1      -3.644  11.515  17.648  0.00  0.00    +0.000 A 
ATOM     21  C   UNL     1      -4.367  11.322  16.467  0.00  0.00    +0.000 A 
ATOM     22  C   UNL     1      -3.874  10.474  15.481  0.00  0.00    +0.000 A 
ATOM     23  C   UNL     1      -2.665   9.811  15.675  0.00  0.00    +0.000 A 
ATOM     24  C   UNL     1      -1.939   9.999  16.858  0.00  0.00    +0.000 A 
ENDBRANCH  18  19
ENDBRANCH  17  18
ENDBRANCH   7  17
TORSDOF 5
ENDMDL
MODEL 2
REMARK VINA RESULT:      -7.7      0.524      1.479
REMARK  Name = 
REMARK  7 active torsions:
REMARK  status: ('A' for Active; 'I' for Inactive)
REMARK    1  A    between atoms: C_1  and  O_2
REMARK    2  A    between atoms: O_2  and  C_3
REMARK    3  A    between atoms: N_6  and  C_7
REMARK    4  A    between atoms: C_10  and  C_11
REMARK    5  A    between atoms: C_16  and  S_17
REMARK    6  A    between atoms: S_17  and  C_18
REMARK    7  A    between atoms: C_18  and  C_19
REMARK                            x       y       z     vdW  Elec       q    Type
REMARK                         _______ _______ _______ _____ _____    ______ ____
ROOT
ATOM      1  C   UNL     1       0.811   8.865  20.616  0.00  0.00    +0.000 A 
ATOM      2  C   UNL     1       1.513   7.597  20.914  0.00  0.00    +0.000 A 
ATOM      3  N   UNL     1       2.267   6.920  20.123  0.00  0.00    +0.000 NA
ATOM      4  N   UNL     1       2.524   7.450  18.883  0.00  0.00    +0.000 N 
ATOM      5  C   UNL     1       2.008   8.688  18.456  0.00  0.00    +0.000 A 
ATOM      6  O   UNL     1       2.236   9.198  17.356  0.00  0.00    +0.000 OA
ATOM      7  C   UNL     1       1.064   9.393  19.408  0.00  0.00    +0.000 A 
ENDROOT
BRANCH   4   8
ATOM      8  C   UNL     1       3.343   6.610  18.052  0.00  0.00    +0.000 A 
ATOM      9  C   UNL     1       4.381   7.129  17.268  0.00  0.00    +0.000 A 
ATOM     10  C   UNL     1       5.109   6.320  16.390  0.00  0.00    +0.000 A 
ATOM     11  C   UNL     1       4.818   4.962  16.268  0.00  0.00    +0.000 A 
ATOM     12  C   UNL     1       5.537   4.117  15.261  0.00  0.00    +0.000 C 
ATOM     13  C   UNL     1       3.828   4.413  17.087  0.00  0.00    +0.000 A 
ATOM     14  C   UNL     1       3.109   5.225  17.977  0.00  0.00    +0.000 A 
ENDBRANCH   4   8
BRANCH   1  16
ATOM     15  C   UNL     1       0.338   9.463  22.877  0.00  0.00    +0.000 C 
ATOM     16  O   UNL     1      -0.073   9.434  21.514  0.00  0.00    +0.000 OA
ENDBRANCH   1  16
BRANCH   7  17
ATOM     17  S   UNL     1       0.230  10.777  18.721  0.00  0.00    +0.000 S 
BRANCH  17  18
ATOM     18  C   UNL     1      -1.525  10.553  19.102  0.00  0.00    +0.000 C 
BRANCH  18  19
ATOM     19  C   UNL     1      -2.371  10.607  17.844  0.00  0.00    +0.000 A 
ATOM     20  C   UNL     1      -2.017   9.846  16.716  0.00  0.00    +0.000 A 
ATOM     21  C   UNL     1      -2.789   9.888  15.551  0.00  0.00    +0.000 A 
ATOM     22  C   UNL     1      -3.921  10.694  15.496  0.00  0.00    +0.000 A 
ATOM     23  C   UNL     1      -4.281  11.465  16.599  0.00  0.00    +0.000 A 
ATOM     24  C   UNL     1      -3.509  11.427  17.767  0.00  0.00    +0.000 A 
ENDBRANCH  18  19
ENDBRANCH  17  18
ENDBRANCH   7  17
TORSDOF 5
ENDMDL
MODEL 3
REMARK VINA RESULT:      -7.6      0.342      1.037
REMARK  Name = 
REMARK  7 active torsions:
REMARK  status: ('A' for Active; 'I' for Inactive)
REMARK    1  A    between atoms: C_1  and  O_2
REMARK    2  A    between atoms: O_2  and  C_3
REMARK    3  A    between atoms: N_6  and  C_7
REMARK    4  A    between atoms: C_10  and  C_11
REMARK    5  A    between atoms: C_16  and  S_17
REMARK    6  A    between atoms: S_17  and  C_18
REMARK    7  A    between atoms: C_18  and  C_19
REMARK                            x       y       z     vdW  Elec       q    Type
REMARK                         _______ _______ _______ _____ _____    ______ ____
ROOT
ATOM      1  C   UNL     1       0.743   9.126  20.640  0.00  0.00    +0.000 A 
ATOM      2  C   UNL     1       1.406   7.854  21.001  0.00  0.00    +0.000 A 
ATOM      3  N   UNL     1       2.127   7.109  20.241  0.00  0.00    +0.000 NA
ATOM      4  N   UNL     1       2.384   7.558  18.970  0.00  0.00    +0.000 N 
ATOM      5  C   UNL     1       1.903   8.787  18.479  0.00  0.00    +0.000 A 
ATOM      6  O   UNL     1       2.133   9.226  17.350  0.00  0.00    +0.000 OA
ATOM      7  C   UNL     1       0.996   9.576  19.401  0.00  0.00    +0.000 A 
ENDROOT
BRANCH   4   8
ATOM      8  C   UNL     1       3.163   6.645  18.179  0.00  0.00    +0.000 A 
ATOM      9  C   UNL     1       4.319   7.053  17.499  0.00  0.00    +0.000 A 
ATOM     10  C   UNL     1       5.015   6.183  16.655  0.00  0.00    +0.000 A 
ATOM     11  C   UNL     1       4.575   4.874  16.463  0.00  0.00    +0.000 A 
ATOM     12  C   UNL     1       5.269   3.973  15.487  0.00  0.00    +0.000 C 
ATOM     13  C   UNL     1       3.461   4.430  17.179  0.00  0.00    +0.000 A 
ATOM     14  C   UNL     1       2.772   5.302  18.037  0.00  0.00    +0.000 A 
ENDBRANCH   4   8
BRANCH   1  16
ATOM     15  C   UNL     1      -0.493   9.053  22.680  0.00  0.00    +0.000 C 
ATOM     16  O   UNL     1      -0.109   9.775  21.514  0.00  0.00    +0.000 OA
ENDBRANCH   1  16
BRANCH   7  17
ATOM     17  S   UNL     1       0.199  10.946  18.646  0.00  0.00    +0.000 S 
BRANCH  17  18
ATOM     18  C   UNL     1      -1.563  10.783  19.027  0.00  0.00    +0.000 C 
BRANCH  18  19
ATOM     19  C   UNL     1      -2.393  10.691  17.761  0.00  0.00    +0.000 A 
ATOM     20  C   UNL     1      -3.629  11.355  17.673  0.00  0.00    +0.000 A 
ATOM     21  C   UNL     1      -4.403  11.277  16.511  0.00  0.00    +0.000 A 
ATOM     22  C   UNL     1      -3.955  10.532  15.425  0.00  0.00    +0.000 A 
ATOM     23  C   UNL     1      -2.739   9.857  15.500  0.00  0.00    +0.000 A 
ATOM     24  C   UNL     1      -1.962   9.931  16.662  0.00  0.00    +0.000 A 
ENDBRANCH  18  19
ENDBRANCH  17  18
ENDBRANCH   7  17
TORSDOF 5
ENDMDL
MODEL 4
REMARK VINA RESULT:      -7.5      1.058      1.830
REMARK  Name = 
REMARK  7 active torsions:
REMARK  status: ('A' for Active; 'I' for Inactive)
REMARK    1  A    between atoms: C_1  and  O_2
REMARK    2  A    between atoms: O_2  and  C_3
REMARK    3  A    between atoms: N_6  and  C_7
REMARK    4  A    between atoms: C_10  and  C_11
REMARK    5  A    between atoms: C_16  and  S_17
REMARK    6  A    between atoms: S_17  and  C_18
REMARK    7  A    between atoms: C_18  and  C_19
REMARK                            x       y       z     vdW  Elec       q    Type
REMARK                         _______ _______ _______ _____ _____    ______ ____
ROOT
ATOM      1  C   UNL     1       0.573  10.388  21.449  0.00  0.00    +0.000 A 
ATOM      2  C   UNL     1       1.127   9.152  22.046  0.00  0.00    +0.000 A 
ATOM      3  N   UNL     1       1.617   8.140  21.425  0.00  0.00    +0.000 NA
ATOM      4  N   UNL     1       1.714   8.219  20.058  0.00  0.00    +0.000 N 
ATOM      5  C   UNL     1       1.312   9.352  19.325  0.00  0.00    +0.000 A 
ATOM      6  O   UNL     1       1.405   9.460  18.100  0.00  0.00    +0.000 OA
ATOM      7  C   UNL     1       0.672  10.476  20.113  0.00  0.00    +0.000 A 
ENDROOT
BRANCH   4   8
ATOM      8  C   UNL     1       2.236   7.028  19.443  0.00  0.00    +0.000 A 
ATOM      9  C   UNL     1       3.029   7.076  18.290  0.00  0.00    +0.000 A 
ATOM     10  C   UNL     1       3.452   5.911  17.644  0.00  0.00    +0.000 A 
ATOM     11  C   UNL     1       3.091   4.656  18.134  0.00  0.00    +0.000 A 
ATOM     12  C   UNL     1       3.466   3.411  17.390  0.00  0.00    +0.000 C 
ATOM     13  C   UNL     1       2.352   4.586  19.318  0.00  0.00    +0.000 A 
ATOM     14  C   UNL     1       1.942   5.759  19.972  0.00  0.00    +0.000 A 
ENDBRANCH   4   8
BRANCH   1  16
ATOM     15  C   UNL     1      -1.110  10.923  23.052  0.00  0.00    +0.000 C 
ATOM     16  O   UNL     1      -0.039  11.357  22.221  0.00  0.00    +0.000 OA
ENDBRANCH   1  16
BRANCH   7  17
ATOM     17  S   UNL     1      -0.066  11.730  19.130  0.00  0.00    +0.000 S 
BRANCH  17  18
ATOM     18  C   UNL     1      -1.854  11.562  19.351  0.00  0.00    +0.000 C 
BRANCH  18  19
ATOM     19  C   UNL     1      -2.531  11.148  18.058  0.00  0.00    +0.000 A 
ATOM     20  C   UNL     1      -1.872  10.299  17.152  0.00  0.00    +0.000 A 
ATOM     21  C   UNL     1      -2.485   9.910  15.957  0.00  0.00    +0.000 A 
ATOM     22  C   UNL     1      -3.762  10.368  15.650  0.00  0.00    +0.000 A 
ATOM     23  C   UNL     1      -4.426  11.220  16.530  0.00  0.00    +0.000 A 
ATOM     24  C   UNL     1      -3.814  11.613  17.727  0.00  0.00    +0.000 A 
ENDBRANCH  18  19
ENDBRANCH  17  18
ENDBRANCH   7  17
TORSDOF 5
ENDMDL
MODEL 5
REMARK VINA RESULT:      -7.5      3.493      8.287
REMARK  Name = 
REMARK  7 active torsions:
REMARK  status: ('A' for Active; 'I' for Inactive)
REMARK    1  A    between atoms: C_1  and  O_2
REMARK    2  A    between atoms: O_2  and  C_3
REMARK    3  A    between atoms: N_6  and  C_7
REMARK    4  A    between atoms: C_10  and  C_11
REMARK    5  A    between atoms: C_16  and  S_17
REMARK    6  A    between atoms: S_17  and  C_18
REMARK    7  A    between atoms: C_18  and  C_19
REMARK                            x       y       z     vdW  Elec       q    Type
REMARK                         _______ _______ _______ _____ _____    ______ ____
ROOT
ATOM      1  C   UNL     1       4.268   4.045  19.244  0.00  0.00    +0.000 A 
ATOM      2  C   UNL     1       3.177   4.457  20.155  0.00  0.00    +0.000 A 
ATOM      3  N   UNL     1       2.535   5.570  20.147  0.00  0.00    +0.000 NA
ATOM      4  N   UNL     1       2.824   6.464  19.146  0.00  0.00    +0.000 N 
ATOM      5  C   UNL     1       3.776   6.207  18.140  0.00  0.00    +0.000 A 
ATOM      6  O   UNL     1       4.043   6.981  17.218  0.00  0.00    +0.000 OA
ATOM      7  C   UNL     1       4.550   4.911  18.257  0.00  0.00    +0.000 A 
ENDROOT
BRANCH   4   8
ATOM      8  C   UNL     1       2.088   7.695  19.237  0.00  0.00    +0.000 A 
ATOM      9  C   UNL     1       1.835   8.492  18.113  0.00  0.00    +0.000 A 
ATOM     10  C   UNL     1       1.203   9.735  18.225  0.00  0.00    +0.000 A 
ATOM     11  C   UNL     1       0.804  10.219  19.470  0.00  0.00    +0.000 A 
ATOM     12  C   UNL     1       0.212  11.589  19.599  0.00  0.00    +0.000 C 
ATOM     13  C   UNL     1       0.991   9.412  20.595  0.00  0.00    +0.000 A 
ATOM     14  C   UNL     1       1.613   8.159  20.477  0.00  0.00    +0.000 A 
ENDBRANCH   4   8
BRANCH   1  16
ATOM     15  C   UNL     1       4.542   2.045  20.513  0.00  0.00    +0.000 C 
ATOM     16  O   UNL     1       4.966   2.868  19.432  0.00  0.00    +0.000 OA
ENDBRANCH   1  16
BRANCH   7  17
ATOM     17  S   UNL     1       5.911   4.770  17.156  0.00  0.00    +0.000 S 
BRANCH  17  18
ATOM     18  C   UNL     1       5.359   3.708  15.798  0.00  0.00    +0.000 C 
BRANCH  18  19
ATOM     19  C   UNL     1       6.091   4.036  14.511  0.00  0.00    +0.000 A 
ATOM     20  C   UNL     1       7.175   4.931  14.519  0.00  0.00    +0.000 A 
ATOM     21  C   UNL     1       7.858   5.242  13.339  0.00  0.00    +0.000 A 
ATOM     22  C   UNL     1       7.463   4.667  12.135  0.00  0.00    +0.000 A 
ATOM     23  C   UNL     1       6.383   3.788  12.106  0.00  0.00    +0.000 A 
ATOM     24  C   UNL     1       5.696   3.476  13.286  0.00  0.00    +0.000 A 
ENDBRANCH  18  19
ENDBRANCH  17  18
ENDBRANCH   7  17
TORSDOF 5
ENDMDL
MODEL 6
REMARK VINA RESULT:      -7.5      1.113      1.321
REMARK  Name = 
REMARK  7 active torsions:
REMARK  status: ('A' for Active; 'I' for Inactive)
REMARK    1  A    between atoms: C_1  and  O_2
REMARK    2  A    between atoms: O_2  and  C_3
REMARK    3  A    between atoms: N_6  and  C_7
REMARK    4  A    between atoms: C_10  and  C_11
REMARK    5  A    between atoms: C_16  and  S_17
REMARK    6  A    between atoms: S_17  and  C_18
REMARK    7  A    between atoms: C_18  and  C_19
REMARK                            x       y       z     vdW  Elec       q    Type
REMARK                         _______ _______ _______ _____ _____    ______ ____
ROOT
ATOM      1  C   UNL     1       0.544  10.484  21.493  0.00  0.00    +0.000 A 
ATOM      2  C   UNL     1       1.137   9.275  22.107  0.00  0.00    +0.000 A 
ATOM      3  N   UNL     1       1.616   8.249  21.499  0.00  0.00    +0.000 NA
ATOM      4  N   UNL     1       1.660   8.285  20.128  0.00  0.00    +0.000 N 
ATOM      5  C   UNL     1       1.216   9.389  19.375  0.00  0.00    +0.000 A 
ATOM      6  O   UNL     1       1.261   9.459  18.145  0.00  0.00    +0.000 OA
ATOM      7  C   UNL     1       0.591  10.530  20.152  0.00  0.00    +0.000 A 
ENDROOT
BRANCH   4   8
ATOM      8  C   UNL     1       2.174   7.082  19.532  0.00  0.00    +0.000 A 
ATOM      9  C   UNL     1       1.988   5.825  20.121  0.00  0.00    +0.000 A 
ATOM     10  C   UNL     1       2.574   4.673  19.587  0.00  0.00    +0.000 A 
ATOM     11  C   UNL     1       3.367   4.744  18.442  0.00  0.00    +0.000 A 
ATOM     12  C   UNL     1       4.067   3.526  17.925  0.00  0.00    +0.000 C 
ATOM     13  C   UNL     1       3.513   5.979  17.804  0.00  0.00    +0.000 A 
ATOM     14  C   UNL     1       2.912   7.131  18.336  0.00  0.00    +0.000 A 
ENDBRANCH   4   8
BRANCH   1  16
ATOM     15  C   UNL     1      -1.193  11.084  23.013  0.00  0.00    +0.000 C 
ATOM     16  O   UNL     1      -0.050  11.470  22.257  0.00  0.00    +0.000 OA
ENDBRANCH   1  16
BRANCH   7  17
ATOM     17  S   UNL     1      -0.200  11.744  19.159  0.00  0.00    +0.000 S 
BRANCH  17  18
ATOM     18  C   UNL     1      -1.979  11.471  19.345  0.00  0.00    +0.000 C 
BRANCH  18  19
ATOM     19  C   UNL     1      -2.621  11.107  18.019  0.00  0.00    +0.000 A 
ATOM     20  C   UNL     1      -3.886  11.615  17.679  0.00  0.00    +0.000 A 
ATOM     21  C   UNL     1      -4.488  11.287  16.460  0.00  0.00    +0.000 A 
ATOM     22  C   UNL     1      -3.835  10.442  15.569  0.00  0.00    +0.000 A 
ATOM     23  C   UNL     1      -2.586   9.918  15.894  0.00  0.00    +0.000 A 
ATOM     24  C   UNL     1      -1.982  10.244  17.115  0.00  0.00    +0.000 A 
ENDBRANCH  18  19
ENDBRANCH  17  18
ENDBRANCH   7  17
TORSDOF 5
ENDMDL
MODEL 7
REMARK VINA RESULT:      -7.4      3.477      7.897
REMARK  Name = 
REMARK  7 active torsions:
REMARK  status: ('A' for Active; 'I' for Inactive)
REMARK    1  A    between atoms: C_1  and  O_2
REMARK    2  A    between atoms: O_2  and  C_3
REMARK    3  A    between atoms: N_6  and  C_7
REMARK    4  A    between atoms: C_10  and  C_11
REMARK    5  A    between atoms: C_16  and  S_17
REMARK    6  A    between atoms: S_17  and  C_18
REMARK    7  A    between atoms: C_18  and  C_19
REMARK                            x       y       z     vdW  Elec       q    Type
REMARK                         _______ _______ _______ _____ _____    ______ ____
ROOT
ATOM      1  C   UNL     1       5.046   4.921  16.877  0.00  0.00    +0.000 A 
ATOM      2  C   UNL     1       5.347   6.321  17.249  0.00  0.00    +0.000 A 
ATOM      3  N   UNL     1       4.537   7.187  17.744  0.00  0.00    +0.000 NA
ATOM      4  N   UNL     1       3.262   6.769  18.037  0.00  0.00    +0.000 N 
ATOM      5  C   UNL     1       2.821   5.449  17.828  0.00  0.00    +0.000 A 
ATOM      6  O   UNL     1       1.690   5.039  18.099  0.00  0.00    +0.000 OA
ATOM      7  C   UNL     1       3.804   4.503  17.169  0.00  0.00    +0.000 A 
ENDROOT
BRANCH   4   8
ATOM      8  C   UNL     1       2.414   7.810  18.550  0.00  0.00    +0.000 A 
ATOM      9  C   UNL     1       2.026   7.855  19.896  0.00  0.00    +0.000 A 
ATOM     10  C   UNL     1       1.124   8.815  20.365  0.00  0.00    +0.000 A 
ATOM     11  C   UNL     1       0.579   9.762  19.498  0.00  0.00    +0.000 A 
ATOM     12  C   UNL     1      -0.457  10.730  19.983  0.00  0.00    +0.000 C 
ATOM     13  C   UNL     1       1.001   9.772  18.166  0.00  0.00    +0.000 A 
ATOM     14  C   UNL     1       1.918   8.816  17.702  0.00  0.00    +0.000 A 
ENDBRANCH   4   8
BRANCH   1  16
ATOM     15  C   UNL     1       7.180   4.759  15.824  0.00  0.00    +0.000 C 
ATOM     16  O   UNL     1       5.975   4.123  16.237  0.00  0.00    +0.000 OA
ENDBRANCH   1  16
BRANCH   7  17
ATOM     17  S   UNL     1       3.118   2.965  16.671  0.00  0.00    +0.000 S 
BRANCH  17  18
ATOM     18  C   UNL     1       3.472   1.795  18.006  0.00  0.00    +0.000 C 
BRANCH  18  19
ATOM     19  C   UNL     1       2.742   2.176  19.280  0.00  0.00    +0.000 A 
ATOM     20  C   UNL     1       1.339   2.266  19.295  0.00  0.00    +0.000 A 
ATOM     21  C   UNL     1       0.655   2.618  20.462  0.00  0.00    +0.000 A 
ATOM     22  C   UNL     1       1.364   2.888  21.628  0.00  0.00    +0.000 A 
ATOM     23  C   UNL     1       2.755   2.816  21.629  0.00  0.00    +0.000 A 
ATOM     24  C   UNL     1       3.443   2.467  20.461  0.00  0.00    +0.000 A 
ENDBRANCH  18  19
ENDBRANCH  17  18
ENDBRANCH   7  17
TORSDOF 5
ENDMDL
MODEL 8
REMARK VINA RESULT:      -7.4      3.590      7.963
REMARK  Name = 
REMARK  7 active torsions:
REMARK  status: ('A' for Active; 'I' for Inactive)
REMARK    1  A    between atoms: C_1  and  O_2
REMARK    2  A    between atoms: O_2  and  C_3
REMARK    3  A    between atoms: N_6  and  C_7
REMARK    4  A    between atoms: C_10  and  C_11
REMARK    5  A    between atoms: C_16  and  S_17
REMARK    6  A    between atoms: S_17  and  C_18
REMARK    7  A    between atoms: C_18  and  C_19
REMARK                            x       y       z     vdW  Elec       q    Type
REMARK                         _______ _______ _______ _____ _____    ______ ____
ROOT
ATOM      1  C   UNL     1       5.273   4.996  17.054  0.00  0.00    +0.000 A 
ATOM      2  C   UNL     1       5.508   6.398  17.465  0.00  0.00    +0.000 A 
ATOM      3  N   UNL     1       4.637   7.238  17.898  0.00  0.00    +0.000 NA
ATOM      4  N   UNL     1       3.352   6.787  18.074  0.00  0.00    +0.000 N 
ATOM      5  C   UNL     1       2.962   5.460  17.813  0.00  0.00    +0.000 A 
ATOM      6  O   UNL     1       1.822   5.021  17.980  0.00  0.00    +0.000 OA
ATOM      7  C   UNL     1       4.021   4.546  17.232  0.00  0.00    +0.000 A 
ENDROOT
BRANCH   4   8
ATOM      8  C   UNL     1       2.438   7.802  18.522  0.00  0.00    +0.000 A 
ATOM      9  C   UNL     1       2.009   8.838  17.681  0.00  0.00    +0.000 A 
ATOM     10  C   UNL     1       1.198   9.874  18.153  0.00  0.00    +0.000 A 
ATOM     11  C   UNL     1       0.790   9.907  19.486  0.00  0.00    +0.000 A 
ATOM     12  C   UNL     1      -0.002  11.065  20.011  0.00  0.00    +0.000 C 
ATOM     13  C   UNL     1       1.155   8.851  20.325  0.00  0.00    +0.000 A 
ATOM     14  C   UNL     1       1.958   7.805  19.844  0.00  0.00    +0.000 A 
ENDBRANCH   4   8
BRANCH   1  16
ATOM     15  C   UNL     1       6.694   4.596  15.179  0.00  0.00    +0.000 C 
ATOM     16  O   UNL     1       6.273   4.228  16.489  0.00  0.00    +0.000 OA
ENDBRANCH   1  16
BRANCH   7  17
ATOM     17  S   UNL     1       3.418   2.999  16.660  0.00  0.00    +0.000 S 
BRANCH  17  18
ATOM     18  C   UNL     1       3.673   1.823  18.012  0.00  0.00    +0.000 C 
BRANCH  18  19
ATOM     19  C   UNL     1       2.841   2.192  19.225  0.00  0.00    +0.000 A 
ATOM     20  C   UNL     1       3.463   2.481  20.452  0.00  0.00    +0.000 A 
ATOM     21  C   UNL     1       2.707   2.822  21.578  0.00  0.00    +0.000 A 
ATOM     22  C   UNL     1       1.320   2.874  21.493  0.00  0.00    +0.000 A 
ATOM     23  C   UNL     1       0.685   2.577  20.289  0.00  0.00    +0.000 A 
ATOM     24  C   UNL     1       1.439   2.233  19.161  0.00  0.00    +0.000 A 
ENDBRANCH  18  19
ENDBRANCH  17  18
ENDBRANCH   7  17
TORSDOF 5
ENDMDL
MODEL 9
REMARK VINA RESULT:      -7.4      0.938      1.745
REMARK  Name = 
REMARK  7 active torsions:
REMARK  status: ('A' for Active; 'I' for Inactive)
REMARK    1  A    between atoms: C_1  and  O_2
REMARK    2  A    between atoms: O_2  and  C_3
REMARK    3  A    between atoms: N_6  and  C_7
REMARK    4  A    between atoms: C_10  and  C_11
REMARK    5  A    between atoms: C_16  and  S_17
REMARK    6  A    between atoms: S_17  and  C_18
REMARK    7  A    between atoms: C_18  and  C_19
REMARK                            x       y       z     vdW  Elec       q    Type
REMARK                         _______ _______ _______ _____ _____    ______ ____
ROOT
ATOM      1  C   UNL     1       0.668   9.309  20.726  0.00  0.00    +0.000 A 
ATOM      2  C   UNL     1       1.274   8.000  21.057  0.00  0.00    +0.000 A 
ATOM      3  N   UNL     1       1.953   7.237  20.276  0.00  0.00    +0.000 NA
ATOM      4  N   UNL     1       2.220   7.699  19.011  0.00  0.00    +0.000 N 
ATOM      5  C   UNL     1       1.793   8.958  18.548  0.00  0.00    +0.000 A 
ATOM      6  O   UNL     1       2.034   9.407  17.425  0.00  0.00    +0.000 OA
ATOM      7  C   UNL     1       0.932   9.771  19.493  0.00  0.00    +0.000 A 
ENDROOT
BRANCH   4   8
ATOM      8  C   UNL     1       2.949   6.766  18.196  0.00  0.00    +0.000 A 
ATOM      9  C   UNL     1       2.576   5.419  18.096  0.00  0.00    +0.000 A 
ATOM     10  C   UNL     1       3.347   4.499  17.379  0.00  0.00    +0.000 A 
ATOM     11  C   UNL     1       4.519   4.899  16.739  0.00  0.00    +0.000 A 
ATOM     12  C   UNL     1       5.391   3.894  16.050  0.00  0.00    +0.000 C 
ATOM     13  C   UNL     1       4.875   6.249  16.776  0.00  0.00    +0.000 A 
ATOM     14  C   UNL     1       4.092   7.173  17.484  0.00  0.00    +0.000 A 
ENDBRANCH   4   8
BRANCH   1  16
ATOM     15  C   UNL     1      -0.093   9.546  22.974  0.00  0.00    +0.000 C 
ATOM     16  O   UNL     1      -0.146   9.979  21.619  0.00  0.00    +0.000 OA
ENDBRANCH   1  16
BRANCH   7  17
ATOM     17  S   UNL     1       0.194  11.191  18.771  0.00  0.00    +0.000 S 
BRANCH  17  18
ATOM     18  C   UNL     1      -1.331  10.624  17.978  0.00  0.00    +0.000 C 
BRANCH  18  19
ATOM     19  C   UNL     1      -2.546  11.322  18.559  0.00  0.00    +0.000 A 
ATOM     20  C   UNL     1      -3.796  11.217  17.927  0.00  0.00    +0.000 A 
ATOM     21  C   UNL     1      -4.923  11.857  18.452  0.00  0.00    +0.000 A 
ATOM     22  C   UNL     1      -4.813  12.614  19.614  0.00  0.00    +0.000 A 
ATOM     23  C   UNL     1      -3.579  12.740  20.248  0.00  0.00    +0.000 A 
ATOM     24  C   UNL     1      -2.449  12.103  19.723  0.00  0.00    +0.000 A 
ENDBRANCH  18  19
ENDBRANCH  17  18
ENDBRANCH   7  17
TORSDOF 5
ENDMDL
