MODEL 1
REMARK VINA RESULT:      -7.4      0.000      0.000
REMARK  Name = 
REMARK  6 active torsions:
REMARK  status: ('A' for Active; 'I' for Inactive)
REMARK    1  A    between atoms: C_1  and  N_2
REMARK    2  A    between atoms: N_5  and  C_6
REMARK    3  A    between atoms: C_6  and  C_7
REMARK    4  A    between atoms: C_7  and  O_8
REMARK    5  A    between atoms: O_8  and  C_9
REMARK    6  A    between atoms: C_12  and  C_13
REMARK                            x       y       z     vdW  Elec       q    Type
REMARK                         _______ _______ _______ _____ _____    ______ ____
ROOT
ATOM      1  C   UNL     1       7.401   6.952  18.120  0.00  0.00    +0.000 A 
ATOM      2  C   UNL     1       6.387   7.150  17.183  0.00  0.00    +0.000 A 
ATOM      3  C   UNL     1       5.280   6.311  17.140  0.00  0.00    +0.000 A 
ATOM      4  C   UNL     1       5.147   5.223  18.013  0.00  0.00    +0.000 A 
ATOM      5  C   UNL     1       6.185   5.018  18.941  0.00  0.00    +0.000 A 
ATOM      6  C   UNL     1       7.298   5.876  18.999  0.00  0.00    +0.000 A 
ENDROOT
BRANCH   4   7
ATOM      7  C   UNL     1       3.929   4.386  17.950  0.00  0.00    +0.000 A 
ATOM      8  C   UNL     1       2.646   4.970  18.034  0.00  0.00    +0.000 A 
ATOM      9  C   UNL     1       1.490   4.192  18.097  0.00  0.00    +0.000 A 
ATOM     10  C   UNL     1       1.587   2.807  18.042  0.00  0.00    +0.000 A 
ATOM     11  C   UNL     1       2.837   2.207  17.922  0.00  0.00    +0.000 A 
ATOM     12  C   UNL     1       3.996   2.990  17.881  0.00  0.00    +0.000 A 
ENDBRANCH   4   7
BRANCH   1  13
ATOM     13  O   UNL     1       8.509   7.762  18.247  0.00  0.00    +0.000 OA
BRANCH  13  14
ATOM     14  C   UNL     1       8.207   9.146  18.032  0.00  0.00    +0.000 C 
BRANCH  14  15
ATOM     15  C   UNL     1       9.007  10.080  18.938  0.00  0.00    +0.000 C 
BRANCH  15  20
ATOM     16  C   UNL     1      10.269  14.234  21.078  0.00  0.00    +0.000 C 
ATOM     17  N   UNL     1      10.342  13.463  19.843  0.00  0.00    +0.000 NA
ATOM     18  C   UNL     1       8.998  13.205  19.290  0.00  0.00    +0.000 C 
ATOM     19  C   UNL     1       9.042  12.333  18.010  0.00  0.00    +0.000 C 
ATOM     20  N   UNL     1       9.788  11.064  18.156  0.00  0.00    +0.000 NA
ATOM     21  C   UNL     1      11.116  11.384  18.732  0.00  0.00    +0.000 C 
ATOM     22  C   UNL     1      11.060  12.194  20.046  0.00  0.00    +0.000 C 
ENDBRANCH  15  20
ENDBRANCH  14  15
ENDBRANCH  13  14
ENDBRANCH   1  13
TORSDOF 5
ENDMDL
MODEL 2
REMARK VINA RESULT:      -7.3      0.953      1.853
REMARK  Name = 
REMARK  6 active torsions:
REMARK  status: ('A' for Active; 'I' for Inactive)
REMARK    1  A    between atoms: C_1  and  N_2
REMARK    2  A    between atoms: N_5  and  C_6
REMARK    3  A    between atoms: C_6  and  C_7
REMARK    4  A    between atoms: C_7  and  O_8
REMARK    5  A    between atoms: O_8  and  C_9
REMARK    6  A    between atoms: C_12  and  C_13
REMARK                            x       y       z     vdW  Elec       q    Type
REMARK                         _______ _______ _______ _____ _____    ______ ____
ROOT
ATOM      1  C   UNL     1       6.884   7.042  17.471  0.00  0.00    +0.000 A 
ATOM      2  C   UNL     1       7.040   5.944  18.317  0.00  0.00    +0.000 A 
ATOM      3  C   UNL     1       5.993   5.058  18.539  0.00  0.00    +0.000 A 
ATOM      4  C   UNL     1       4.737   5.240  17.946  0.00  0.00    +0.000 A 
ATOM      5  C   UNL     1       4.581   6.362  17.111  0.00  0.00    +0.000 A 
ATOM      6  C   UNL     1       5.644   7.252  16.870  0.00  0.00    +0.000 A 
ENDROOT
BRANCH   4   7
ATOM      7  C   UNL     1       3.670   4.243  18.186  0.00  0.00    +0.000 A 
ATOM      8  C   UNL     1       3.987   2.891  18.439  0.00  0.00    +0.000 A 
ATOM      9  C   UNL     1       2.998   1.915  18.547  0.00  0.00    +0.000 A 
ATOM     10  C   UNL     1       1.660   2.274  18.441  0.00  0.00    +0.000 A 
ATOM     11  C   UNL     1       1.318   3.605  18.228  0.00  0.00    +0.000 A 
ATOM     12  C   UNL     1       2.314   4.580  18.098  0.00  0.00    +0.000 A 
ENDBRANCH   4   7
BRANCH   1  13
ATOM     13  O   UNL     1       7.884   7.942  17.174  0.00  0.00    +0.000 OA
BRANCH  13  14
ATOM     14  C   UNL     1       8.417   8.578  18.343  0.00  0.00    +0.000 C 
BRANCH  14  15
ATOM     15  C   UNL     1       8.572  10.089  18.184  0.00  0.00    +0.000 C 
BRANCH  15  20
ATOM     16  C   UNL     1       9.160  14.854  18.791  0.00  0.00    +0.000 C 
ATOM     17  N   UNL     1       9.788  13.549  18.951  0.00  0.00    +0.000 NA
ATOM     18  C   UNL     1       9.948  12.866  17.653  0.00  0.00    +0.000 C 
ATOM     19  C   UNL     1      10.557  11.448  17.801  0.00  0.00    +0.000 C 
ATOM     20  N   UNL     1       9.848  10.572  18.757  0.00  0.00    +0.000 NA
ATOM     21  C   UNL     1       9.700  11.317  20.030  0.00  0.00    +0.000 C 
ATOM     22  C   UNL     1       9.028  12.700  19.883  0.00  0.00    +0.000 C 
ENDBRANCH  15  20
ENDBRANCH  14  15
ENDBRANCH  13  14
ENDBRANCH   1  13
TORSDOF 5
ENDMDL
MODEL 3
REMARK VINA RESULT:      -7.3      0.180      1.023
REMARK  Name = 
REMARK  6 active torsions:
REMARK  status: ('A' for Active; 'I' for Inactive)
REMARK    1  A    between atoms: C_1  and  N_2
REMARK    2  A    between atoms: N_5  and  C_6
REMARK    3  A    between atoms: C_6  and  C_7
REMARK    4  A    between atoms: C_7  and  O_8
REMARK    5  A    between atoms: O_8  and  C_9
REMARK    6  A    between atoms: C_12  and  C_13
REMARK                            x       y       z     vdW  Elec       q    Type
REMARK                         _______ _______ _______ _____ _____    ______ ____
ROOT
ATOM      1  C   UNL     1       7.420   6.953  18.170  0.00  0.00    +0.000 A 
ATOM      2  C   UNL     1       6.340   7.175  17.316  0.00  0.00    +0.000 A 
ATOM      3  C   UNL     1       5.229   6.339  17.338  0.00  0.00    +0.000 A 
ATOM      4  C   UNL     1       5.157   5.233  18.194  0.00  0.00    +0.000 A 
ATOM      5  C   UNL     1       6.260   5.005  19.038  0.00  0.00    +0.000 A 
ATOM      6  C   UNL     1       7.378   5.859  19.031  0.00  0.00    +0.000 A 
ENDROOT
BRANCH   4   7
ATOM      7  C   UNL     1       3.933   4.402  18.203  0.00  0.00    +0.000 A 
ATOM      8  C   UNL     1       4.009   3.007  18.406  0.00  0.00    +0.000 A 
ATOM      9  C   UNL     1       2.884   2.189  18.299  0.00  0.00    +0.000 A 
ATOM     10  C   UNL     1       1.645   2.753  18.020  0.00  0.00    +0.000 A 
ATOM     11  C   UNL     1       1.536   4.130  17.852  0.00  0.00    +0.000 A 
ATOM     12  C   UNL     1       2.671   4.945  17.939  0.00  0.00    +0.000 A 
ENDBRANCH   4   7
BRANCH   1  13
ATOM     13  O   UNL     1       8.538   7.757  18.233  0.00  0.00    +0.000 OA
BRANCH  13  14
ATOM     14  C   UNL     1       8.233   9.141  18.024  0.00  0.00    +0.000 C 
BRANCH  14  15
ATOM     15  C   UNL     1       9.030  10.072  18.936  0.00  0.00    +0.000 C 
BRANCH  15  20
ATOM     16  C   UNL     1      10.302  14.185  21.149  0.00  0.00    +0.000 C 
ATOM     17  N   UNL     1      10.355  13.444  19.894  0.00  0.00    +0.000 NA
ATOM     18  C   UNL     1       9.001  13.188  19.364  0.00  0.00    +0.000 C 
ATOM     19  C   UNL     1       9.025  12.347  18.062  0.00  0.00    +0.000 C 
ATOM     20  N   UNL     1       9.785  11.082  18.162  0.00  0.00    +0.000 NA
ATOM     21  C   UNL     1      11.122  11.401  18.717  0.00  0.00    +0.000 C 
ATOM     22  C   UNL     1      11.088  12.178  20.050  0.00  0.00    +0.000 C 
ENDBRANCH  15  20
ENDBRANCH  14  15
ENDBRANCH  13  14
ENDBRANCH   1  13
TORSDOF 5
ENDMDL
MODEL 4
REMARK VINA RESULT:      -7.3      1.090      1.317
REMARK  Name = 
REMARK  6 active torsions:
REMARK  status: ('A' for Active; 'I' for Inactive)
REMARK    1  A    between atoms: C_1  and  N_2
REMARK    2  A    between atoms: N_5  and  C_6
REMARK    3  A    between atoms: C_6  and  C_7
REMARK    4  A    between atoms: C_7  and  O_8
REMARK    5  A    between atoms: O_8  and  C_9
REMARK    6  A    between atoms: C_12  and  C_13
REMARK                            x       y       z     vdW  Elec       q    Type
REMARK                         _______ _______ _______ _____ _____    ______ ____
ROOT
ATOM      1  C   UNL     1       6.829   7.010  17.397  0.00  0.00    +0.000 A 
ATOM      2  C   UNL     1       5.600   7.008  16.737  0.00  0.00    +0.000 A 
ATOM      3  C   UNL     1       4.604   6.103  17.086  0.00  0.00    +0.000 A 
ATOM      4  C   UNL     1       4.798   5.145  18.089  0.00  0.00    +0.000 A 
ATOM      5  C   UNL     1       6.048   5.141  18.735  0.00  0.00    +0.000 A 
ATOM      6  C   UNL     1       7.052   6.067  18.398  0.00  0.00    +0.000 A 
ENDROOT
BRANCH   4   7
ATOM      7  C   UNL     1       3.689   4.233  18.446  0.00  0.00    +0.000 A 
ATOM      8  C   UNL     1       2.430   4.345  17.817  0.00  0.00    +0.000 A 
ATOM      9  C   UNL     1       1.339   3.577  18.222  0.00  0.00    +0.000 A 
ATOM     10  C   UNL     1       1.489   2.650  19.246  0.00  0.00    +0.000 A 
ATOM     11  C   UNL     1       2.729   2.494  19.858  0.00  0.00    +0.000 A 
ATOM     12  C   UNL     1       3.817   3.281  19.464  0.00  0.00    +0.000 A 
ENDBRANCH   4   7
BRANCH   1  13
ATOM     13  O   UNL     1       7.850   7.897  17.133  0.00  0.00    +0.000 OA
BRANCH  13  14
ATOM     14  C   UNL     1       8.375   8.501  18.322  0.00  0.00    +0.000 C 
BRANCH  14  15
ATOM     15  C   UNL     1       8.508  10.018  18.214  0.00  0.00    +0.000 C 
BRANCH  15  20
ATOM     16  C   UNL     1       9.108  14.777  18.861  0.00  0.00    +0.000 C 
ATOM     17  N   UNL     1       9.740  13.471  18.992  0.00  0.00    +0.000 NA
ATOM     18  C   UNL     1       9.871  12.802  17.683  0.00  0.00    +0.000 C 
ATOM     19  C   UNL     1      10.483  11.384  17.800  0.00  0.00    +0.000 C 
ATOM     20  N   UNL     1       9.796  10.496  18.763  0.00  0.00    +0.000 NA
ATOM     21  C   UNL     1       9.678  11.227  20.047  0.00  0.00    +0.000 C 
ATOM     22  C   UNL     1       9.002  12.611  19.931  0.00  0.00    +0.000 C 
ENDBRANCH  15  20
ENDBRANCH  14  15
ENDBRANCH  13  14
ENDBRANCH   1  13
TORSDOF 5
ENDMDL
MODEL 5
REMARK VINA RESULT:      -7.3      1.020      1.566
REMARK  Name = 
REMARK  6 active torsions:
REMARK  status: ('A' for Active; 'I' for Inactive)
REMARK    1  A    between atoms: C_1  and  N_2
REMARK    2  A    between atoms: N_5  and  C_6
REMARK    3  A    between atoms: C_6  and  C_7
REMARK    4  A    between atoms: C_7  and  O_8
REMARK    5  A    between atoms: O_8  and  C_9
REMARK    6  A    between atoms: C_12  and  C_13
REMARK                            x       y       z     vdW  Elec       q    Type
REMARK                         _______ _______ _______ _____ _____    ______ ____
ROOT
ATOM      1  C   UNL     1       6.768   6.962  17.255  0.00  0.00    +0.000 A 
ATOM      2  C   UNL     1       5.650   6.796  16.438  0.00  0.00    +0.000 A 
ATOM      3  C   UNL     1       4.662   5.873  16.757  0.00  0.00    +0.000 A 
ATOM      4  C   UNL     1       4.757   5.056  17.892  0.00  0.00    +0.000 A 
ATOM      5  C   UNL     1       5.898   5.215  18.699  0.00  0.00    +0.000 A 
ATOM      6  C   UNL     1       6.892   6.161  18.389  0.00  0.00    +0.000 A 
ENDROOT
BRANCH   4   7
ATOM      7  C   UNL     1       3.656   4.118  18.205  0.00  0.00    +0.000 A 
ATOM      8  C   UNL     1       3.924   2.767  18.513  0.00  0.00    +0.000 A 
ATOM      9  C   UNL     1       2.898   1.840  18.692  0.00  0.00    +0.000 A 
ATOM     10  C   UNL     1       1.573   2.251  18.603  0.00  0.00    +0.000 A 
ATOM     11  C   UNL     1       1.282   3.585  18.337  0.00  0.00    +0.000 A 
ATOM     12  C   UNL     1       2.314   4.508  18.136  0.00  0.00    +0.000 A 
ENDBRANCH   4   7
BRANCH   1  13
ATOM     13  O   UNL     1       7.770   7.880  17.025  0.00  0.00    +0.000 OA
BRANCH  13  14
ATOM     14  C   UNL     1       8.320   8.409  18.237  0.00  0.00    +0.000 C 
BRANCH  14  15
ATOM     15  C   UNL     1       8.442   9.932  18.224  0.00  0.00    +0.000 C 
BRANCH  15  20
ATOM     16  C   UNL     1       9.024  14.639  19.185  0.00  0.00    +0.000 C 
ATOM     17  N   UNL     1       9.670  13.333  19.206  0.00  0.00    +0.000 NA
ATOM     18  C   UNL     1       9.767  12.759  17.850  0.00  0.00    +0.000 C 
ATOM     19  C   UNL     1      10.394  11.341  17.851  0.00  0.00    +0.000 C 
ATOM     20  N   UNL     1       9.742  10.382  18.768  0.00  0.00    +0.000 NA
ATOM     21  C   UNL     1       9.656  11.021  20.103  0.00  0.00    +0.000 C 
ATOM     22  C   UNL     1       8.967  12.402  20.103  0.00  0.00    +0.000 C 
ENDBRANCH  15  20
ENDBRANCH  14  15
ENDBRANCH  13  14
ENDBRANCH   1  13
TORSDOF 5
ENDMDL
MODEL 6
REMARK VINA RESULT:      -7.2      1.275      1.605
REMARK  Name = 
REMARK  6 active torsions:
REMARK  status: ('A' for Active; 'I' for Inactive)
REMARK    1  A    between atoms: C_1  and  N_2
REMARK    2  A    between atoms: N_5  and  C_6
REMARK    3  A    between atoms: C_6  and  C_7
REMARK    4  A    between atoms: C_7  and  O_8
REMARK    5  A    between atoms: O_8  and  C_9
REMARK    6  A    between atoms: C_12  and  C_13
REMARK                            x       y       z     vdW  Elec       q    Type
REMARK                         _______ _______ _______ _____ _____    ______ ____
ROOT
ATOM      1  C   UNL     1       6.436   6.985  17.454  0.00  0.00    +0.000 A 
ATOM      2  C   UNL     1       5.156   7.212  16.948  0.00  0.00    +0.000 A 
ATOM      3  C   UNL     1       4.066   6.480  17.407  0.00  0.00    +0.000 A 
ATOM      4  C   UNL     1       4.209   5.475  18.372  0.00  0.00    +0.000 A 
ATOM      5  C   UNL     1       5.507   5.238  18.862  0.00  0.00    +0.000 A 
ATOM      6  C   UNL     1       6.609   5.988  18.412  0.00  0.00    +0.000 A 
ENDROOT
BRANCH   4   7
ATOM      7  C   UNL     1       3.008   4.755  18.853  0.00  0.00    +0.000 A 
ATOM      8  C   UNL     1       2.514   4.966  20.158  0.00  0.00    +0.000 A 
ATOM      9  C   UNL     1       1.460   4.212  20.673  0.00  0.00    +0.000 A 
ATOM     10  C   UNL     1       0.848   3.250  19.879  0.00  0.00    +0.000 A 
ATOM     11  C   UNL     1       1.291   3.048  18.575  0.00  0.00    +0.000 A 
ATOM     12  C   UNL     1       2.364   3.791  18.070  0.00  0.00    +0.000 A 
ENDBRANCH   4   7
BRANCH   1  13
ATOM     13  O   UNL     1       7.556   7.692  17.076  0.00  0.00    +0.000 OA
BRANCH  13  14
ATOM     14  C   UNL     1       8.269   8.233  18.196  0.00  0.00    +0.000 C 
BRANCH  14  15
ATOM     15  C   UNL     1       8.381   9.756  18.153  0.00  0.00    +0.000 C 
BRANCH  15  20
ATOM     16  C   UNL     1       8.754  14.396  19.479  0.00  0.00    +0.000 C 
ATOM     17  N   UNL     1       9.463  13.126  19.385  0.00  0.00    +0.000 NA
ATOM     18  C   UNL     1       9.560  12.666  17.986  0.00  0.00    +0.000 C 
ATOM     19  C   UNL     1      10.254  11.286  17.863  0.00  0.00    +0.000 C 
ATOM     20  N   UNL     1       9.668  10.226  18.711  0.00  0.00    +0.000 NA
ATOM     21  C   UNL     1       9.578  10.751  20.094  0.00  0.00    +0.000 C 
ATOM     22  C   UNL     1       8.823  12.093  20.216  0.00  0.00    +0.000 C 
ENDBRANCH  15  20
ENDBRANCH  14  15
ENDBRANCH  13  14
ENDBRANCH   1  13
TORSDOF 5
ENDMDL
MODEL 7
REMARK VINA RESULT:      -7.2      1.078      1.732
REMARK  Name = 
REMARK  6 active torsions:
REMARK  status: ('A' for Active; 'I' for Inactive)
REMARK    1  A    between atoms: C_1  and  N_2
REMARK    2  A    between atoms: N_5  and  C_6
REMARK    3  A    between atoms: C_6  and  C_7
REMARK    4  A    between atoms: C_7  and  O_8
REMARK    5  A    between atoms: O_8  and  C_9
REMARK    6  A    between atoms: C_12  and  C_13
REMARK                            x       y       z     vdW  Elec       q    Type
REMARK                         _______ _______ _______ _____ _____    ______ ____
ROOT
ATOM      1  C   UNL     1       7.127   7.189  17.526  0.00  0.00    +0.000 A 
ATOM      2  C   UNL     1       7.437   6.141  18.393  0.00  0.00    +0.000 A 
ATOM      3  C   UNL     1       6.525   5.120  18.635  0.00  0.00    +0.000 A 
ATOM      4  C   UNL     1       5.256   5.111  18.041  0.00  0.00    +0.000 A 
ATOM      5  C   UNL     1       4.944   6.183  17.184  0.00  0.00    +0.000 A 
ATOM      6  C   UNL     1       5.871   7.209  16.924  0.00  0.00    +0.000 A 
ENDROOT
BRANCH   4   7
ATOM      7  C   UNL     1       4.341   3.979  18.303  0.00  0.00    +0.000 A 
ATOM      8  C   UNL     1       3.429   3.543  17.317  0.00  0.00    +0.000 A 
ATOM      9  C   UNL     1       2.477   2.559  17.582  0.00  0.00    +0.000 A 
ATOM     10  C   UNL     1       2.437   1.959  18.835  0.00  0.00    +0.000 A 
ATOM     11  C   UNL     1       3.348   2.344  19.814  0.00  0.00    +0.000 A 
ATOM     12  C   UNL     1       4.288   3.346  19.551  0.00  0.00    +0.000 A 
ENDBRANCH   4   7
BRANCH   1  13
ATOM     13  O   UNL     1       7.990   8.215  17.209  0.00  0.00    +0.000 OA
BRANCH  13  14
ATOM     14  C   UNL     1       8.458   8.917  18.367  0.00  0.00    +0.000 C 
BRANCH  14  15
ATOM     15  C   UNL     1       8.749  10.392  18.095  0.00  0.00    +0.000 C 
BRANCH  15  20
ATOM     16  C   UNL     1       9.395  15.135  18.813  0.00  0.00    +0.000 C 
ATOM     17  N   UNL     1       9.982  13.814  18.999  0.00  0.00    +0.000 NA
ATOM     18  C   UNL     1      10.220  13.144  17.705  0.00  0.00    +0.000 C 
ATOM     19  C   UNL     1      10.785  11.711  17.876  0.00  0.00    +0.000 C 
ATOM     20  N   UNL     1       9.990  10.838  18.766  0.00  0.00    +0.000 NA
ATOM     21  C   UNL     1       9.767  11.570  20.035  0.00  0.00    +0.000 C 
ATOM     22  C   UNL     1       9.138  12.970  19.860  0.00  0.00    +0.000 C 
ENDBRANCH  15  20
ENDBRANCH  14  15
ENDBRANCH  13  14
ENDBRANCH   1  13
TORSDOF 5
ENDMDL
MODEL 8
REMARK VINA RESULT:      -7.2      1.140      1.930
REMARK  Name = 
REMARK  6 active torsions:
REMARK  status: ('A' for Active; 'I' for Inactive)
REMARK    1  A    between atoms: C_1  and  N_2
REMARK    2  A    between atoms: N_5  and  C_6
REMARK    3  A    between atoms: C_6  and  C_7
REMARK    4  A    between atoms: C_7  and  O_8
REMARK    5  A    between atoms: O_8  and  C_9
REMARK    6  A    between atoms: C_12  and  C_13
REMARK                            x       y       z     vdW  Elec       q    Type
REMARK                         _______ _______ _______ _____ _____    ______ ____
ROOT
ATOM      1  C   UNL     1       6.927   7.029  17.323  0.00  0.00    +0.000 A 
ATOM      2  C   UNL     1       5.736   6.986  16.598  0.00  0.00    +0.000 A 
ATOM      3  C   UNL     1       4.744   6.063  16.906  0.00  0.00    +0.000 A 
ATOM      4  C   UNL     1       4.906   5.125  17.935  0.00  0.00    +0.000 A 
ATOM      5  C   UNL     1       6.118   5.161  18.648  0.00  0.00    +0.000 A 
ATOM      6  C   UNL     1       7.117   6.106  18.350  0.00  0.00    +0.000 A 
ENDROOT
BRANCH   4   7
ATOM      7  C   UNL     1       3.801   4.191  18.245  0.00  0.00    +0.000 A 
ATOM      8  C   UNL     1       4.065   2.909  18.772  0.00  0.00    +0.000 A 
ATOM      9  C   UNL     1       3.050   1.971  18.959  0.00  0.00    +0.000 A 
ATOM     10  C   UNL     1       1.736   2.306  18.656  0.00  0.00    +0.000 A 
ATOM     11  C   UNL     1       1.443   3.576  18.169  0.00  0.00    +0.000 A 
ATOM     12  C   UNL     1       2.467   4.508  17.963  0.00  0.00    +0.000 A 
ENDBRANCH   4   7
BRANCH   1  13
ATOM     13  O   UNL     1       7.939   7.937  17.102  0.00  0.00    +0.000 OA
BRANCH  13  14
ATOM     14  C   UNL     1       7.926   9.016  18.044  0.00  0.00    +0.000 C 
BRANCH  14  15
ATOM     15  C   UNL     1       9.111   9.966  17.881  0.00  0.00    +0.000 C 
BRANCH  15  20
ATOM     16  C   UNL     1      12.331  13.553  17.441  0.00  0.00    +0.000 C 
ATOM     17  N   UNL     1      11.202  13.058  18.218  0.00  0.00    +0.000 NA
ATOM     18  C   UNL     1      11.509  11.758  18.845  0.00  0.00    +0.000 C 
ATOM     19  C   UNL     1      10.303  11.177  19.627  0.00  0.00    +0.000 C 
ATOM     20  N   UNL     1       9.051  11.087  18.846  0.00  0.00    +0.000 NA
ATOM     21  C   UNL     1       8.807  12.412  18.227  0.00  0.00    +0.000 C 
ATOM     22  C   UNL     1       9.989  12.950  17.391  0.00  0.00    +0.000 C 
ENDBRANCH  15  20
ENDBRANCH  14  15
ENDBRANCH  13  14
ENDBRANCH   1  13
TORSDOF 5
ENDMDL
MODEL 9
REMARK VINA RESULT:      -7.1      0.428      1.092
REMARK  Name = 
REMARK  6 active torsions:
REMARK  status: ('A' for Active; 'I' for Inactive)
REMARK    1  A    between atoms: C_1  and  N_2
REMARK    2  A    between atoms: N_5  and  C_6
REMARK    3  A    between atoms: C_6  and  C_7
REMARK    4  A    between atoms: C_7  and  O_8
REMARK    5  A    between atoms: O_8  and  C_9
REMARK    6  A    between atoms: C_12  and  C_13
REMARK                            x       y       z     vdW  Elec       q    Type
REMARK                         _______ _______ _______ _____ _____    ______ ____
ROOT
ATOM      1  C   UNL     1       7.159   7.114  17.540  0.00  0.00    +0.000 A 
ATOM      2  C   UNL     1       7.246   5.942  18.291  0.00  0.00    +0.000 A 
ATOM      3  C   UNL     1       6.165   5.074  18.390  0.00  0.00    +0.000 A 
ATOM      4  C   UNL     1       4.942   5.349  17.765  0.00  0.00    +0.000 A 
ATOM      5  C   UNL     1       4.856   6.544  17.026  0.00  0.00    +0.000 A 
ATOM      6  C   UNL     1       5.954   7.415  16.909  0.00  0.00    +0.000 A 
ENDROOT
BRANCH   4   7
ATOM      7  C   UNL     1       3.837   4.371  17.871  0.00  0.00    +0.000 A 
ATOM      8  C   UNL     1       2.491   4.798  17.882  0.00  0.00    +0.000 A 
ATOM      9  C   UNL     1       1.442   3.907  18.101  0.00  0.00    +0.000 A 
ATOM     10  C   UNL     1       1.710   2.556  18.280  0.00  0.00    +0.000 A 
ATOM     11  C   UNL     1       3.025   2.102  18.238  0.00  0.00    +0.000 A 
ATOM     12  C   UNL     1       4.078   3.002  18.039  0.00  0.00    +0.000 A 
ENDBRANCH   4   7
BRANCH   1  13
ATOM     13  O   UNL     1       8.197   8.003  17.365  0.00  0.00    +0.000 OA
BRANCH  13  14
ATOM     14  C   UNL     1       7.887   9.314  17.853  0.00  0.00    +0.000 C 
BRANCH  14  15
ATOM     15  C   UNL     1       8.984   9.896  18.743  0.00  0.00    +0.000 C 
BRANCH  15  20
ATOM     16  C   UNL     1      10.144  13.885  21.227  0.00  0.00    +0.000 C 
ATOM     17  N   UNL     1      10.237  13.221  19.933  0.00  0.00    +0.000 NA
ATOM     18  C   UNL     1       8.901  12.980  19.354  0.00  0.00    +0.000 C 
ATOM     19  C   UNL     1       8.969  12.218  18.006  0.00  0.00    +0.000 C 
ATOM     20  N   UNL     1       9.744  10.960  18.049  0.00  0.00    +0.000 NA
ATOM     21  C   UNL     1      11.062  11.261  18.656  0.00  0.00    +0.000 C 
ATOM     22  C   UNL     1      10.984  11.957  20.032  0.00  0.00    +0.000 C 
ENDBRANCH  15  20
ENDBRANCH  14  15
ENDBRANCH  13  14
ENDBRANCH   1  13
TORSDOF 5
ENDMDL
