MODEL 1
REMARK VINA RESULT:      -7.3      0.000      0.000
REMARK  Name = 
REMARK  10 active torsions:
REMARK  status: ('A' for Active; 'I' for Inactive)
REMARK    1  A    between atoms: C_2  and  C_3
REMARK    2  A    between atoms: C_3  and  O_4
REMARK    3  A    between atoms: O_4  and  C_5
REMARK    4  A    between atoms: C_8  and  C_9
REMARK    5  A    between atoms: N_20  and  C_21
REMARK    6  A    between atoms: N_20  and  C_24
REMARK    7  A    between atoms: C_21  and  C_22
REMARK    8  A    between atoms: C_22  and  O_23
REMARK    9  A    between atoms: C_24  and  C_25
REMARK   10  A    between atoms: C_25  and  O_26
REMARK                            x       y       z     vdW  Elec       q    Type
REMARK                         _______ _______ _______ _____ _____    ______ ____
ROOT
ATOM      1  C   UNL     1       6.662   5.273  17.756  0.00  0.00    +0.000 A 
ATOM      2  C   UNL     1       7.667   5.480  18.699  0.00  0.00    +0.000 A 
ATOM      3  C   UNL     1       8.215   6.752  18.879  0.00  0.00    +0.000 A 
ATOM      4  C   UNL     1       7.777   7.845  18.123  0.00  0.00    +0.000 A 
ATOM      5  C   UNL     1       6.776   7.631  17.166  0.00  0.00    +0.000 A 
ATOM      6  C   UNL     1       6.232   6.351  16.983  0.00  0.00    +0.000 A 
ENDROOT
BRANCH   4   7
ATOM      7  C   UNL     1       8.395   9.155  18.339  0.00  0.00    +0.000 A 
ATOM      8  C   UNL     1       8.374  10.287  17.540  0.00  0.00    +0.000 A 
ATOM      9  C   UNL     1       9.197  11.281  18.124  0.00  0.00    +0.000 A 
ATOM     10  C   UNL     1       9.558  12.587  17.756  0.00  0.00    +0.000 A 
ATOM     11  C   UNL     1      10.458  13.299  18.557  0.00  0.00    +0.000 A 
ATOM     12  C   UNL     1      10.991  12.723  19.708  0.00  0.00    +0.000 A 
ATOM     13  C   UNL     1      10.628  11.429  20.107  0.00  0.00    +0.000 A 
ATOM     14  C   UNL     1       9.724  10.732  19.291  0.00  0.00    +0.000 A 
ATOM     15  N   UNL     1       9.192   9.467  19.422  0.00  0.00    +0.000 N 
ATOM     16  H   UNL     1       9.406   8.838  20.178  0.00  0.00    +0.000 HD
ENDBRANCH   4   7
BRANCH   1  17
ATOM     17  O   UNL     1       6.068   4.065  17.491  0.00  0.00    +0.000 OA
BRANCH  17  18
ATOM     18  C   UNL     1       4.840   4.146  16.771  0.00  0.00    +0.000 C 
BRANCH  18  20
ATOM     19  O   UNL     1       3.763   2.121  17.484  0.00  0.00    +0.000 OA
ATOM     20  C   UNL     1       3.721   3.355  17.468  0.00  0.00    +0.000 C 
ATOM     21  N   UNL     1       2.703   4.037  18.136  0.00  0.00    +0.000 N 
BRANCH  21  22
ATOM     22  C   UNL     1       1.649   3.243  18.795  0.00  0.00    +0.000 C 
BRANCH  22  23
ATOM     23  C   UNL     1       1.941   2.850  20.248  0.00  0.00    +0.000 C 
BRANCH  23  24
ATOM     24  O   UNL     1       0.758   2.954  21.039  0.00  0.00    +0.000 OA
ATOM     25  H   UNL     1       0.179   3.573  20.566  0.00  0.00    +0.000 HD
ENDBRANCH  23  24
ENDBRANCH  22  23
ENDBRANCH  21  22
BRANCH  21  26
ATOM     26  C   UNL     1       2.453   5.481  17.996  0.00  0.00    +0.000 C 
BRANCH  26  27
ATOM     27  C   UNL     1       2.734   6.267  19.280  0.00  0.00    +0.000 C 
BRANCH  27  28
ATOM     28  O   UNL     1       3.931   5.831  19.915  0.00  0.00    +0.000 OA
ATOM     29  H   UNL     1       3.792   5.936  20.871  0.00  0.00    +0.000 HD
ENDBRANCH  27  28
ENDBRANCH  26  27
ENDBRANCH  21  26
ENDBRANCH  18  20
ENDBRANCH  17  18
ENDBRANCH   1  17
TORSDOF 10
ENDMDL
MODEL 2
REMARK VINA RESULT:      -7.2      1.037      1.398
REMARK  Name = 
REMARK  10 active torsions:
REMARK  status: ('A' for Active; 'I' for Inactive)
REMARK    1  A    between atoms: C_2  and  C_3
REMARK    2  A    between atoms: C_3  and  O_4
REMARK    3  A    between atoms: O_4  and  C_5
REMARK    4  A    between atoms: C_8  and  C_9
REMARK    5  A    between atoms: N_20  and  C_21
REMARK    6  A    between atoms: N_20  and  C_24
REMARK    7  A    between atoms: C_21  and  C_22
REMARK    8  A    between atoms: C_22  and  O_23
REMARK    9  A    between atoms: C_24  and  C_25
REMARK   10  A    between atoms: C_25  and  O_26
REMARK                            x       y       z     vdW  Elec       q    Type
REMARK                         _______ _______ _______ _____ _____    ______ ____
ROOT
ATOM      1  C   UNL     1       7.144   5.466  17.921  0.00  0.00    +0.000 A 
ATOM      2  C   UNL     1       7.943   5.767  19.022  0.00  0.00    +0.000 A 
ATOM      3  C   UNL     1       8.432   7.062  19.206  0.00  0.00    +0.000 A 
ATOM      4  C   UNL     1       8.139   8.085  18.297  0.00  0.00    +0.000 A 
ATOM      5  C   UNL     1       7.347   7.776  17.184  0.00  0.00    +0.000 A 
ATOM      6  C   UNL     1       6.862   6.473  16.997  0.00  0.00    +0.000 A 
ENDROOT
BRANCH   4   7
ATOM      7  C   UNL     1       8.690   9.423  18.527  0.00  0.00    +0.000 A 
ATOM      8  C   UNL     1       8.698  10.532  17.697  0.00  0.00    +0.000 A 
ATOM      9  C   UNL     1       9.432  11.571  18.320  0.00  0.00    +0.000 A 
ATOM     10  C   UNL     1       9.778  12.880  17.946  0.00  0.00    +0.000 A 
ATOM     11  C   UNL     1      10.580  13.645  18.800  0.00  0.00    +0.000 A 
ATOM     12  C   UNL     1      11.032  13.119  20.008  0.00  0.00    +0.000 A 
ATOM     13  C   UNL     1      10.681  11.823  20.412  0.00  0.00    +0.000 A 
ATOM     14  C   UNL     1       9.876  11.072  19.543  0.00  0.00    +0.000 A 
ATOM     15  N   UNL     1       9.380   9.792  19.665  0.00  0.00    +0.000 N 
ATOM     16  H   UNL     1       9.550   9.191  20.454  0.00  0.00    +0.000 HD
ENDBRANCH   4   7
BRANCH   1  17
ATOM     17  O   UNL     1       6.625   4.228  17.640  0.00  0.00    +0.000 OA
BRANCH  17  18
ATOM     18  C   UNL     1       5.202   4.178  17.553  0.00  0.00    +0.000 C 
BRANCH  18  20
ATOM     19  O   UNL     1       5.151   3.123  19.710  0.00  0.00    +0.000 OA
ATOM     20  C   UNL     1       4.562   3.863  18.915  0.00  0.00    +0.000 C 
ATOM     21  N   UNL     1       3.356   4.466  19.271  0.00  0.00    +0.000 N 
BRANCH  21  22
ATOM     22  C   UNL     1       2.775   4.140  20.587  0.00  0.00    +0.000 C 
BRANCH  22  23
ATOM     23  C   UNL     1       2.094   2.770  20.677  0.00  0.00    +0.000 C 
BRANCH  23  24
ATOM     24  O   UNL     1       0.697   2.923  20.924  0.00  0.00    +0.000 OA
ATOM     25  H   UNL     1       0.530   3.879  20.907  0.00  0.00    +0.000 HD
ENDBRANCH  23  24
ENDBRANCH  22  23
ENDBRANCH  21  22
BRANCH  21  26
ATOM     26  C   UNL     1       2.487   5.185  18.324  0.00  0.00    +0.000 C 
BRANCH  26  27
ATOM     27  C   UNL     1       1.422   4.289  17.684  0.00  0.00    +0.000 C 
BRANCH  27  28
ATOM     28  O   UNL     1       2.008   3.232  16.930  0.00  0.00    +0.000 OA
ATOM     29  H   UNL     1       2.439   2.641  17.570  0.00  0.00    +0.000 HD
ENDBRANCH  27  28
ENDBRANCH  26  27
ENDBRANCH  21  26
ENDBRANCH  18  20
ENDBRANCH  17  18
ENDBRANCH   1  17
TORSDOF 10
ENDMDL
MODEL 3
REMARK VINA RESULT:      -7.2      1.047      2.123
REMARK  Name = 
REMARK  10 active torsions:
REMARK  status: ('A' for Active; 'I' for Inactive)
REMARK    1  A    between atoms: C_2  and  C_3
REMARK    2  A    between atoms: C_3  and  O_4
REMARK    3  A    between atoms: O_4  and  C_5
REMARK    4  A    between atoms: C_8  and  C_9
REMARK    5  A    between atoms: N_20  and  C_21
REMARK    6  A    between atoms: N_20  and  C_24
REMARK    7  A    between atoms: C_21  and  C_22
REMARK    8  A    between atoms: C_22  and  O_23
REMARK    9  A    between atoms: C_24  and  C_25
REMARK   10  A    between atoms: C_25  and  O_26
REMARK                            x       y       z     vdW  Elec       q    Type
REMARK                         _______ _______ _______ _____ _____    ______ ____
ROOT
ATOM      1  C   UNL     1       6.686   5.756  17.714  0.00  0.00    +0.000 A 
ATOM      2  C   UNL     1       6.381   6.907  16.990  0.00  0.00    +0.000 A 
ATOM      3  C   UNL     1       7.050   8.104  17.253  0.00  0.00    +0.000 A 
ATOM      4  C   UNL     1       8.034   8.183  18.246  0.00  0.00    +0.000 A 
ATOM      5  C   UNL     1       8.328   7.028  18.981  0.00  0.00    +0.000 A 
ATOM      6  C   UNL     1       7.651   5.828  18.719  0.00  0.00    +0.000 A 
ENDROOT
BRANCH   4   7
ATOM      7  C   UNL     1       8.695   9.467  18.494  0.00  0.00    +0.000 A 
ATOM      8  C   UNL     1       8.870  10.550  17.649  0.00  0.00    +0.000 A 
ATOM      9  C   UNL     1       9.656  11.528  18.307  0.00  0.00    +0.000 A 
ATOM     10  C   UNL     1      10.154  12.789  17.937  0.00  0.00    +0.000 A 
ATOM     11  C   UNL     1      10.964  13.493  18.835  0.00  0.00    +0.000 A 
ATOM     12  C   UNL     1      11.276  12.954  20.082  0.00  0.00    +0.000 A 
ATOM     13  C   UNL     1      10.772  11.708  20.480  0.00  0.00    +0.000 A 
ATOM     14  C   UNL     1       9.961  11.018  19.567  0.00  0.00    +0.000 A 
ATOM     15  N   UNL     1       9.335   9.794  19.672  0.00  0.00    +0.000 N 
ATOM     16  H   UNL     1       9.389   9.198  20.481  0.00  0.00    +0.000 HD
ENDBRANCH   4   7
BRANCH   1  17
ATOM     17  O   UNL     1       6.081   4.537  17.545  0.00  0.00    +0.000 OA
BRANCH  17  18
ATOM     18  C   UNL     1       4.694   4.594  17.216  0.00  0.00    +0.000 C 
BRANCH  18  20
ATOM     19  O   UNL     1       3.374   6.012  18.637  0.00  0.00    +0.000 OA
ATOM     20  C   UNL     1       3.830   4.878  18.456  0.00  0.00    +0.000 C 
ATOM     21  N   UNL     1       3.511   3.840  19.332  0.00  0.00    +0.000 N 
BRANCH  21  22
ATOM     22  C   UNL     1       2.679   4.152  20.508  0.00  0.00    +0.000 C 
BRANCH  22  23
ATOM     23  C   UNL     1       1.173   4.246  20.235  0.00  0.00    +0.000 C 
BRANCH  23  24
ATOM     24  O   UNL     1       0.598   2.942  20.156  0.00  0.00    +0.000 OA
ATOM     25  H   UNL     1       0.944   2.456  20.922  0.00  0.00    +0.000 HD
ENDBRANCH  23  24
ENDBRANCH  22  23
ENDBRANCH  21  22
BRANCH  21  26
ATOM     26  C   UNL     1       4.170   2.524  19.318  0.00  0.00    +0.000 C 
BRANCH  26  27
ATOM     27  C   UNL     1       3.310   1.426  18.684  0.00  0.00    +0.000 C 
BRANCH  27  28
ATOM     28  O   UNL     1       2.344   1.966  17.787  0.00  0.00    +0.000 OA
ATOM     29  H   UNL     1       1.941   2.726  18.239  0.00  0.00    +0.000 HD
ENDBRANCH  27  28
ENDBRANCH  26  27
ENDBRANCH  21  26
ENDBRANCH  18  20
ENDBRANCH  17  18
ENDBRANCH   1  17
TORSDOF 10
ENDMDL
MODEL 4
REMARK VINA RESULT:      -7.2      0.984      1.050
REMARK  Name = 
REMARK  10 active torsions:
REMARK  status: ('A' for Active; 'I' for Inactive)
REMARK    1  A    between atoms: C_2  and  C_3
REMARK    2  A    between atoms: C_3  and  O_4
REMARK    3  A    between atoms: O_4  and  C_5
REMARK    4  A    between atoms: C_8  and  C_9
REMARK    5  A    between atoms: N_20  and  C_21
REMARK    6  A    between atoms: N_20  and  C_24
REMARK    7  A    between atoms: C_21  and  C_22
REMARK    8  A    between atoms: C_22  and  O_23
REMARK    9  A    between atoms: C_24  and  C_25
REMARK   10  A    between atoms: C_25  and  O_26
REMARK                            x       y       z     vdW  Elec       q    Type
REMARK                         _______ _______ _______ _____ _____    ______ ____
ROOT
ATOM      1  C   UNL     1       6.827   5.418  17.776  0.00  0.00    +0.000 A 
ATOM      2  C   UNL     1       7.766   5.637  18.781  0.00  0.00    +0.000 A 
ATOM      3  C   UNL     1       8.308   6.910  18.976  0.00  0.00    +0.000 A 
ATOM      4  C   UNL     1       7.931   7.991  18.172  0.00  0.00    +0.000 A 
ATOM      5  C   UNL     1       6.996   7.764  17.153  0.00  0.00    +0.000 A 
ATOM      6  C   UNL     1       6.457   6.484  16.955  0.00  0.00    +0.000 A 
ENDROOT
BRANCH   4   7
ATOM      7  C   UNL     1       8.541   9.302  18.406  0.00  0.00    +0.000 A 
ATOM      8  C   UNL     1       8.561  10.426  17.597  0.00  0.00    +0.000 A 
ATOM      9  C   UNL     1       9.358  11.423  18.212  0.00  0.00    +0.000 A 
ATOM     10  C   UNL     1       9.740  12.726  17.849  0.00  0.00    +0.000 A 
ATOM     11  C   UNL     1      10.602  13.443  18.686  0.00  0.00    +0.000 A 
ATOM     12  C   UNL     1      11.077  12.875  19.867  0.00  0.00    +0.000 A 
ATOM     13  C   UNL     1      10.692  11.586  20.259  0.00  0.00    +0.000 A 
ATOM     14  C   UNL     1       9.827  10.884  19.407  0.00  0.00    +0.000 A 
ATOM     15  N   UNL     1       9.286   9.621  19.524  0.00  0.00    +0.000 N 
ATOM     16  H   UNL     1       9.461   8.998  20.294  0.00  0.00    +0.000 HD
ENDBRANCH   4   7
BRANCH   1  17
ATOM     17  O   UNL     1       6.244   4.209  17.493  0.00  0.00    +0.000 OA
BRANCH  17  18
ATOM     18  C   UNL     1       4.824   4.183  17.617  0.00  0.00    +0.000 C 
BRANCH  18  20
ATOM     19  O   UNL     1       5.047   2.856  19.607  0.00  0.00    +0.000 OA
ATOM     20  C   UNL     1       4.386   3.715  19.015  0.00  0.00    +0.000 C 
ATOM     21  N   UNL     1       3.286   4.311  19.632  0.00  0.00    +0.000 N 
BRANCH  21  22
ATOM     22  C   UNL     1       2.898   3.836  20.974  0.00  0.00    +0.000 C 
BRANCH  22  23
ATOM     23  C   UNL     1       1.931   2.647  20.991  0.00  0.00    +0.000 C 
BRANCH  23  24
ATOM     24  O   UNL     1       1.258   2.569  22.247  0.00  0.00    +0.000 OA
ATOM     25  H   UNL     1       1.042   3.485  22.486  0.00  0.00    +0.000 HD
ENDBRANCH  23  24
ENDBRANCH  22  23
ENDBRANCH  21  22
BRANCH  21  26
ATOM     26  C   UNL     1       2.323   5.178  18.934  0.00  0.00    +0.000 C 
BRANCH  26  27
ATOM     27  C   UNL     1       2.643   6.669  19.074  0.00  0.00    +0.000 C 
BRANCH  27  28
ATOM     28  O   UNL     1       2.349   7.151  20.381  0.00  0.00    +0.000 OA
ATOM     29  H   UNL     1       2.375   6.380  20.972  0.00  0.00    +0.000 HD
ENDBRANCH  27  28
ENDBRANCH  26  27
ENDBRANCH  21  26
ENDBRANCH  18  20
ENDBRANCH  17  18
ENDBRANCH   1  17
TORSDOF 10
ENDMDL
MODEL 5
REMARK VINA RESULT:      -7.1      3.995      7.405
REMARK  Name = 
REMARK  10 active torsions:
REMARK  status: ('A' for Active; 'I' for Inactive)
REMARK    1  A    between atoms: C_2  and  C_3
REMARK    2  A    between atoms: C_3  and  O_4
REMARK    3  A    between atoms: O_4  and  C_5
REMARK    4  A    between atoms: C_8  and  C_9
REMARK    5  A    between atoms: N_20  and  C_21
REMARK    6  A    between atoms: N_20  and  C_24
REMARK    7  A    between atoms: C_21  and  C_22
REMARK    8  A    between atoms: C_22  and  O_23
REMARK    9  A    between atoms: C_24  and  C_25
REMARK   10  A    between atoms: C_25  and  O_26
REMARK                            x       y       z     vdW  Elec       q    Type
REMARK                         _______ _______ _______ _____ _____    ______ ____
ROOT
ATOM      1  C   UNL     1       2.586   4.999  18.945  0.00  0.00    +0.000 A 
ATOM      2  C   UNL     1       2.674   6.247  18.333  0.00  0.00    +0.000 A 
ATOM      3  C   UNL     1       2.164   7.383  18.967  0.00  0.00    +0.000 A 
ATOM      4  C   UNL     1       1.551   7.300  20.223  0.00  0.00    +0.000 A 
ATOM      5  C   UNL     1       1.452   6.041  20.830  0.00  0.00    +0.000 A 
ATOM      6  C   UNL     1       1.960   4.902  20.189  0.00  0.00    +0.000 A 
ENDROOT
BRANCH   4   7
ATOM      7  C   UNL     1       1.018   8.518  20.838  0.00  0.00    +0.000 A 
ATOM      8  C   UNL     1       0.230   8.666  21.967  0.00  0.00    +0.000 A 
ATOM      9  C   UNL     1      -0.114  10.033  22.114  0.00  0.00    +0.000 A 
ATOM     10  C   UNL     1      -0.890  10.748  23.041  0.00  0.00    +0.000 A 
ATOM     11  C   UNL     1      -1.073  12.124  22.861  0.00  0.00    +0.000 A 
ATOM     12  C   UNL     1      -0.493  12.780  21.777  0.00  0.00    +0.000 A 
ATOM     13  C   UNL     1       0.303  12.090  20.852  0.00  0.00    +0.000 A 
ATOM     14  C   UNL     1       0.475  10.713  21.050  0.00  0.00    +0.000 A 
ATOM     15  N   UNL     1       1.188   9.786  20.320  0.00  0.00    +0.000 N 
ATOM     16  H   UNL     1       1.712  10.002  19.488  0.00  0.00    +0.000 HD
ENDBRANCH   4   7
BRANCH   1  17
ATOM     17  O   UNL     1       3.041   3.823  18.405  0.00  0.00    +0.000 OA
BRANCH  17  18
ATOM     18  C   UNL     1       4.085   3.968  17.445  0.00  0.00    +0.000 C 
BRANCH  18  20
ATOM     19  O   UNL     1       5.625   3.708  19.270  0.00  0.00    +0.000 OA
ATOM     20  C   UNL     1       5.457   4.127  18.120  0.00  0.00    +0.000 C 
ATOM     21  N   UNL     1       6.521   4.680  17.407  0.00  0.00    +0.000 N 
BRANCH  21  22
ATOM     22  C   UNL     1       7.822   4.814  18.089  0.00  0.00    +0.000 C 
BRANCH  22  23
ATOM     23  C   UNL     1       7.913   5.961  19.101  0.00  0.00    +0.000 C 
BRANCH  23  24
ATOM     24  O   UNL     1       7.906   5.452  20.434  0.00  0.00    +0.000 OA
ATOM     25  H   UNL     1       7.837   4.487  20.346  0.00  0.00    +0.000 HD
ENDBRANCH  23  24
ENDBRANCH  22  23
ENDBRANCH  21  22
BRANCH  21  26
ATOM     26  C   UNL     1       6.369   5.391  16.127  0.00  0.00    +0.000 C 
BRANCH  26  27
ATOM     27  C   UNL     1       6.738   4.531  14.914  0.00  0.00    +0.000 C 
BRANCH  27  28
ATOM     28  O   UNL     1       5.625   4.341  14.046  0.00  0.00    +0.000 OA
ATOM     29  H   UNL     1       4.850   4.205  14.615  0.00  0.00    +0.000 HD
ENDBRANCH  27  28
ENDBRANCH  26  27
ENDBRANCH  21  26
ENDBRANCH  18  20
ENDBRANCH  17  18
ENDBRANCH   1  17
TORSDOF 10
ENDMDL
MODEL 6
REMARK VINA RESULT:      -7.1      0.846      1.289
REMARK  Name = 
REMARK  10 active torsions:
REMARK  status: ('A' for Active; 'I' for Inactive)
REMARK    1  A    between atoms: C_2  and  C_3
REMARK    2  A    between atoms: C_3  and  O_4
REMARK    3  A    between atoms: O_4  and  C_5
REMARK    4  A    between atoms: C_8  and  C_9
REMARK    5  A    between atoms: N_20  and  C_21
REMARK    6  A    between atoms: N_20  and  C_24
REMARK    7  A    between atoms: C_21  and  C_22
REMARK    8  A    between atoms: C_22  and  O_23
REMARK    9  A    between atoms: C_24  and  C_25
REMARK   10  A    between atoms: C_25  and  O_26
REMARK                            x       y       z     vdW  Elec       q    Type
REMARK                         _______ _______ _______ _____ _____    ______ ____
ROOT
ATOM      1  C   UNL     1       6.666   5.578  17.720  0.00  0.00    +0.000 A 
ATOM      2  C   UNL     1       6.301   6.724  17.018  0.00  0.00    +0.000 A 
ATOM      3  C   UNL     1       6.948   7.938  17.263  0.00  0.00    +0.000 A 
ATOM      4  C   UNL     1       7.968   8.038  18.215  0.00  0.00    +0.000 A 
ATOM      5  C   UNL     1       8.323   6.886  18.930  0.00  0.00    +0.000 A 
ATOM      6  C   UNL     1       7.669   5.670  18.686  0.00  0.00    +0.000 A 
ENDROOT
BRANCH   4   7
ATOM      7  C   UNL     1       8.604   9.338  18.446  0.00  0.00    +0.000 A 
ATOM      8  C   UNL     1       8.784  10.401  17.577  0.00  0.00    +0.000 A 
ATOM      9  C   UNL     1       9.538  11.408  18.229  0.00  0.00    +0.000 A 
ATOM     10  C   UNL     1      10.026  12.666  17.839  0.00  0.00    +0.000 A 
ATOM     11  C   UNL     1      10.804  13.406  18.738  0.00  0.00    +0.000 A 
ATOM     12  C   UNL     1      11.091  12.904  20.006  0.00  0.00    +0.000 A 
ATOM     13  C   UNL     1      10.596  11.660  20.424  0.00  0.00    +0.000 A 
ATOM     14  C   UNL     1       9.819  10.935  19.509  0.00  0.00    +0.000 A 
ATOM     15  N   UNL     1       9.208   9.705  19.631  0.00  0.00    +0.000 N 
ATOM     16  H   UNL     1       9.251   9.131  20.457  0.00  0.00    +0.000 HD
ENDBRANCH   4   7
BRANCH   1  17
ATOM     17  O   UNL     1       6.088   4.343  17.567  0.00  0.00    +0.000 OA
BRANCH  17  18
ATOM     18  C   UNL     1       5.290   3.913  18.668  0.00  0.00    +0.000 C 
BRANCH  18  20
ATOM     19  O   UNL     1       3.734   2.406  17.628  0.00  0.00    +0.000 OA
ATOM     20  C   UNL     1       3.885   3.483  18.215  0.00  0.00    +0.000 C 
ATOM     21  N   UNL     1       2.782   4.277  18.528  0.00  0.00    +0.000 N 
BRANCH  21  22
ATOM     22  C   UNL     1       1.450   3.830  18.078  0.00  0.00    +0.000 C 
BRANCH  22  23
ATOM     23  C   UNL     1       0.882   2.620  18.827  0.00  0.00    +0.000 C 
BRANCH  23  24
ATOM     24  O   UNL     1       0.413   3.009  20.118  0.00  0.00    +0.000 OA
ATOM     25  H   UNL     1       0.873   2.432  20.749  0.00  0.00    +0.000 HD
ENDBRANCH  23  24
ENDBRANCH  22  23
ENDBRANCH  21  22
BRANCH  21  26
ATOM     26  C   UNL     1       2.881   5.658  19.029  0.00  0.00    +0.000 C 
BRANCH  26  27
ATOM     27  C   UNL     1       2.078   5.893  20.312  0.00  0.00    +0.000 C 
BRANCH  27  28
ATOM     28  O   UNL     1       2.246   7.218  20.803  0.00  0.00    +0.000 OA
ATOM     29  H   UNL     1       1.357   7.607  20.863  0.00  0.00    +0.000 HD
ENDBRANCH  27  28
ENDBRANCH  26  27
ENDBRANCH  21  26
ENDBRANCH  18  20
ENDBRANCH  17  18
ENDBRANCH   1  17
TORSDOF 10
ENDMDL
MODEL 7
REMARK VINA RESULT:      -7.1      1.107      2.179
REMARK  Name = 
REMARK  10 active torsions:
REMARK  status: ('A' for Active; 'I' for Inactive)
REMARK    1  A    between atoms: C_2  and  C_3
REMARK    2  A    between atoms: C_3  and  O_4
REMARK    3  A    between atoms: O_4  and  C_5
REMARK    4  A    between atoms: C_8  and  C_9
REMARK    5  A    between atoms: N_20  and  C_21
REMARK    6  A    between atoms: N_20  and  C_24
REMARK    7  A    between atoms: C_21  and  C_22
REMARK    8  A    between atoms: C_22  and  O_23
REMARK    9  A    between atoms: C_24  and  C_25
REMARK   10  A    between atoms: C_25  and  O_26
REMARK                            x       y       z     vdW  Elec       q    Type
REMARK                         _______ _______ _______ _____ _____    ______ ____
ROOT
ATOM      1  C   UNL     1       6.791   5.846  17.718  0.00  0.00    +0.000 A 
ATOM      2  C   UNL     1       6.515   6.985  16.964  0.00  0.00    +0.000 A 
ATOM      3  C   UNL     1       7.162   8.191  17.244  0.00  0.00    +0.000 A 
ATOM      4  C   UNL     1       8.094   8.291  18.284  0.00  0.00    +0.000 A 
ATOM      5  C   UNL     1       8.358   7.148  19.049  0.00  0.00    +0.000 A 
ATOM      6  C   UNL     1       7.704   5.939  18.770  0.00  0.00    +0.000 A 
ENDROOT
BRANCH   4   7
ATOM      7  C   UNL     1       8.732   9.583  18.547  0.00  0.00    +0.000 A 
ATOM      8  C   UNL     1       8.854  10.693  17.728  0.00  0.00    +0.000 A 
ATOM      9  C   UNL     1       9.638  11.671  18.388  0.00  0.00    +0.000 A 
ATOM     10  C   UNL     1      10.094  12.953  18.039  0.00  0.00    +0.000 A 
ATOM     11  C   UNL     1      10.917  13.652  18.930  0.00  0.00    +0.000 A 
ATOM     12  C   UNL     1      11.282  13.086  20.150  0.00  0.00    +0.000 A 
ATOM     13  C   UNL     1      10.821  11.817  20.528  0.00  0.00    +0.000 A 
ATOM     14  C   UNL     1       9.997  11.133  19.622  0.00  0.00    +0.000 A 
ATOM     15  N   UNL     1       9.403   9.893  19.713  0.00  0.00    +0.000 N 
ATOM     16  H   UNL     1       9.498   9.276  20.503  0.00  0.00    +0.000 HD
ENDBRANCH   4   7
BRANCH   1  17
ATOM     17  O   UNL     1       6.204   4.620  17.536  0.00  0.00    +0.000 OA
BRANCH  17  18
ATOM     18  C   UNL     1       5.638   4.044  18.712  0.00  0.00    +0.000 C 
BRANCH  18  20
ATOM     19  O   UNL     1       4.014   5.516  19.694  0.00  0.00    +0.000 OA
ATOM     20  C   UNL     1       4.205   4.545  18.955  0.00  0.00    +0.000 C 
ATOM     21  N   UNL     1       3.138   3.943  18.288  0.00  0.00    +0.000 N 
BRANCH  21  22
ATOM     22  C   UNL     1       1.778   4.452  18.546  0.00  0.00    +0.000 C 
BRANCH  22  23
ATOM     23  C   UNL     1       1.188   4.074  19.908  0.00  0.00    +0.000 C 
BRANCH  23  24
ATOM     24  O   UNL     1       1.187   5.202  20.782  0.00  0.00    +0.000 OA
ATOM     25  H   UNL     1       1.777   4.966  21.516  0.00  0.00    +0.000 HD
ENDBRANCH  23  24
ENDBRANCH  22  23
ENDBRANCH  21  22
BRANCH  21  26
ATOM     26  C   UNL     1       3.239   2.665  17.564  0.00  0.00    +0.000 C 
BRANCH  26  27
ATOM     27  C   UNL     1       3.130   1.442  18.480  0.00  0.00    +0.000 C 
BRANCH  27  28
ATOM     28  O   UNL     1       4.369   0.749  18.583  0.00  0.00    +0.000 OA
ATOM     29  H   UNL     1       4.756   0.739  17.691  0.00  0.00    +0.000 HD
ENDBRANCH  27  28
ENDBRANCH  26  27
ENDBRANCH  21  26
ENDBRANCH  18  20
ENDBRANCH  17  18
ENDBRANCH   1  17
TORSDOF 10
ENDMDL
MODEL 8
REMARK VINA RESULT:      -7.0      1.123      1.527
REMARK  Name = 
REMARK  10 active torsions:
REMARK  status: ('A' for Active; 'I' for Inactive)
REMARK    1  A    between atoms: C_2  and  C_3
REMARK    2  A    between atoms: C_3  and  O_4
REMARK    3  A    between atoms: O_4  and  C_5
REMARK    4  A    between atoms: C_8  and  C_9
REMARK    5  A    between atoms: N_20  and  C_21
REMARK    6  A    between atoms: N_20  and  C_24
REMARK    7  A    between atoms: C_21  and  C_22
REMARK    8  A    between atoms: C_22  and  O_23
REMARK    9  A    between atoms: C_24  and  C_25
REMARK   10  A    between atoms: C_25  and  O_26
REMARK                            x       y       z     vdW  Elec       q    Type
REMARK                         _______ _______ _______ _____ _____    ______ ____
ROOT
ATOM      1  C   UNL     1       6.768   5.908  17.839  0.00  0.00    +0.000 A 
ATOM      2  C   UNL     1       7.762   5.982  18.812  0.00  0.00    +0.000 A 
ATOM      3  C   UNL     1       8.435   7.184  19.045  0.00  0.00    +0.000 A 
ATOM      4  C   UNL     1       8.134   8.338  18.311  0.00  0.00    +0.000 A 
ATOM      5  C   UNL     1       7.144   8.256  17.324  0.00  0.00    +0.000 A 
ATOM      6  C   UNL     1       6.474   7.047  17.088  0.00  0.00    +0.000 A 
ENDROOT
BRANCH   4   7
ATOM      7  C   UNL     1       8.880   9.569  18.582  0.00  0.00    +0.000 A 
ATOM      8  C   UNL     1       9.375  10.058  19.780  0.00  0.00    +0.000 A 
ATOM      9  C   UNL     1       9.943  11.337  19.557  0.00  0.00    +0.000 A 
ATOM     10  C   UNL     1      10.560  12.287  20.388  0.00  0.00    +0.000 A 
ATOM     11  C   UNL     1      10.975  13.507  19.840  0.00  0.00    +0.000 A 
ATOM     12  C   UNL     1      10.781  13.778  18.487  0.00  0.00    +0.000 A 
ATOM     13  C   UNL     1      10.187  12.836  17.636  0.00  0.00    +0.000 A 
ATOM     14  C   UNL     1       9.779  11.620  18.203  0.00  0.00    +0.000 A 
ATOM     15  N   UNL     1       9.176  10.522  17.628  0.00  0.00    +0.000 N 
ATOM     16  H   UNL     1       8.933  10.455  16.654  0.00  0.00    +0.000 HD
ENDBRANCH   4   7
BRANCH   1  17
ATOM     17  O   UNL     1       6.059   4.777  17.523  0.00  0.00    +0.000 OA
BRANCH  17  18
ATOM     18  C   UNL     1       5.366   4.177  18.616  0.00  0.00    +0.000 C 
BRANCH  18  20
ATOM     19  O   UNL     1       3.903   2.467  17.777  0.00  0.00    +0.000 OA
ATOM     20  C   UNL     1       3.996   3.629  18.187  0.00  0.00    +0.000 C 
ATOM     21  N   UNL     1       2.857   4.423  18.325  0.00  0.00    +0.000 N 
BRANCH  21  22
ATOM     22  C   UNL     1       1.560   3.862  17.904  0.00  0.00    +0.000 C 
BRANCH  22  23
ATOM     23  C   UNL     1       0.898   2.920  18.916  0.00  0.00    +0.000 C 
BRANCH  23  24
ATOM     24  O   UNL     1       1.217   1.562  18.616  0.00  0.00    +0.000 OA
ATOM     25  H   UNL     1       0.504   1.032  19.008  0.00  0.00    +0.000 HD
ENDBRANCH  23  24
ENDBRANCH  22  23
ENDBRANCH  21  22
BRANCH  21  26
ATOM     26  C   UNL     1       2.894   5.869  18.599  0.00  0.00    +0.000 C 
BRANCH  26  27
ATOM     27  C   UNL     1       2.247   6.246  19.936  0.00  0.00    +0.000 C 
BRANCH  27  28
ATOM     28  O   UNL     1       2.622   5.346  20.974  0.00  0.00    +0.000 OA
ATOM     29  H   UNL     1       3.464   4.944  20.701  0.00  0.00    +0.000 HD
ENDBRANCH  27  28
ENDBRANCH  26  27
ENDBRANCH  21  26
ENDBRANCH  18  20
ENDBRANCH  17  18
ENDBRANCH   1  17
TORSDOF 10
ENDMDL
MODEL 9
REMARK VINA RESULT:      -7.0      1.170      2.237
REMARK  Name = 
REMARK  10 active torsions:
REMARK  status: ('A' for Active; 'I' for Inactive)
REMARK    1  A    between atoms: C_2  and  C_3
REMARK    2  A    between atoms: C_3  and  O_4
REMARK    3  A    between atoms: O_4  and  C_5
REMARK    4  A    between atoms: C_8  and  C_9
REMARK    5  A    between atoms: N_20  and  C_21
REMARK    6  A    between atoms: N_20  and  C_24
REMARK    7  A    between atoms: C_21  and  C_22
REMARK    8  A    between atoms: C_22  and  O_23
REMARK    9  A    between atoms: C_24  and  C_25
REMARK   10  A    between atoms: C_25  and  O_26
REMARK                            x       y       z     vdW  Elec       q    Type
REMARK                         _______ _______ _______ _____ _____    ______ ____
ROOT
ATOM      1  C   UNL     1       6.627   5.792  17.670  0.00  0.00    +0.000 A 
ATOM      2  C   UNL     1       7.639   5.877  18.625  0.00  0.00    +0.000 A 
ATOM      3  C   UNL     1       8.287   7.091  18.860  0.00  0.00    +0.000 A 
ATOM      4  C   UNL     1       7.945   8.247  18.148  0.00  0.00    +0.000 A 
ATOM      5  C   UNL     1       6.938   8.154  17.179  0.00  0.00    +0.000 A 
ATOM      6  C   UNL     1       6.292   6.933  16.940  0.00  0.00    +0.000 A 
ENDROOT
BRANCH   4   7
ATOM      7  C   UNL     1       8.667   9.492  18.421  0.00  0.00    +0.000 A 
ATOM      8  C   UNL     1       9.464   9.834  19.500  0.00  0.00    +0.000 A 
ATOM      9  C   UNL     1       9.868  11.186  19.367  0.00  0.00    +0.000 A 
ATOM     10  C   UNL     1      10.648  12.052  20.151  0.00  0.00    +0.000 A 
ATOM     11  C   UNL     1      10.814  13.380  19.743  0.00  0.00    +0.000 A 
ATOM     12  C   UNL     1      10.216  13.841  18.572  0.00  0.00    +0.000 A 
ATOM     13  C   UNL     1       9.452  12.989  17.762  0.00  0.00    +0.000 A 
ATOM     14  C   UNL     1       9.298  11.662  18.188  0.00  0.00    +0.000 A 
ATOM     15  N   UNL     1       8.615  10.611  17.614  0.00  0.00    +0.000 N 
ATOM     16  H   UNL     1       8.101  10.674  16.751  0.00  0.00    +0.000 HD
ENDBRANCH   4   7
BRANCH   1  17
ATOM     17  O   UNL     1       5.938   4.649  17.353  0.00  0.00    +0.000 OA
BRANCH  17  18
ATOM     18  C   UNL     1       4.533   4.823  17.180  0.00  0.00    +0.000 C 
BRANCH  18  20
ATOM     19  O   UNL     1       3.570   6.207  18.891  0.00  0.00    +0.000 OA
ATOM     20  C   UNL     1       3.822   5.054  18.523  0.00  0.00    +0.000 C 
ATOM     21  N   UNL     1       3.405   3.962  19.284  0.00  0.00    +0.000 N 
BRANCH  21  22
ATOM     22  C   UNL     1       2.724   4.225  20.565  0.00  0.00    +0.000 C 
BRANCH  22  23
ATOM     23  C   UNL     1       1.200   4.369  20.476  0.00  0.00    +0.000 C 
BRANCH  23  24
ATOM     24  O   UNL     1       0.576   3.086  20.497  0.00  0.00    +0.000 OA
ATOM     25  H   UNL     1       0.571   2.781  19.575  0.00  0.00    +0.000 HD
ENDBRANCH  23  24
ENDBRANCH  22  23
ENDBRANCH  21  22
BRANCH  21  26
ATOM     26  C   UNL     1       3.838   2.577  19.037  0.00  0.00    +0.000 C 
BRANCH  26  27
ATOM     27  C   UNL     1       2.949   1.837  18.033  0.00  0.00    +0.000 C 
BRANCH  27  28
ATOM     28  O   UNL     1       1.734   1.396  18.630  0.00  0.00    +0.000 OA
ATOM     29  H   UNL     1       1.697   1.800  19.513  0.00  0.00    +0.000 HD
ENDBRANCH  27  28
ENDBRANCH  26  27
ENDBRANCH  21  26
ENDBRANCH  18  20
ENDBRANCH  17  18
ENDBRANCH   1  17
TORSDOF 10
ENDMDL
