MODEL 1
REMARK VINA RESULT:      -7.3      0.000      0.000
REMARK  Name = 
REMARK  2 active torsions:
REMARK  status: ('A' for Active; 'I' for Inactive)
REMARK    1  A    between atoms: N_13  and  C_14
REMARK    2  A    between atoms: C_14  and  C_15
REMARK                            x       y       z     vdW  Elec       q    Type
REMARK                         _______ _______ _______ _____ _____    ______ ____
ROOT
ATOM      1  N   UNL     1       4.553   5.264  17.110  0.00  0.00    +0.000 N 
ATOM      2  C   UNL     1       3.733   6.161  17.766  0.00  0.00    +0.000 A 
ATOM      3  N   UNL     1       3.223   5.743  18.940  0.00  0.00    +0.000 NA
ATOM      4  C   UNL     1       2.406   6.556  19.632  0.00  0.00    +0.000 A 
ATOM      5  N   UNL     1       1.843   6.067  20.800  0.00  0.00    +0.000 N 
ATOM      6  C   UNL     1       2.148   7.829  19.133  0.00  0.00    +0.000 A 
ATOM      7  C   UNL     1       1.378   8.956  19.497  0.00  0.00    +0.000 A 
ATOM      8  C   UNL     1       1.488   9.834  18.442  0.00  0.00    +0.000 A 
ATOM      9  O   UNL     1       2.338   9.377  17.494  0.00  0.00    +0.000 OA
ATOM     10  C   UNL     1       2.739   8.135  17.912  0.00  0.00    +0.000 A 
ATOM     11  N   UNL     1       3.556   7.354  17.198  0.00  0.00    +0.000 NA
ATOM     12  C   UNL     1       0.716  11.086  18.256  0.00  0.00    +0.000 C 
ATOM     13  N   UNL     1      -0.538  11.043  19.072  0.00  0.00    +0.000 NA
ATOM     14  C   UNL     1      -0.197  10.641  20.472  0.00  0.00    +0.000 C 
ATOM     15  C   UNL     1       0.453   9.231  20.629  0.00  0.00    +0.000 C 
ATOM     16  H   UNL     1       4.931   4.597  17.766  0.00  0.00    +0.000 HD
ATOM     17  H   UNL     1       5.197   5.757  16.508  0.00  0.00    +0.000 HD
ATOM     18  H   UNL     1       2.317   5.238  21.135  0.00  0.00    +0.000 HD
ATOM     19  H   UNL     1       1.550   6.747  21.485  0.00  0.00    +0.000 HD
ENDROOT
BRANCH  13  20
ATOM     20  C   UNL     1      -1.557  10.114  18.522  0.00  0.00    +0.000 C 
BRANCH  20  21
ATOM     21  C   UNL     1      -2.857  10.778  18.124  0.00  0.00    +0.000 A 
ATOM     22  C   UNL     1      -3.551  11.528  19.089  0.00  0.00    +0.000 A 
ATOM     23  C   UNL     1      -4.718  12.215  18.754  0.00  0.00    +0.000 A 
ATOM     24  C   UNL     1      -5.200  12.162  17.450  0.00  0.00    +0.000 A 
ATOM     25 CL   UNL     1      -6.609  13.054  17.024  0.00  0.00    +0.000 Cl
ATOM     26  C   UNL     1      -4.550  11.398  16.486  0.00  0.00    +0.000 A 
ATOM     27  C   UNL     1      -3.390  10.696  16.823  0.00  0.00    +0.000 A 
ATOM     28 CL   UNL     1      -2.667   9.735  15.582  0.00  0.00    +0.000 Cl
ENDBRANCH  20  21
ENDBRANCH  13  20
TORSDOF 2
ENDMDL
MODEL 2
REMARK VINA RESULT:      -7.2      1.569      2.084
REMARK  Name = 
REMARK  2 active torsions:
REMARK  status: ('A' for Active; 'I' for Inactive)
REMARK    1  A    between atoms: N_13  and  C_14
REMARK    2  A    between atoms: C_14  and  C_15
REMARK                            x       y       z     vdW  Elec       q    Type
REMARK                         _______ _______ _______ _____ _____    ______ ____
ROOT
ATOM      1  N   UNL     1       4.467   3.238  17.545  0.00  0.00    +0.000 N 
ATOM      2  C   UNL     1       3.878   4.366  18.082  0.00  0.00    +0.000 A 
ATOM      3  N   UNL     1       3.400   4.241  19.334  0.00  0.00    +0.000 NA
ATOM      4  C   UNL     1       2.803   5.293  19.921  0.00  0.00    +0.000 A 
ATOM      5  N   UNL     1       2.259   5.108  21.182  0.00  0.00    +0.000 N 
ATOM      6  C   UNL     1       2.738   6.499  19.229  0.00  0.00    +0.000 A 
ATOM      7  C   UNL     1       2.216   7.794  19.438  0.00  0.00    +0.000 A 
ATOM      8  C   UNL     1       2.396   8.460  18.246  0.00  0.00    +0.000 A 
ATOM      9  O   UNL     1       3.069   7.708  17.345  0.00  0.00    +0.000 OA
ATOM     10  C   UNL     1       3.272   6.492  17.945  0.00  0.00    +0.000 A 
ATOM     11  N   UNL     1       3.873   5.467  17.331  0.00  0.00    +0.000 NA
ATOM     12  C   UNL     1       1.850   9.792  17.893  0.00  0.00    +0.000 C 
ATOM     13  N   UNL     1       0.680  10.118  18.768  0.00  0.00    +0.000 NA
ATOM     14  C   UNL     1       1.057   9.880  20.196  0.00  0.00    +0.000 C 
ATOM     15  C   UNL     1       1.452   8.414  20.554  0.00  0.00    +0.000 C 
ATOM     16  H   UNL     1       4.771   2.621  18.283  0.00  0.00    +0.000 HD
ATOM     17  H   UNL     1       5.138   3.499  16.836  0.00  0.00    +0.000 HD
ATOM     18  H   UNL     1       2.601   4.266  21.626  0.00  0.00    +0.000 HD
ATOM     19  H   UNL     1       2.150   5.930  21.757  0.00  0.00    +0.000 HD
ENDROOT
BRANCH  13  20
ATOM     20  C   UNL     1      -0.531   9.326  18.435  0.00  0.00    +0.000 C 
BRANCH  20  21
ATOM     21  C   UNL     1      -1.728  10.159  18.028  0.00  0.00    +0.000 A 
ATOM     22  C   UNL     1      -2.311   9.926  16.769  0.00  0.00    +0.000 A 
ATOM     23  C   UNL     1      -3.455  10.621  16.375  0.00  0.00    +0.000 A 
ATOM     24  C   UNL     1      -4.030  11.550  17.237  0.00  0.00    +0.000 A 
ATOM     25 CL   UNL     1      -5.472  12.365  16.772  0.00  0.00    +0.000 Cl
ATOM     26  C   UNL     1      -3.450  11.822  18.472  0.00  0.00    +0.000 A 
ATOM     27  C   UNL     1      -2.295  11.141  18.861  0.00  0.00    +0.000 A 
ATOM     28 CL   UNL     1      -1.612  11.568  20.391  0.00  0.00    +0.000 Cl
ENDBRANCH  20  21
ENDBRANCH  13  20
TORSDOF 2
ENDMDL
MODEL 3
REMARK VINA RESULT:      -7.2      7.413      9.156
REMARK  Name = 
REMARK  2 active torsions:
REMARK  status: ('A' for Active; 'I' for Inactive)
REMARK    1  A    between atoms: N_13  and  C_14
REMARK    2  A    between atoms: C_14  and  C_15
REMARK                            x       y       z     vdW  Elec       q    Type
REMARK                         _______ _______ _______ _____ _____    ______ ____
ROOT
ATOM      1  N   UNL     1       1.851   2.790  22.158  0.00  0.00    +0.000 N 
ATOM      2  C   UNL     1       2.404   3.135  20.939  0.00  0.00    +0.000 A 
ATOM      3  N   UNL     1       2.752   2.110  20.140  0.00  0.00    +0.000 NA
ATOM      4  C   UNL     1       3.307   2.366  18.942  0.00  0.00    +0.000 A 
ATOM      5  N   UNL     1       3.719   1.288  18.175  0.00  0.00    +0.000 N 
ATOM      6  C   UNL     1       3.463   3.691  18.545  0.00  0.00    +0.000 A 
ATOM      7  C   UNL     1       3.985   4.393  17.437  0.00  0.00    +0.000 A 
ATOM      8  C   UNL     1       3.938   5.723  17.789  0.00  0.00    +0.000 A 
ATOM      9  O   UNL     1       3.345   5.906  18.991  0.00  0.00    +0.000 OA
ATOM     10  C   UNL     1       3.059   4.652  19.466  0.00  0.00    +0.000 A 
ATOM     11  N   UNL     1       2.504   4.435  20.663  0.00  0.00    +0.000 NA
ATOM     12  C   UNL     1       4.541   6.852  17.040  0.00  0.00    +0.000 C 
ATOM     13  N   UNL     1       5.623   6.351  16.136  0.00  0.00    +0.000 NA
ATOM     14  C   UNL     1       5.100   5.194  15.344  0.00  0.00    +0.000 C 
ATOM     15  C   UNL     1       4.645   3.957  16.177  0.00  0.00    +0.000 C 
ATOM     16  H   UNL     1       1.463   1.859  22.111  0.00  0.00    +0.000 HD
ATOM     17  H   UNL     1       1.259   3.535  22.496  0.00  0.00    +0.000 HD
ATOM     18  H   UNL     1       3.318   0.415  18.496  0.00  0.00    +0.000 HD
ATOM     19  H   UNL     1       3.784   1.435  17.179  0.00  0.00    +0.000 HD
ENDROOT
BRANCH  13  20
ATOM     20  C   UNL     1       6.847   5.939  16.869  0.00  0.00    +0.000 C 
BRANCH  20  21
ATOM     21  C   UNL     1       7.563   7.071  17.573  0.00  0.00    +0.000 A 
ATOM     22  C   UNL     1       7.579   8.338  16.963  0.00  0.00    +0.000 A 
ATOM     23  C   UNL     1       8.167   9.429  17.602  0.00  0.00    +0.000 A 
ATOM     24  C   UNL     1       8.741   9.266  18.859  0.00  0.00    +0.000 A 
ATOM     25 CL   UNL     1       9.417  10.625  19.670  0.00  0.00    +0.000 Cl
ATOM     26  C   UNL     1       8.768   8.016  19.467  0.00  0.00    +0.000 A 
ATOM     27  C   UNL     1       8.195   6.918  18.822  0.00  0.00    +0.000 A 
ATOM     28 CL   UNL     1       8.309   5.391  19.623  0.00  0.00    +0.000 Cl
ENDBRANCH  20  21
ENDBRANCH  13  20
TORSDOF 2
ENDMDL
MODEL 4
REMARK VINA RESULT:      -7.2      5.682      7.625
REMARK  Name = 
REMARK  2 active torsions:
REMARK  status: ('A' for Active; 'I' for Inactive)
REMARK    1  A    between atoms: N_13  and  C_14
REMARK    2  A    between atoms: C_14  and  C_15
REMARK                            x       y       z     vdW  Elec       q    Type
REMARK                         _______ _______ _______ _____ _____    ______ ____
ROOT
ATOM      1  N   UNL     1       8.213   8.176  17.439  0.00  0.00    +0.000 N 
ATOM      2  C   UNL     1       7.461   7.018  17.410  0.00  0.00    +0.000 A 
ATOM      3  N   UNL     1       7.293   6.456  16.199  0.00  0.00    +0.000 NA
ATOM      4  C   UNL     1       6.563   5.331  16.088  0.00  0.00    +0.000 A 
ATOM      5  N   UNL     1       6.351   4.819  14.819  0.00  0.00    +0.000 N 
ATOM      6  C   UNL     1       6.040   4.756  17.242  0.00  0.00    +0.000 A 
ATOM      7  C   UNL     1       5.241   3.642  17.583  0.00  0.00    +0.000 A 
ATOM      8  C   UNL     1       4.994   3.765  18.932  0.00  0.00    +0.000 A 
ATOM      9  O   UNL     1       5.652   4.817  19.471  0.00  0.00    +0.000 OA
ATOM     10  C   UNL     1       6.291   5.438  18.429  0.00  0.00    +0.000 A 
ATOM     11  N   UNL     1       7.011   6.555  18.576  0.00  0.00    +0.000 NA
ATOM     12  C   UNL     1       4.051   2.947  19.731  0.00  0.00    +0.000 C 
ATOM     13  N   UNL     1       3.035   2.311  18.835  0.00  0.00    +0.000 NA
ATOM     14  C   UNL     1       3.738   1.644  17.695  0.00  0.00    +0.000 C 
ATOM     15  C   UNL     1       4.576   2.585  16.775  0.00  0.00    +0.000 C 
ATOM     16  H   UNL     1       8.813   8.220  16.628  0.00  0.00    +0.000 HD
ATOM     17  H   UNL     1       8.634   8.296  18.349  0.00  0.00    +0.000 HD
ATOM     18  H   UNL     1       6.989   5.210  14.137  0.00  0.00    +0.000 HD
ATOM     19  H   UNL     1       6.142   3.834  14.753  0.00  0.00    +0.000 HD
ENDROOT
BRANCH  13  20
ATOM     20  C   UNL     1       2.040   3.279  18.307  0.00  0.00    +0.000 C 
BRANCH  20  21
ATOM     21  C   UNL     1       1.982   4.588  19.065  0.00  0.00    +0.000 A 
ATOM     22  C   UNL     1       2.393   5.762  18.410  0.00  0.00    +0.000 A 
ATOM     23  C   UNL     1       2.295   7.002  19.042  0.00  0.00    +0.000 A 
ATOM     24  C   UNL     1       1.781   7.080  20.333  0.00  0.00    +0.000 A 
ATOM     25 CL   UNL     1       1.610   8.615  21.091  0.00  0.00    +0.000 Cl
ATOM     26  C   UNL     1       1.401   5.928  21.014  0.00  0.00    +0.000 A 
ATOM     27  C   UNL     1       1.514   4.684  20.389  0.00  0.00    +0.000 A 
ATOM     28 CL   UNL     1       1.063   3.298  21.318  0.00  0.00    +0.000 Cl
ENDBRANCH  20  21
ENDBRANCH  13  20
TORSDOF 2
ENDMDL
MODEL 5
REMARK VINA RESULT:      -7.1      6.950      9.650
REMARK  Name = 
REMARK  2 active torsions:
REMARK  status: ('A' for Active; 'I' for Inactive)
REMARK    1  A    between atoms: N_13  and  C_14
REMARK    2  A    between atoms: C_14  and  C_15
REMARK                            x       y       z     vdW  Elec       q    Type
REMARK                         _______ _______ _______ _____ _____    ______ ____
ROOT
ATOM      1  N   UNL     1       0.735   3.203  20.094  0.00  0.00    +0.000 N 
ATOM      2  C   UNL     1       1.812   3.922  19.612  0.00  0.00    +0.000 A 
ATOM      3  N   UNL     1       1.698   5.261  19.668  0.00  0.00    +0.000 NA
ATOM      4  C   UNL     1       2.702   6.029  19.206  0.00  0.00    +0.000 A 
ATOM      5  N   UNL     1       2.522   7.403  19.213  0.00  0.00    +0.000 N 
ATOM      6  C   UNL     1       3.852   5.411  18.726  0.00  0.00    +0.000 A 
ATOM      7  C   UNL     1       5.085   5.799  18.158  0.00  0.00    +0.000 A 
ATOM      8  C   UNL     1       5.702   4.627  17.782  0.00  0.00    +0.000 A 
ATOM      9  O   UNL     1       4.989   3.539  18.153  0.00  0.00    +0.000 OA
ATOM     10  C   UNL     1       3.840   4.020  18.727  0.00  0.00    +0.000 A 
ATOM     11  N   UNL     1       2.863   3.226  19.178  0.00  0.00    +0.000 NA
ATOM     12  C   UNL     1       6.939   4.505  16.973  0.00  0.00    +0.000 C 
ATOM     13  N   UNL     1       7.170   5.761  16.193  0.00  0.00    +0.000 NA
ATOM     14  C   UNL     1       7.056   6.935  17.113  0.00  0.00    +0.000 C 
ATOM     15  C   UNL     1       5.669   7.120  17.802  0.00  0.00    +0.000 C 
ATOM     16  H   UNL     1       0.199   3.771  20.735  0.00  0.00    +0.000 HD
ATOM     17  H   UNL     1       1.036   2.291  20.405  0.00  0.00    +0.000 HD
ATOM     18  H   UNL     1       1.751   7.685  19.805  0.00  0.00    +0.000 HD
ATOM     19  H   UNL     1       3.355   7.972  19.225  0.00  0.00    +0.000 HD
ENDROOT
BRANCH  13  20
ATOM     20  C   UNL     1       6.222   5.923  15.061  0.00  0.00    +0.000 C 
BRANCH  20  21
ATOM     21  C   UNL     1       6.318   4.840  14.008  0.00  0.00    +0.000 A 
ATOM     22  C   UNL     1       5.320   3.850  13.968  0.00  0.00    +0.000 A 
ATOM     23  C   UNL     1       5.328   2.870  12.976  0.00  0.00    +0.000 A 
ATOM     24  C   UNL     1       6.330   2.872  12.011  0.00  0.00    +0.000 A 
ATOM     25 CL   UNL     1       6.307   1.696  10.755  0.00  0.00    +0.000 Cl
ATOM     26  C   UNL     1       7.348   3.820  12.050  0.00  0.00    +0.000 A 
ATOM     27  C   UNL     1       7.352   4.792  13.053  0.00  0.00    +0.000 A 
ATOM     28 CL   UNL     1       8.674   5.905  13.058  0.00  0.00    +0.000 Cl
ENDBRANCH  20  21
ENDBRANCH  13  20
TORSDOF 2
ENDMDL
MODEL 6
REMARK VINA RESULT:      -7.1      4.334      6.581
REMARK  Name = 
REMARK  2 active torsions:
REMARK  status: ('A' for Active; 'I' for Inactive)
REMARK    1  A    between atoms: N_13  and  C_14
REMARK    2  A    between atoms: C_14  and  C_15
REMARK                            x       y       z     vdW  Elec       q    Type
REMARK                         _______ _______ _______ _____ _____    ______ ____
ROOT
ATOM      1  N   UNL     1       8.677   5.762  13.283  0.00  0.00    +0.000 N 
ATOM      2  C   UNL     1       7.670   5.392  14.154  0.00  0.00    +0.000 A 
ATOM      3  N   UNL     1       6.664   4.676  13.618  0.00  0.00    +0.000 NA
ATOM      4  C   UNL     1       5.641   4.287  14.401  0.00  0.00    +0.000 A 
ATOM      5  N   UNL     1       4.588   3.614  13.803  0.00  0.00    +0.000 N 
ATOM      6  C   UNL     1       5.678   4.601  15.756  0.00  0.00    +0.000 A 
ATOM      7  C   UNL     1       4.857   4.419  16.891  0.00  0.00    +0.000 A 
ATOM      8  C   UNL     1       5.468   5.126  17.903  0.00  0.00    +0.000 A 
ATOM      9  O   UNL     1       6.648   5.655  17.508  0.00  0.00    +0.000 OA
ATOM     10  C   UNL     1       6.776   5.342  16.179  0.00  0.00    +0.000 A 
ATOM     11  N   UNL     1       7.809   5.744  15.432  0.00  0.00    +0.000 NA
ATOM     12  C   UNL     1       4.904   5.401  19.247  0.00  0.00    +0.000 C 
ATOM     13  N   UNL     1       3.414   5.262  19.218  0.00  0.00    +0.000 NA
ATOM     14  C   UNL     1       3.057   3.962  18.570  0.00  0.00    +0.000 C 
ATOM     15  C   UNL     1       3.521   3.797  17.089  0.00  0.00    +0.000 C 
ATOM     16  H   UNL     1       8.690   5.144  12.485  0.00  0.00    +0.000 HD
ATOM     17  H   UNL     1       9.539   5.904  13.789  0.00  0.00    +0.000 HD
ATOM     18  H   UNL     1       4.830   3.264  12.885  0.00  0.00    +0.000 HD
ATOM     19  H   UNL     1       4.029   3.021  14.398  0.00  0.00    +0.000 HD
ENDROOT
BRANCH  13  20
ATOM     20  C   UNL     1       2.742   6.376  18.502  0.00  0.00    +0.000 C 
BRANCH  20  21
ATOM     21  C   UNL     1       1.988   7.332  19.403  0.00  0.00    +0.000 A 
ATOM     22  C   UNL     1       1.602   6.887  20.679  0.00  0.00    +0.000 A 
ATOM     23  C   UNL     1       0.965   7.750  21.572  0.00  0.00    +0.000 A 
ATOM     24  C   UNL     1       0.713   9.066  21.198  0.00  0.00    +0.000 A 
ATOM     25 CL   UNL     1      -0.023  10.144  22.319  0.00  0.00    +0.000 Cl
ATOM     26  C   UNL     1       1.054   9.519  19.928  0.00  0.00    +0.000 A 
ATOM     27  C   UNL     1       1.677   8.652  19.027  0.00  0.00    +0.000 A 
ATOM     28 CL   UNL     1       2.029   9.278  17.455  0.00  0.00    +0.000 Cl
ENDBRANCH  20  21
ENDBRANCH  13  20
TORSDOF 2
ENDMDL
MODEL 7
REMARK VINA RESULT:      -7.1      4.565      7.084
REMARK  Name = 
REMARK  2 active torsions:
REMARK  status: ('A' for Active; 'I' for Inactive)
REMARK    1  A    between atoms: N_13  and  C_14
REMARK    2  A    between atoms: C_14  and  C_15
REMARK                            x       y       z     vdW  Elec       q    Type
REMARK                         _______ _______ _______ _____ _____    ______ ____
ROOT
ATOM      1  N   UNL     1       8.740   5.807  12.932  0.00  0.00    +0.000 N 
ATOM      2  C   UNL     1       7.754   5.324  13.770  0.00  0.00    +0.000 A 
ATOM      3  N   UNL     1       6.836   4.524  13.198  0.00  0.00    +0.000 NA
ATOM      4  C   UNL     1       5.837   4.024  13.948  0.00  0.00    +0.000 A 
ATOM      5  N   UNL     1       4.870   3.262  13.313  0.00  0.00    +0.000 N 
ATOM      6  C   UNL     1       5.811   4.314  15.309  0.00  0.00    +0.000 A 
ATOM      7  C   UNL     1       4.986   4.032  16.419  0.00  0.00    +0.000 A 
ATOM      8  C   UNL     1       5.500   4.776  17.458  0.00  0.00    +0.000 A 
ATOM      9  O   UNL     1       6.631   5.425  17.101  0.00  0.00    +0.000 OA
ATOM     10  C   UNL     1       6.821   5.151  15.771  0.00  0.00    +0.000 A 
ATOM     11  N   UNL     1       7.828   5.665  15.057  0.00  0.00    +0.000 NA
ATOM     12  C   UNL     1       4.880   4.970  18.791  0.00  0.00    +0.000 C 
ATOM     13  N   UNL     1       3.411   4.688  18.722  0.00  0.00    +0.000 NA
ATOM     14  C   UNL     1       3.199   3.372  18.044  0.00  0.00    +0.000 C 
ATOM     15  C   UNL     1       3.712   3.279  16.573  0.00  0.00    +0.000 C 
ATOM     16  H   UNL     1       8.833   5.209  12.125  0.00  0.00    +0.000 HD
ATOM     17  H   UNL     1       9.573   6.024  13.462  0.00  0.00    +0.000 HD
ATOM     18  H   UNL     1       5.167   2.954  12.395  0.00  0.00    +0.000 HD
ATOM     19  H   UNL     1       4.358   2.606  13.883  0.00  0.00    +0.000 HD
ENDROOT
BRANCH  13  20
ATOM     20  C   UNL     1       2.651   5.744  18.007  0.00  0.00    +0.000 C 
BRANCH  20  21
ATOM     21  C   UNL     1       2.181   6.880  18.890  0.00  0.00    +0.000 A 
ATOM     22  C   UNL     1       2.090   8.169  18.335  0.00  0.00    +0.000 A 
ATOM     23  C   UNL     1       1.600   9.236  19.088  0.00  0.00    +0.000 A 
ATOM     24  C   UNL     1       1.192   9.024  20.402  0.00  0.00    +0.000 A 
ATOM     25 CL   UNL     1       0.536  10.329  21.312  0.00  0.00    +0.000 Cl
ATOM     26  C   UNL     1       1.306   7.766  20.983  0.00  0.00    +0.000 A 
ATOM     27  C   UNL     1       1.812   6.700  20.236  0.00  0.00    +0.000 A 
ATOM     28 CL   UNL     1       1.964   5.179  21.045  0.00  0.00    +0.000 Cl
ENDBRANCH  20  21
ENDBRANCH  13  20
TORSDOF 2
ENDMDL
MODEL 8
REMARK VINA RESULT:      -6.9      1.182      2.037
REMARK  Name = 
REMARK  2 active torsions:
REMARK  status: ('A' for Active; 'I' for Inactive)
REMARK    1  A    between atoms: N_13  and  C_14
REMARK    2  A    between atoms: C_14  and  C_15
REMARK                            x       y       z     vdW  Elec       q    Type
REMARK                         _______ _______ _______ _____ _____    ______ ____
ROOT
ATOM      1  N   UNL     1       4.133   5.651  17.308  0.00  0.00    +0.000 N 
ATOM      2  C   UNL     1       3.339   6.558  17.982  0.00  0.00    +0.000 A 
ATOM      3  N   UNL     1       3.003   6.224  19.242  0.00  0.00    +0.000 NA
ATOM      4  C   UNL     1       2.223   7.053  19.959  0.00  0.00    +0.000 A 
ATOM      5  N   UNL     1       1.838   6.645  21.226  0.00  0.00    +0.000 N 
ATOM      6  C   UNL     1       1.823   8.257  19.389  0.00  0.00    +0.000 A 
ATOM      7  C   UNL     1       1.029   9.368  19.749  0.00  0.00    +0.000 A 
ATOM      8  C   UNL     1       0.953  10.148  18.616  0.00  0.00    +0.000 A 
ATOM      9  O   UNL     1       1.711   9.653  17.611  0.00  0.00    +0.000 OA
ATOM     10  C   UNL     1       2.241   8.479  18.082  0.00  0.00    +0.000 A 
ATOM     11  N   UNL     1       3.016   7.681  17.340  0.00  0.00    +0.000 NA
ATOM     12  C   UNL     1       0.083  11.333  18.422  0.00  0.00    +0.000 C 
ATOM     13  N   UNL     1      -1.058  11.298  19.390  0.00  0.00    +0.000 NA
ATOM     14  C   UNL     1      -0.525  11.048  20.765  0.00  0.00    +0.000 C 
ATOM     15  C   UNL     1       0.230   9.696  20.960  0.00  0.00    +0.000 C 
ATOM     16  H   UNL     1       4.630   5.070  17.966  0.00  0.00    +0.000 HD
ATOM     17  H   UNL     1       4.665   6.120  16.590  0.00  0.00    +0.000 HD
ATOM     18  H   UNL     1       2.403   5.877  21.569  0.00  0.00    +0.000 HD
ATOM     19  H   UNL     1       1.585   7.369  21.882  0.00  0.00    +0.000 HD
ENDROOT
BRANCH  13  20
ATOM     20  C   UNL     1      -2.072  10.265  19.054  0.00  0.00    +0.000 C 
BRANCH  20  21
ATOM     21  C   UNL     1      -2.604  10.352  17.640  0.00  0.00    +0.000 A 
ATOM     22  C   UNL     1      -1.945   9.631  16.629  0.00  0.00    +0.000 A 
ATOM     23  C   UNL     1      -2.435   9.624  15.323  0.00  0.00    +0.000 A 
ATOM     24  C   UNL     1      -3.592  10.333  15.016  0.00  0.00    +0.000 A 
ATOM     25 CL   UNL     1      -4.227  10.279  13.418  0.00  0.00    +0.000 Cl
ATOM     26  C   UNL     1      -4.242  11.082  15.992  0.00  0.00    +0.000 A 
ATOM     27  C   UNL     1      -3.743  11.104  17.296  0.00  0.00    +0.000 A 
ATOM     28 CL   UNL     1      -4.582  12.093  18.439  0.00  0.00    +0.000 Cl
ENDBRANCH  20  21
ENDBRANCH  13  20
TORSDOF 2
ENDMDL
MODEL 9
REMARK VINA RESULT:      -6.8      1.133      1.410
REMARK  Name = 
REMARK  2 active torsions:
REMARK  status: ('A' for Active; 'I' for Inactive)
REMARK    1  A    between atoms: N_13  and  C_14
REMARK    2  A    between atoms: C_14  and  C_15
REMARK                            x       y       z     vdW  Elec       q    Type
REMARK                         _______ _______ _______ _____ _____    ______ ____
ROOT
ATOM      1  N   UNL     1       4.392   3.416  17.749  0.00  0.00    +0.000 N 
ATOM      2  C   UNL     1       3.764   4.557  18.211  0.00  0.00    +0.000 A 
ATOM      3  N   UNL     1       3.069   4.423  19.355  0.00  0.00    +0.000 NA
ATOM      4  C   UNL     1       2.420   5.487  19.862  0.00  0.00    +0.000 A 
ATOM      5  N   UNL     1       1.656   5.297  21.001  0.00  0.00    +0.000 N 
ATOM      6  C   UNL     1       2.527   6.710  19.208  0.00  0.00    +0.000 A 
ATOM      7  C   UNL     1       2.030   8.023  19.363  0.00  0.00    +0.000 A 
ATOM      8  C   UNL     1       2.443   8.708  18.242  0.00  0.00    +0.000 A 
ATOM      9  O   UNL     1       3.233   7.948  17.450  0.00  0.00    +0.000 OA
ATOM     10  C   UNL     1       3.278   6.710  18.037  0.00  0.00    +0.000 A 
ATOM     11  N   UNL     1       3.936   5.675  17.505  0.00  0.00    +0.000 NA
ATOM     12  C   UNL     1       2.022  10.072  17.841  0.00  0.00    +0.000 C 
ATOM     13  N   UNL     1       0.731  10.429  18.508  0.00  0.00    +0.000 NA
ATOM     14  C   UNL     1       0.841  10.141  19.972  0.00  0.00    +0.000 C 
ATOM     15  C   UNL     1       1.107   8.650  20.347  0.00  0.00    +0.000 C 
ATOM     16  H   UNL     1       4.537   2.768  18.509  0.00  0.00    +0.000 HD
ATOM     17  H   UNL     1       5.187   3.663  17.177  0.00  0.00    +0.000 HD
ATOM     18  H   UNL     1       1.880   4.429  21.472  0.00  0.00    +0.000 HD
ATOM     19  H   UNL     1       1.482   6.109  21.575  0.00  0.00    +0.000 HD
ENDROOT
BRANCH  13  20
ATOM     20  C   UNL     1      -0.434   9.702  17.944  0.00  0.00    +0.000 C 
BRANCH  20  21
ATOM     21  C   UNL     1      -1.756  10.423  18.102  0.00  0.00    +0.000 A 
ATOM     22  C   UNL     1      -1.957  11.212  19.248  0.00  0.00    +0.000 A 
ATOM     23  C   UNL     1      -3.131  11.949  19.408  0.00  0.00    +0.000 A 
ATOM     24  C   UNL     1      -4.112  11.908  18.422  0.00  0.00    +0.000 A 
ATOM     25 CL   UNL     1      -5.534  12.860  18.594  0.00  0.00    +0.000 Cl
ATOM     26  C   UNL     1      -3.950  11.107  17.296  0.00  0.00    +0.000 A 
ATOM     27  C   UNL     1      -2.783  10.355  17.142  0.00  0.00    +0.000 A 
ATOM     28 CL   UNL     1      -2.678   9.351  15.739  0.00  0.00    +0.000 Cl
ENDBRANCH  20  21
ENDBRANCH  13  20
TORSDOF 2
ENDMDL
