MODEL 1
REMARK VINA RESULT:      -8.1      0.000      0.000
REMARK  Name = 
REMARK  7 active torsions:
REMARK  status: ('A' for Active; 'I' for Inactive)
REMARK    1  A    between atoms: C_1  and  O_2
REMARK    2  A    between atoms: O_2  and  C_3
REMARK    3  A    between atoms: C_10  and  C_11
REMARK    4  A    between atoms: C_19  and  O_20
REMARK    5  A    between atoms: O_20  and  C_21
REMARK    6  A    between atoms: C_21  and  C_23
REMARK    7  A    between atoms: C_23  and  C_24
REMARK                            x       y       z     vdW  Elec       q    Type
REMARK                         _______ _______ _______ _____ _____    ______ ____
ROOT
ATOM      1  C   UNL     1       6.462   5.442  16.536  0.00  0.00    +0.000 A 
ATOM      2  C   UNL     1       5.512   4.431  16.702  0.00  0.00    +0.000 A 
ATOM      3  C   UNL     1       4.262   4.737  17.244  0.00  0.00    +0.000 A 
ATOM      4  O   UNL     1       3.346   3.673  17.320  0.00  0.00    +0.000 OA
ATOM      5  C   UNL     1       2.052   3.890  17.757  0.00  0.00    +0.000 A 
ATOM      6  O   UNL     1       1.206   3.002  17.754  0.00  0.00    +0.000 OA
ATOM      7  C   UNL     1       1.733   5.231  18.255  0.00  0.00    +0.000 A 
ATOM      8  C   UNL     1       2.601   6.254  18.237  0.00  0.00    +0.000 A 
ATOM      9  C   UNL     1       3.930   6.017  17.663  0.00  0.00    +0.000 A 
ATOM     10  C   UNL     1       4.879   7.027  17.511  0.00  0.00    +0.000 A 
ATOM     11  C   UNL     1       6.144   6.741  16.976  0.00  0.00    +0.000 A 
ENDROOT
BRANCH   8  12
ATOM     12  C   UNL     1       2.124   7.504  18.855  0.00  0.00    +0.000 A 
ATOM     13  C   UNL     1       1.871   7.540  20.233  0.00  0.00    +0.000 A 
ATOM     14  C   UNL     1       1.357   8.695  20.821  0.00  0.00    +0.000 A 
ATOM     15  C   UNL     1       1.101   9.819  20.039  0.00  0.00    +0.000 A 
ATOM     16  C   UNL     1       1.368   9.795  18.669  0.00  0.00    +0.000 A 
ATOM     17  C   UNL     1       1.878   8.640  18.076  0.00  0.00    +0.000 A 
ENDBRANCH   8  12
BRANCH   1  19
ATOM     18  C   UNL     1       7.678   4.945  14.561  0.00  0.00    +0.000 C 
ATOM     19  O   UNL     1       7.690   5.240  15.960  0.00  0.00    +0.000 OA
ENDBRANCH   1  19
BRANCH  11  20
ATOM     20  O   UNL     1       7.089   7.777  16.762  0.00  0.00    +0.000 OA
BRANCH  20  21
ATOM     21  C   UNL     1       7.839   8.304  17.820  0.00  0.00    +0.000 C 
ATOM     22  O   UNL     1       8.531   7.668  18.609  0.00  0.00    +0.000 OA
BRANCH  21  23
ATOM     23  C   UNL     1       7.707   9.809  17.856  0.00  0.00    +0.000 C 
BRANCH  23  24
ATOM     24  C   UNL     1       8.977  10.388  18.384  0.00  0.00    +0.000 A 
ATOM     25  C   UNL     1      10.077  10.827  17.674  0.00  0.00    +0.000 A 
ATOM     26  C   UNL     1      11.049  11.438  18.518  0.00  0.00    +0.000 A 
ATOM     27  C   UNL     1      10.675  11.407  19.842  0.00  0.00    +0.000 A 
ATOM     28  S   UNL     1       9.176  10.619  20.070  0.00  0.00    +0.000 S 
ENDBRANCH  23  24
ENDBRANCH  21  23
ENDBRANCH  20  21
ENDBRANCH  11  20
TORSDOF 6
ENDMDL
MODEL 2
REMARK VINA RESULT:      -7.1      7.189     11.192
REMARK  Name = 
REMARK  7 active torsions:
REMARK  status: ('A' for Active; 'I' for Inactive)
REMARK    1  A    between atoms: C_1  and  O_2
REMARK    2  A    between atoms: O_2  and  C_3
REMARK    3  A    between atoms: C_10  and  C_11
REMARK    4  A    between atoms: C_19  and  O_20
REMARK    5  A    between atoms: O_20  and  C_21
REMARK    6  A    between atoms: C_21  and  C_23
REMARK    7  A    between atoms: C_23  and  C_24
REMARK                            x       y       z     vdW  Elec       q    Type
REMARK                         _______ _______ _______ _____ _____    ______ ____
ROOT
ATOM      1  C   UNL     1      -3.332  10.629  16.405  0.00  0.00    +0.000 A 
ATOM      2  C   UNL     1      -2.071  10.054  16.572  0.00  0.00    +0.000 A 
ATOM      3  C   UNL     1      -1.350  10.289  17.745  0.00  0.00    +0.000 A 
ATOM      4  O   UNL     1      -0.117   9.623  17.856  0.00  0.00    +0.000 OA
ATOM      5  C   UNL     1       0.630   9.718  19.016  0.00  0.00    +0.000 A 
ATOM      6  O   UNL     1       1.667   9.083  19.177  0.00  0.00    +0.000 OA
ATOM      7  C   UNL     1       0.145  10.638  20.048  0.00  0.00    +0.000 A 
ATOM      8  C   UNL     1      -1.006  11.321  19.951  0.00  0.00    +0.000 A 
ATOM      9  C   UNL     1      -1.829  11.112  18.755  0.00  0.00    +0.000 A 
ATOM     10  C   UNL     1      -3.083  11.699  18.588  0.00  0.00    +0.000 A 
ATOM     11  C   UNL     1      -3.820  11.481  17.414  0.00  0.00    +0.000 A 
ENDROOT
BRANCH   8  12
ATOM     12  C   UNL     1      -1.285  12.259  21.053  0.00  0.00    +0.000 A 
ATOM     13  C   UNL     1      -1.579  11.758  22.327  0.00  0.00    +0.000 A 
ATOM     14  C   UNL     1      -1.910  12.629  23.365  0.00  0.00    +0.000 A 
ATOM     15  C   UNL     1      -1.941  14.003  23.135  0.00  0.00    +0.000 A 
ATOM     16  C   UNL     1      -1.632  14.510  21.872  0.00  0.00    +0.000 A 
ATOM     17  C   UNL     1      -1.305  13.640  20.830  0.00  0.00    +0.000 A 
ENDBRANCH   8  12
BRANCH   1  19
ATOM     18  C   UNL     1      -3.444  10.073  14.102  0.00  0.00    +0.000 C 
ATOM     19  O   UNL     1      -4.129  10.404  15.312  0.00  0.00    +0.000 OA
ENDBRANCH   1  19
BRANCH  11  20
ATOM     20  O   UNL     1      -5.122  12.026  17.267  0.00  0.00    +0.000 OA
BRANCH  20  21
ATOM     21  C   UNL     1      -6.145  11.710  18.169  0.00  0.00    +0.000 C 
ATOM     22  O   UNL     1      -6.572  10.588  18.422  0.00  0.00    +0.000 OA
BRANCH  21  23
ATOM     23  C   UNL     1      -6.660  12.966  18.836  0.00  0.00    +0.000 C 
BRANCH  23  24
ATOM     24  C   UNL     1      -6.422  12.858  20.305  0.00  0.00    +0.000 A 
ATOM     25  C   UNL     1      -5.239  13.033  20.996  0.00  0.00    +0.000 A 
ATOM     26  C   UNL     1      -5.430  12.978  22.407  0.00  0.00    +0.000 A 
ATOM     27  C   UNL     1      -6.741  12.723  22.740  0.00  0.00    +0.000 A 
ATOM     28  S   UNL     1      -7.728  12.521  21.361  0.00  0.00    +0.000 S 
ENDBRANCH  23  24
ENDBRANCH  21  23
ENDBRANCH  20  21
ENDBRANCH  11  20
TORSDOF 6
ENDMDL
MODEL 3
REMARK VINA RESULT:      -7.1      4.198      8.349
REMARK  Name = 
REMARK  7 active torsions:
REMARK  status: ('A' for Active; 'I' for Inactive)
REMARK    1  A    between atoms: C_1  and  O_2
REMARK    2  A    between atoms: O_2  and  C_3
REMARK    3  A    between atoms: C_10  and  C_11
REMARK    4  A    between atoms: C_19  and  O_20
REMARK    5  A    between atoms: O_20  and  C_21
REMARK    6  A    between atoms: C_21  and  C_23
REMARK    7  A    between atoms: C_23  and  C_24
REMARK                            x       y       z     vdW  Elec       q    Type
REMARK                         _______ _______ _______ _____ _____    ______ ____
ROOT
ATOM      1  C   UNL     1       6.122   4.664  17.459  0.00  0.00    +0.000 A 
ATOM      2  C   UNL     1       7.178   5.268  16.774  0.00  0.00    +0.000 A 
ATOM      3  C   UNL     1       7.284   5.116  15.390  0.00  0.00    +0.000 A 
ATOM      4  O   UNL     1       8.342   5.806  14.773  0.00  0.00    +0.000 OA
ATOM      5  C   UNL     1       8.481   5.794  13.397  0.00  0.00    +0.000 A 
ATOM      6  O   UNL     1       9.341   6.454  12.823  0.00  0.00    +0.000 OA
ATOM      7  C   UNL     1       7.567   4.932  12.643  0.00  0.00    +0.000 A 
ATOM      8  C   UNL     1       6.576   4.227  13.209  0.00  0.00    +0.000 A 
ATOM      9  C   UNL     1       6.387   4.350  14.658  0.00  0.00    +0.000 A 
ATOM     10  C   UNL     1       5.338   3.735  15.340  0.00  0.00    +0.000 A 
ATOM     11  C   UNL     1       5.217   3.868  16.731  0.00  0.00    +0.000 A 
ENDROOT
BRANCH   8  12
ATOM     12  C   UNL     1       5.813   3.355  12.298  0.00  0.00    +0.000 A 
ATOM     13  C   UNL     1       4.539   3.750  11.870  0.00  0.00    +0.000 A 
ATOM     14  C   UNL     1       3.779   2.907  11.061  0.00  0.00    +0.000 A 
ATOM     15  C   UNL     1       4.290   1.670  10.671  0.00  0.00    +0.000 A 
ATOM     16  C   UNL     1       5.565   1.279  11.080  0.00  0.00    +0.000 A 
ATOM     17  C   UNL     1       6.328   2.119  11.893  0.00  0.00    +0.000 A 
ENDBRANCH   8  12
BRANCH   1  19
ATOM     18  C   UNL     1       6.944   5.485  19.527  0.00  0.00    +0.000 C 
ATOM     19  O   UNL     1       5.911   4.810  18.807  0.00  0.00    +0.000 OA
ENDBRANCH   1  19
BRANCH  11  20
ATOM     20  O   UNL     1       4.116   3.296  17.419  0.00  0.00    +0.000 OA
BRANCH  20  21
ATOM     21  C   UNL     1       2.812   3.765  17.216  0.00  0.00    +0.000 C 
ATOM     22  O   UNL     1       2.036   3.401  16.339  0.00  0.00    +0.000 OA
BRANCH  21  23
ATOM     23  C   UNL     1       2.458   4.794  18.265  0.00  0.00    +0.000 C 
BRANCH  23  24
ATOM     24  C   UNL     1       2.233   4.094  19.563  0.00  0.00    +0.000 A 
ATOM     25  C   UNL     1       2.728   4.423  20.810  0.00  0.00    +0.000 A 
ATOM     26  C   UNL     1       2.188   3.594  21.836  0.00  0.00    +0.000 A 
ATOM     27  C   UNL     1       1.335   2.639  21.332  0.00  0.00    +0.000 A 
ATOM     28  S   UNL     1       1.209   2.722  19.630  0.00  0.00    +0.000 S 
ENDBRANCH  23  24
ENDBRANCH  21  23
ENDBRANCH  20  21
ENDBRANCH  11  20
TORSDOF 6
ENDMDL
MODEL 4
REMARK VINA RESULT:      -7.0      4.356      7.990
REMARK  Name = 
REMARK  7 active torsions:
REMARK  status: ('A' for Active; 'I' for Inactive)
REMARK    1  A    between atoms: C_1  and  O_2
REMARK    2  A    between atoms: O_2  and  C_3
REMARK    3  A    between atoms: C_10  and  C_11
REMARK    4  A    between atoms: C_19  and  O_20
REMARK    5  A    between atoms: O_20  and  C_21
REMARK    6  A    between atoms: C_21  and  C_23
REMARK    7  A    between atoms: C_23  and  C_24
REMARK                            x       y       z     vdW  Elec       q    Type
REMARK                         _______ _______ _______ _____ _____    ______ ____
ROOT
ATOM      1  C   UNL     1       1.554  10.055  18.626  0.00  0.00    +0.000 A 
ATOM      2  C   UNL     1       2.618   9.584  17.854  0.00  0.00    +0.000 A 
ATOM      3  C   UNL     1       2.941   8.225  17.873  0.00  0.00    +0.000 A 
ATOM      4  O   UNL     1       3.987   7.828  17.021  0.00  0.00    +0.000 OA
ATOM      5  C   UNL     1       4.324   6.493  16.898  0.00  0.00    +0.000 A 
ATOM      6  O   UNL     1       5.172   6.105  16.102  0.00  0.00    +0.000 OA
ATOM      7  C   UNL     1       3.640   5.548  17.786  0.00  0.00    +0.000 A 
ATOM      8  C   UNL     1       2.669   5.905  18.641  0.00  0.00    +0.000 A 
ATOM      9  C   UNL     1       2.259   7.313  18.665  0.00  0.00    +0.000 A 
ATOM     10  C   UNL     1       1.203   7.781  19.448  0.00  0.00    +0.000 A 
ATOM     11  C   UNL     1       0.867   9.142  19.449  0.00  0.00    +0.000 A 
ENDROOT
BRANCH   8  12
ATOM     12  C   UNL     1       2.158   4.829  19.509  0.00  0.00    +0.000 A 
ATOM     13  C   UNL     1       2.589   4.751  20.839  0.00  0.00    +0.000 A 
ATOM     14  C   UNL     1       2.165   3.702  21.654  0.00  0.00    +0.000 A 
ATOM     15  C   UNL     1       1.305   2.730  21.145  0.00  0.00    +0.000 A 
ATOM     16  C   UNL     1       0.858   2.812  19.825  0.00  0.00    +0.000 A 
ATOM     17  C   UNL     1       1.283   3.859  19.006  0.00  0.00    +0.000 A 
ENDBRANCH   8  12
BRANCH   1  19
ATOM     18  C   UNL     1       2.153  12.340  18.410  0.00  0.00    +0.000 C 
ATOM     19  O   UNL     1       1.134  11.360  18.621  0.00  0.00    +0.000 OA
ENDBRANCH   1  19
BRANCH  11  20
ATOM     20  O   UNL     1      -0.245   9.611  20.195  0.00  0.00    +0.000 OA
BRANCH  20  21
ATOM     21  C   UNL     1      -0.150   9.835  21.574  0.00  0.00    +0.000 C 
ATOM     22  O   UNL     1      -0.108   8.978  22.449  0.00  0.00    +0.000 OA
BRANCH  21  23
ATOM     23  C   UNL     1      -0.078  11.318  21.858  0.00  0.00    +0.000 C 
BRANCH  23  24
ATOM     24  C   UNL     1      -1.463  11.831  22.072  0.00  0.00    +0.000 A 
ATOM     25  C   UNL     1      -2.213  11.814  23.232  0.00  0.00    +0.000 A 
ATOM     26  C   UNL     1      -3.445  12.515  23.083  0.00  0.00    +0.000 A 
ATOM     27  C   UNL     1      -3.608  13.006  21.808  0.00  0.00    +0.000 A 
ATOM     28  S   UNL     1      -2.299  12.598  20.788  0.00  0.00    +0.000 S 
ENDBRANCH  23  24
ENDBRANCH  21  23
ENDBRANCH  20  21
ENDBRANCH  11  20
TORSDOF 6
ENDMDL
MODEL 5
REMARK VINA RESULT:      -7.0      8.826     12.059
REMARK  Name = 
REMARK  7 active torsions:
REMARK  status: ('A' for Active; 'I' for Inactive)
REMARK    1  A    between atoms: C_1  and  O_2
REMARK    2  A    between atoms: O_2  and  C_3
REMARK    3  A    between atoms: C_10  and  C_11
REMARK    4  A    between atoms: C_19  and  O_20
REMARK    5  A    between atoms: O_20  and  C_21
REMARK    6  A    between atoms: C_21  and  C_23
REMARK    7  A    between atoms: C_23  and  C_24
REMARK                            x       y       z     vdW  Elec       q    Type
REMARK                         _______ _______ _______ _____ _____    ______ ____
ROOT
ATOM      1  C   UNL     1      -2.018  12.217  22.757  0.00  0.00    +0.000 A 
ATOM      2  C   UNL     1      -3.169  12.143  23.545  0.00  0.00    +0.000 A 
ATOM      3  C   UNL     1      -4.379  12.637  23.054  0.00  0.00    +0.000 A 
ATOM      4  O   UNL     1      -5.498  12.468  23.889  0.00  0.00    +0.000 OA
ATOM      5  C   UNL     1      -6.758  12.841  23.458  0.00  0.00    +0.000 A 
ATOM      6  O   UNL     1      -7.764  12.629  24.126  0.00  0.00    +0.000 OA
ATOM      7  C   UNL     1      -6.844  13.532  22.169  0.00  0.00    +0.000 A 
ATOM      8  C   UNL     1      -5.787  13.747  21.371  0.00  0.00    +0.000 A 
ATOM      9  C   UNL     1      -4.482  13.239  21.808  0.00  0.00    +0.000 A 
ATOM     10  C   UNL     1      -3.334  13.327  21.022  0.00  0.00    +0.000 A 
ATOM     11  C   UNL     1      -2.106  12.844  21.499  0.00  0.00    +0.000 A 
ENDROOT
BRANCH   8  12
ATOM     12  C   UNL     1      -6.058  14.530  20.152  0.00  0.00    +0.000 A 
ATOM     13  C   UNL     1      -5.872  15.919  20.168  0.00  0.00    +0.000 A 
ATOM     14  C   UNL     1      -6.186  16.681  19.043  0.00  0.00    +0.000 A 
ATOM     15  C   UNL     1      -6.681  16.060  17.898  0.00  0.00    +0.000 A 
ATOM     16  C   UNL     1      -6.852  14.675  17.871  0.00  0.00    +0.000 A 
ATOM     17  C   UNL     1      -6.542  13.909  18.996  0.00  0.00    +0.000 A 
ENDBRANCH   8  12
BRANCH   1  19
ATOM     18  C   UNL     1      -0.695  10.280  23.107  0.00  0.00    +0.000 C 
ATOM     19  O   UNL     1      -0.805  11.705  23.138  0.00  0.00    +0.000 OA
ENDBRANCH   1  19
BRANCH  11  20
ATOM     20  O   UNL     1      -0.950  12.874  20.678  0.00  0.00    +0.000 OA
BRANCH  20  21
ATOM     21  C   UNL     1      -0.990  12.424  19.353  0.00  0.00    +0.000 C 
ATOM     22  O   UNL     1      -0.696  13.073  18.354  0.00  0.00    +0.000 OA
BRANCH  21  23
ATOM     23  C   UNL     1      -1.432  10.979  19.305  0.00  0.00    +0.000 C 
BRANCH  23  24
ATOM     24  C   UNL     1      -2.193  10.754  18.042  0.00  0.00    +0.000 A 
ATOM     25  C   UNL     1      -1.833   9.989  16.950  0.00  0.00    +0.000 A 
ATOM     26  C   UNL     1      -2.878   9.909  15.984  0.00  0.00    +0.000 A 
ATOM     27  C   UNL     1      -3.980  10.646  16.354  0.00  0.00    +0.000 A 
ATOM     28  S   UNL     1      -3.744  11.454  17.841  0.00  0.00    +0.000 S 
ENDBRANCH  23  24
ENDBRANCH  21  23
ENDBRANCH  20  21
ENDBRANCH  11  20
TORSDOF 6
ENDMDL
MODEL 6
REMARK VINA RESULT:      -7.0      8.513     12.193
REMARK  Name = 
REMARK  7 active torsions:
REMARK  status: ('A' for Active; 'I' for Inactive)
REMARK    1  A    between atoms: C_1  and  O_2
REMARK    2  A    between atoms: O_2  and  C_3
REMARK    3  A    between atoms: C_10  and  C_11
REMARK    4  A    between atoms: C_19  and  O_20
REMARK    5  A    between atoms: O_20  and  C_21
REMARK    6  A    between atoms: C_21  and  C_23
REMARK    7  A    between atoms: C_23  and  C_24
REMARK                            x       y       z     vdW  Elec       q    Type
REMARK                         _______ _______ _______ _____ _____    ______ ____
ROOT
ATOM      1  C   UNL     1      -3.534  11.302  17.024  0.00  0.00    +0.000 A 
ATOM      2  C   UNL     1      -2.157  11.339  17.252  0.00  0.00    +0.000 A 
ATOM      3  C   UNL     1      -1.671  11.732  18.501  0.00  0.00    +0.000 A 
ATOM      4  O   UNL     1      -0.275  11.684  18.662  0.00  0.00    +0.000 OA
ATOM      5  C   UNL     1       0.300  11.966  19.888  0.00  0.00    +0.000 A 
ATOM      6  O   UNL     1       1.505  11.850  20.085  0.00  0.00    +0.000 OA
ATOM      7  C   UNL     1      -0.592  12.440  20.950  0.00  0.00    +0.000 A 
ATOM      8  C   UNL     1      -1.923  12.539  20.810  0.00  0.00    +0.000 A 
ATOM      9  C   UNL     1      -2.512  12.125  19.532  0.00  0.00    +0.000 A 
ATOM     10  C   UNL     1      -3.888  12.101  19.306  0.00  0.00    +0.000 A 
ATOM     11  C   UNL     1      -4.396  11.717  18.056  0.00  0.00    +0.000 A 
ENDROOT
BRANCH   8  12
ATOM     12  C   UNL     1      -2.643  13.112  21.961  0.00  0.00    +0.000 A 
ATOM     13  C   UNL     1      -2.816  14.499  22.046  0.00  0.00    +0.000 A 
ATOM     14  C   UNL     1      -3.437  15.062  23.160  0.00  0.00    +0.000 A 
ATOM     15  C   UNL     1      -3.893  14.242  24.191  0.00  0.00    +0.000 A 
ATOM     16  C   UNL     1      -3.738  12.857  24.104  0.00  0.00    +0.000 A 
ATOM     17  C   UNL     1      -3.114  12.291  22.992  0.00  0.00    +0.000 A 
ENDBRANCH   8  12
BRANCH   1  19
ATOM     18  C   UNL     1      -3.184  10.359  14.875  0.00  0.00    +0.000 C 
ATOM     19  O   UNL     1      -4.096  10.873  15.849  0.00  0.00    +0.000 OA
ENDBRANCH   1  19
BRANCH  11  20
ATOM     20  O   UNL     1      -5.796  11.631  17.842  0.00  0.00    +0.000 OA
BRANCH  20  21
ATOM     21  C   UNL     1      -6.561  12.774  17.578  0.00  0.00    +0.000 C 
ATOM     22  O   UNL     1      -6.311  13.639  16.745  0.00  0.00    +0.000 OA
BRANCH  21  23
ATOM     23  C   UNL     1      -7.789  12.796  18.459  0.00  0.00    +0.000 C 
BRANCH  23  24
ATOM     24  C   UNL     1      -7.354  12.930  19.880  0.00  0.00    +0.000 A 
ATOM     25  C   UNL     1      -6.825  14.038  20.513  0.00  0.00    +0.000 A 
ATOM     26  C   UNL     1      -6.653  13.825  21.911  0.00  0.00    +0.000 A 
ATOM     27  C   UNL     1      -7.017  12.552  22.287  0.00  0.00    +0.000 A 
ATOM     28  S   UNL     1      -7.535  11.611  20.958  0.00  0.00    +0.000 S 
ENDBRANCH  23  24
ENDBRANCH  21  23
ENDBRANCH  20  21
ENDBRANCH  11  20
TORSDOF 6
ENDMDL
MODEL 7
REMARK VINA RESULT:      -6.9      4.280      6.621
REMARK  Name = 
REMARK  7 active torsions:
REMARK  status: ('A' for Active; 'I' for Inactive)
REMARK    1  A    between atoms: C_1  and  O_2
REMARK    2  A    between atoms: O_2  and  C_3
REMARK    3  A    between atoms: C_10  and  C_11
REMARK    4  A    between atoms: C_19  and  O_20
REMARK    5  A    between atoms: O_20  and  C_21
REMARK    6  A    between atoms: C_21  and  C_23
REMARK    7  A    between atoms: C_23  and  C_24
REMARK                            x       y       z     vdW  Elec       q    Type
REMARK                         _______ _______ _______ _____ _____    ______ ____
ROOT
ATOM      1  C   UNL     1       0.963   8.141  20.757  0.00  0.00    +0.000 A 
ATOM      2  C   UNL     1       1.061   6.838  21.249  0.00  0.00    +0.000 A 
ATOM      3  C   UNL     1       1.878   5.910  20.598  0.00  0.00    +0.000 A 
ATOM      4  O   UNL     1       1.964   4.640  21.194  0.00  0.00    +0.000 OA
ATOM      5  C   UNL     1       2.816   3.679  20.679  0.00  0.00    +0.000 A 
ATOM      6  O   UNL     1       2.978   2.593  21.224  0.00  0.00    +0.000 OA
ATOM      7  C   UNL     1       3.506   4.002  19.427  0.00  0.00    +0.000 A 
ATOM      8  C   UNL     1       3.407   5.191  18.811  0.00  0.00    +0.000 A 
ATOM      9  C   UNL     1       2.583   6.225  19.445  0.00  0.00    +0.000 A 
ATOM     10  C   UNL     1       2.479   7.523  18.943  0.00  0.00    +0.000 A 
ATOM     11  C   UNL     1       1.658   8.467  19.577  0.00  0.00    +0.000 A 
ENDROOT
BRANCH   8  12
ATOM     12  C   UNL     1       4.110   5.300  17.521  0.00  0.00    +0.000 A 
ATOM     13  C   UNL     1       4.414   4.137  16.800  0.00  0.00    +0.000 A 
ATOM     14  C   UNL     1       5.136   4.219  15.610  0.00  0.00    +0.000 A 
ATOM     15  C   UNL     1       5.551   5.461  15.132  0.00  0.00    +0.000 A 
ATOM     16  C   UNL     1       5.236   6.624  15.836  0.00  0.00    +0.000 A 
ATOM     17  C   UNL     1       4.517   6.545  17.030  0.00  0.00    +0.000 A 
ENDBRANCH   8  12
BRANCH   1  19
ATOM     18  C   UNL     1       0.543   9.373  22.741  0.00  0.00    +0.000 C 
ATOM     19  O   UNL     1       0.232   9.128  21.367  0.00  0.00    +0.000 OA
ENDBRANCH   1  19
BRANCH  11  20
ATOM     20  O   UNL     1       1.599   9.804  19.107  0.00  0.00    +0.000 OA
BRANCH  20  21
ATOM     21  C   UNL     1       0.465  10.290  18.445  0.00  0.00    +0.000 C 
ATOM     22  O   UNL     1      -0.168   9.714  17.566  0.00  0.00    +0.000 OA
BRANCH  21  23
ATOM     23  C   UNL     1       0.087  11.650  18.986  0.00  0.00    +0.000 C 
BRANCH  23  24
ATOM     24  C   UNL     1       1.315  12.495  19.054  0.00  0.00    +0.000 A 
ATOM     25  C   UNL     1       2.125  12.912  18.017  0.00  0.00    +0.000 A 
ATOM     26  C   UNL     1       3.134  13.818  18.456  0.00  0.00    +0.000 A 
ATOM     27  C   UNL     1       3.081  14.028  19.816  0.00  0.00    +0.000 A 
ATOM     28  S   UNL     1       1.845  13.115  20.561  0.00  0.00    +0.000 S 
ENDBRANCH  23  24
ENDBRANCH  21  23
ENDBRANCH  20  21
ENDBRANCH  11  20
TORSDOF 6
ENDMDL
MODEL 8
REMARK VINA RESULT:      -6.9      4.341      7.305
REMARK  Name = 
REMARK  7 active torsions:
REMARK  status: ('A' for Active; 'I' for Inactive)
REMARK    1  A    between atoms: C_1  and  O_2
REMARK    2  A    between atoms: O_2  and  C_3
REMARK    3  A    between atoms: C_10  and  C_11
REMARK    4  A    between atoms: C_19  and  O_20
REMARK    5  A    between atoms: O_20  and  C_21
REMARK    6  A    between atoms: C_21  and  C_23
REMARK    7  A    between atoms: C_23  and  C_24
REMARK                            x       y       z     vdW  Elec       q    Type
REMARK                         _______ _______ _______ _____ _____    ______ ____
ROOT
ATOM      1  C   UNL     1       1.715  10.006  18.729  0.00  0.00    +0.000 A 
ATOM      2  C   UNL     1       2.709   9.496  17.891  0.00  0.00    +0.000 A 
ATOM      3  C   UNL     1       2.982   8.126  17.892  0.00  0.00    +0.000 A 
ATOM      4  O   UNL     1       3.954   7.691  16.975  0.00  0.00    +0.000 OA
ATOM      5  C   UNL     1       4.233   6.343  16.835  0.00  0.00    +0.000 A 
ATOM      6  O   UNL     1       5.013   5.924  15.986  0.00  0.00    +0.000 OA
ATOM      7  C   UNL     1       3.573   5.425  17.767  0.00  0.00    +0.000 A 
ATOM      8  C   UNL     1       2.674   5.818  18.683  0.00  0.00    +0.000 A 
ATOM      9  C   UNL     1       2.319   7.240  18.729  0.00  0.00    +0.000 A 
ATOM     10  C   UNL     1       1.334   7.747  19.577  0.00  0.00    +0.000 A 
ATOM     11  C   UNL     1       1.049   9.120  19.597  0.00  0.00    +0.000 A 
ENDROOT
BRANCH   8  12
ATOM     12  C   UNL     1       2.180   4.762  19.584  0.00  0.00    +0.000 A 
ATOM     13  C   UNL     1       2.671   4.687  20.894  0.00  0.00    +0.000 A 
ATOM     14  C   UNL     1       2.263   3.655  21.738  0.00  0.00    +0.000 A 
ATOM     15  C   UNL     1       1.359   2.698  21.280  0.00  0.00    +0.000 A 
ATOM     16  C   UNL     1       0.854   2.777  19.981  0.00  0.00    +0.000 A 
ATOM     17  C   UNL     1       1.263   3.807  19.133  0.00  0.00    +0.000 A 
ENDBRANCH   8  12
BRANCH   1  19
ATOM     18  C   UNL     1       2.326  12.254  18.279  0.00  0.00    +0.000 C 
ATOM     19  O   UNL     1       1.344  11.326  18.748  0.00  0.00    +0.000 OA
ENDBRANCH   1  19
BRANCH  11  20
ATOM     20  O   UNL     1       0.006   9.630  20.412  0.00  0.00    +0.000 OA
BRANCH  20  21
ATOM     21  C   UNL     1       0.259  10.088  21.711  0.00  0.00    +0.000 C 
ATOM     22  O   UNL     1       1.223   9.796  22.410  0.00  0.00    +0.000 OA
BRANCH  21  23
ATOM     23  C   UNL     1      -0.829  11.042  22.149  0.00  0.00    +0.000 C 
BRANCH  23  24
ATOM     24  C   UNL     1      -0.664  12.327  21.410  0.00  0.00    +0.000 A 
ATOM     25  C   UNL     1       0.328  13.277  21.557  0.00  0.00    +0.000 A 
ATOM     26  C   UNL     1       0.226  14.312  20.582  0.00  0.00    +0.000 A 
ATOM     27  C   UNL     1      -0.860  14.136  19.755  0.00  0.00    +0.000 A 
ATOM     28  S   UNL     1      -1.768  12.750  20.170  0.00  0.00    +0.000 S 
ENDBRANCH  23  24
ENDBRANCH  21  23
ENDBRANCH  20  21
ENDBRANCH  11  20
TORSDOF 6
ENDMDL
MODEL 9
REMARK VINA RESULT:      -6.9      7.589     11.509
REMARK  Name = 
REMARK  7 active torsions:
REMARK  status: ('A' for Active; 'I' for Inactive)
REMARK    1  A    between atoms: C_1  and  O_2
REMARK    2  A    between atoms: O_2  and  C_3
REMARK    3  A    between atoms: C_10  and  C_11
REMARK    4  A    between atoms: C_19  and  O_20
REMARK    5  A    between atoms: O_20  and  C_21
REMARK    6  A    between atoms: C_21  and  C_23
REMARK    7  A    between atoms: C_23  and  C_24
REMARK                            x       y       z     vdW  Elec       q    Type
REMARK                         _______ _______ _______ _____ _____    ______ ____
ROOT
ATOM      1  C   UNL     1      -3.483  10.778  16.543  0.00  0.00    +0.000 A 
ATOM      2  C   UNL     1      -2.213  10.277  16.835  0.00  0.00    +0.000 A 
ATOM      3  C   UNL     1      -1.612  10.579  18.060  0.00  0.00    +0.000 A 
ATOM      4  O   UNL     1      -0.360   9.984  18.295  0.00  0.00    +0.000 OA
ATOM      5  C   UNL     1       0.276  10.146  19.512  0.00  0.00    +0.000 A 
ATOM      6  O   UNL     1       1.326   9.573  19.780  0.00  0.00    +0.000 OA
ATOM      7  C   UNL     1      -0.346  11.062  20.473  0.00  0.00    +0.000 A 
ATOM      8  C   UNL     1      -1.518  11.678  20.257  0.00  0.00    +0.000 A 
ATOM      9  C   UNL     1      -2.221  11.396  19.001  0.00  0.00    +0.000 A 
ATOM     10  C   UNL     1      -3.485  11.909  18.709  0.00  0.00    +0.000 A 
ATOM     11  C   UNL     1      -4.102  11.625  17.482  0.00  0.00    +0.000 A 
ENDROOT
BRANCH   8  12
ATOM     12  C   UNL     1      -1.943  12.624  21.305  0.00  0.00    +0.000 A 
ATOM     13  C   UNL     1      -1.697  13.993  21.140  0.00  0.00    +0.000 A 
ATOM     14  C   UNL     1      -2.033  14.892  22.151  0.00  0.00    +0.000 A 
ATOM     15  C   UNL     1      -2.621  14.430  23.326  0.00  0.00    +0.000 A 
ATOM     16  C   UNL     1      -2.885  13.069  23.490  0.00  0.00    +0.000 A 
ATOM     17  C   UNL     1      -2.546  12.165  22.481  0.00  0.00    +0.000 A 
ENDBRANCH   8  12
BRANCH   1  19
ATOM     18  C   UNL     1      -3.365  10.106  14.272  0.00  0.00    +0.000 C 
ATOM     19  O   UNL     1      -4.168  10.484  15.392  0.00  0.00    +0.000 OA
ENDBRANCH   1  19
BRANCH  11  20
ATOM     20  O   UNL     1      -5.413  12.093  17.208  0.00  0.00    +0.000 OA
BRANCH  20  21
ATOM     21  C   UNL     1      -6.511  11.656  17.959  0.00  0.00    +0.000 C 
ATOM     22  O   UNL     1      -6.721  10.509  18.340  0.00  0.00    +0.000 OA
BRANCH  21  23
ATOM     23  C   UNL     1      -7.424  12.818  18.276  0.00  0.00    +0.000 C 
BRANCH  23  24
ATOM     24  C   UNL     1      -6.784  13.653  19.334  0.00  0.00    +0.000 A 
ATOM     25  C   UNL     1      -6.282  13.250  20.556  0.00  0.00    +0.000 A 
ATOM     26  C   UNL     1      -5.627  14.314  21.242  0.00  0.00    +0.000 A 
ATOM     27  C   UNL     1      -5.688  15.496  20.540  0.00  0.00    +0.000 A 
ATOM     28  S   UNL     1      -6.556  15.332  19.077  0.00  0.00    +0.000 S 
ENDBRANCH  23  24
ENDBRANCH  21  23
ENDBRANCH  20  21
ENDBRANCH  11  20
TORSDOF 6
ENDMDL
