MODEL 1
REMARK VINA RESULT:      -7.8      0.000      0.000
REMARK  Name = 
REMARK  7 active torsions:
REMARK  status: ('A' for Active; 'I' for Inactive)
REMARK    1  A    between atoms: C_1  and  O_2
REMARK    2  A    between atoms: O_2  and  C_3
REMARK    3  A    between atoms: C_6  and  C_7
REMARK    4  A    between atoms: C_11  and  C_13
REMARK    5  A    between atoms: C_14  and  C_15
REMARK    6  A    between atoms: C_18  and  C_19
REMARK    7  A    between atoms: C_21  and  C_22
REMARK                            x       y       z     vdW  Elec       q    Type
REMARK                         _______ _______ _______ _____ _____    ______ ____
ROOT
ATOM      1  C   UNL     1       3.885   5.251  18.758  0.00  0.00    +0.000 A 
ATOM      2  N   UNL     1       3.305   6.484  18.999  0.00  0.00    +0.000 NA
ATOM      3  C   UNL     1       2.424   6.402  19.953  0.00  0.00    +0.000 A 
ATOM      4  N   UNL     1       1.599   7.388  20.422  0.00  0.00    +0.000 N 
ATOM      5  C   UNL     1       1.482   8.578  19.734  0.00  0.00    +0.000 C 
ATOM      6  O   UNL     1       2.051   8.867  18.686  0.00  0.00    +0.000 OA
ATOM      7  S   UNL     1       2.277   4.882  20.701  0.00  0.00    +0.000 S 
ATOM      8  C   UNL     1       3.451   4.236  19.601  0.00  0.00    +0.000 A 
ATOM      9  C   UNL     1       3.843   2.801  19.695  0.00  0.00    +0.000 C 
ATOM     10  H   UNL     1       0.979   7.155  21.181  0.00  0.00    +0.000 HD
ENDROOT
BRANCH   5  11
ATOM     11  C   UNL     1       0.536   9.517  20.304  0.00  0.00    +0.000 A 
ATOM     12  C   UNL     1       0.356   9.827  21.685  0.00  0.00    +0.000 A 
ATOM     13  C   UNL     1       1.107   9.331  22.864  0.00  0.00    +0.000 C 
ATOM     14  N   UNL     1      -0.637  10.707  21.861  0.00  0.00    +0.000 NA
ATOM     15  O   UNL     1      -1.146  10.958  20.606  0.00  0.00    +0.000 OA
ATOM     16  C   UNL     1      -0.456  10.244  19.677  0.00  0.00    +0.000 A 
ATOM     17  C   UNL     1      -0.956  10.360  18.293  0.00  0.00    +0.000 C 
ENDBRANCH   5  11
BRANCH   1  21
ATOM     18  C   UNL     1       6.793   5.145  15.620  0.00  0.00    +0.000 A 
ATOM     19  C   UNL     1       7.004   5.901  16.771  0.00  0.00    +0.000 A 
ATOM     20  C   UNL     1       6.059   5.901  17.800  0.00  0.00    +0.000 A 
ATOM     21  C   UNL     1       4.875   5.155  17.690  0.00  0.00    +0.000 A 
ATOM     22  C   UNL     1       4.655   4.427  16.515  0.00  0.00    +0.000 A 
ATOM     23  C   UNL     1       5.611   4.416  15.492  0.00  0.00    +0.000 A 
BRANCH  18  25
ATOM     24  C   UNL     1       7.392   4.873  13.352  0.00  0.00    +0.000 C 
ATOM     25  O   UNL     1       7.774   5.237  14.673  0.00  0.00    +0.000 OA
ENDBRANCH  18  25
ENDBRANCH   1  21
TORSDOF 3
ENDMDL
MODEL 2
REMARK VINA RESULT:      -7.8      0.422      1.660
REMARK  Name = 
REMARK  7 active torsions:
REMARK  status: ('A' for Active; 'I' for Inactive)
REMARK    1  A    between atoms: C_1  and  O_2
REMARK    2  A    between atoms: O_2  and  C_3
REMARK    3  A    between atoms: C_6  and  C_7
REMARK    4  A    between atoms: C_11  and  C_13
REMARK    5  A    between atoms: C_14  and  C_15
REMARK    6  A    between atoms: C_18  and  C_19
REMARK    7  A    between atoms: C_21  and  C_22
REMARK                            x       y       z     vdW  Elec       q    Type
REMARK                         _______ _______ _______ _____ _____    ______ ____
ROOT
ATOM      1  C   UNL     1       3.849   5.183  18.851  0.00  0.00    +0.000 A 
ATOM      2  N   UNL     1       3.263   6.410  19.103  0.00  0.00    +0.000 NA
ATOM      3  C   UNL     1       2.379   6.312  20.053  0.00  0.00    +0.000 A 
ATOM      4  N   UNL     1       1.547   7.289  20.530  0.00  0.00    +0.000 N 
ATOM      5  C   UNL     1       1.427   8.486  19.855  0.00  0.00    +0.000 C 
ATOM      6  O   UNL     1       1.998   8.790  18.813  0.00  0.00    +0.000 OA
ATOM      7  S   UNL     1       2.236   4.784  20.784  0.00  0.00    +0.000 S 
ATOM      8  C   UNL     1       3.417   4.156  19.681  0.00  0.00    +0.000 A 
ATOM      9  C   UNL     1       3.816   2.722  19.760  0.00  0.00    +0.000 C 
ATOM     10  H   UNL     1       0.926   7.044  21.284  0.00  0.00    +0.000 HD
ENDROOT
BRANCH   5  11
ATOM     11  C   UNL     1       0.473   9.414  20.433  0.00  0.00    +0.000 A 
ATOM     12  C   UNL     1      -0.433  10.264  19.733  0.00  0.00    +0.000 A 
ATOM     13  C   UNL     1      -0.674  10.383  18.274  0.00  0.00    +0.000 C 
ATOM     14  N   UNL     1      -1.140  11.023  20.579  0.00  0.00    +0.000 NA
ATOM     15  O   UNL     1      -0.684  10.709  21.840  0.00  0.00    +0.000 OA
ATOM     16  C   UNL     1       0.283   9.757  21.756  0.00  0.00    +0.000 A 
ATOM     17  C   UNL     1       0.917   9.386  23.037  0.00  0.00    +0.000 C 
ENDBRANCH   5  11
BRANCH   1  21
ATOM     18  C   UNL     1       6.764   5.127  15.718  0.00  0.00    +0.000 A 
ATOM     19  C   UNL     1       6.946   5.910  16.856  0.00  0.00    +0.000 A 
ATOM     20  C   UNL     1       6.000   5.893  17.884  0.00  0.00    +0.000 A 
ATOM     21  C   UNL     1       4.844   5.103  17.786  0.00  0.00    +0.000 A 
ATOM     22  C   UNL     1       4.652   4.348  16.624  0.00  0.00    +0.000 A 
ATOM     23  C   UNL     1       5.610   4.353  15.601  0.00  0.00    +0.000 A 
BRANCH  18  25
ATOM     24  C   UNL     1       7.355   4.908  13.442  0.00  0.00    +0.000 C 
ATOM     25  O   UNL     1       7.743   5.237  14.771  0.00  0.00    +0.000 OA
ENDBRANCH  18  25
ENDBRANCH   1  21
TORSDOF 3
ENDMDL
MODEL 3
REMARK VINA RESULT:      -7.8      1.625      2.142
REMARK  Name = 
REMARK  7 active torsions:
REMARK  status: ('A' for Active; 'I' for Inactive)
REMARK    1  A    between atoms: C_1  and  O_2
REMARK    2  A    between atoms: O_2  and  C_3
REMARK    3  A    between atoms: C_6  and  C_7
REMARK    4  A    between atoms: C_11  and  C_13
REMARK    5  A    between atoms: C_14  and  C_15
REMARK    6  A    between atoms: C_18  and  C_19
REMARK    7  A    between atoms: C_21  and  C_22
REMARK                            x       y       z     vdW  Elec       q    Type
REMARK                         _______ _______ _______ _____ _____    ______ ____
ROOT
ATOM      1  C   UNL     1       3.643   6.158  18.479  0.00  0.00    +0.000 A 
ATOM      2  N   UNL     1       3.095   7.425  18.401  0.00  0.00    +0.000 NA
ATOM      3  C   UNL     1       2.156   7.578  19.289  0.00  0.00    +0.000 A 
ATOM      4  N   UNL     1       1.341   8.661  19.472  0.00  0.00    +0.000 N 
ATOM      5  C   UNL     1       1.308   9.670  18.531  0.00  0.00    +0.000 C 
ATOM      6  O   UNL     1       1.948   9.704  17.485  0.00  0.00    +0.000 OA
ATOM      7  S   UNL     1       1.910   6.267  20.344  0.00  0.00    +0.000 S 
ATOM      8  C   UNL     1       3.124   5.366  19.495  0.00  0.00    +0.000 A 
ATOM      9  C   UNL     1       3.458   3.981  19.931  0.00  0.00    +0.000 C 
ATOM     10  H   UNL     1       0.669   8.617  20.221  0.00  0.00    +0.000 HD
ENDROOT
BRANCH   5  11
ATOM     11  C   UNL     1       0.363  10.733  18.815  0.00  0.00    +0.000 A 
ATOM     12  C   UNL     1      -0.955  10.875  18.291  0.00  0.00    +0.000 A 
ATOM     13  C   UNL     1      -1.710   9.972  17.387  0.00  0.00    +0.000 C 
ATOM     14  N   UNL     1      -1.536  11.998  18.731  0.00  0.00    +0.000 NA
ATOM     15  O   UNL     1      -0.596  12.625  19.518  0.00  0.00    +0.000 OA
ATOM     16  C   UNL     1       0.540  11.878  19.564  0.00  0.00    +0.000 A 
ATOM     17  C   UNL     1       1.661  12.480  20.312  0.00  0.00    +0.000 C 
ENDBRANCH   5  11
BRANCH   1  21
ATOM     18  C   UNL     1       6.737   5.291  15.652  0.00  0.00    +0.000 A 
ATOM     19  C   UNL     1       6.934   6.221  16.671  0.00  0.00    +0.000 A 
ATOM     20  C   UNL     1       5.925   6.470  17.604  0.00  0.00    +0.000 A 
ATOM     21  C   UNL     1       4.692   5.803  17.527  0.00  0.00    +0.000 A 
ATOM     22  C   UNL     1       4.490   4.898  16.479  0.00  0.00    +0.000 A 
ATOM     23  C   UNL     1       5.510   4.638  15.553  0.00  0.00    +0.000 A 
BRANCH  18  25
ATOM     24  C   UNL     1       7.434   4.915  13.427  0.00  0.00    +0.000 C 
ATOM     25  O   UNL     1       7.785   5.144  14.786  0.00  0.00    +0.000 OA
ENDBRANCH  18  25
ENDBRANCH   1  21
TORSDOF 3
ENDMDL
MODEL 4
REMARK VINA RESULT:      -7.7      1.533      1.608
REMARK  Name = 
REMARK  7 active torsions:
REMARK  status: ('A' for Active; 'I' for Inactive)
REMARK    1  A    between atoms: C_1  and  O_2
REMARK    2  A    between atoms: O_2  and  C_3
REMARK    3  A    between atoms: C_6  and  C_7
REMARK    4  A    between atoms: C_11  and  C_13
REMARK    5  A    between atoms: C_14  and  C_15
REMARK    6  A    between atoms: C_18  and  C_19
REMARK    7  A    between atoms: C_21  and  C_22
REMARK                            x       y       z     vdW  Elec       q    Type
REMARK                         _______ _______ _______ _____ _____    ______ ____
ROOT
ATOM      1  C   UNL     1       3.592   6.186  18.548  0.00  0.00    +0.000 A 
ATOM      2  N   UNL     1       3.028   7.445  18.442  0.00  0.00    +0.000 NA
ATOM      3  C   UNL     1       2.087   7.605  19.325  0.00  0.00    +0.000 A 
ATOM      4  N   UNL     1       1.257   8.683  19.483  0.00  0.00    +0.000 N 
ATOM      5  C   UNL     1       1.213   9.669  18.519  0.00  0.00    +0.000 C 
ATOM      6  O   UNL     1       1.854   9.688  17.474  0.00  0.00    +0.000 OA
ATOM      7  S   UNL     1       1.855   6.316  20.409  0.00  0.00    +0.000 S 
ATOM      8  C   UNL     1       3.081   5.411  19.582  0.00  0.00    +0.000 A 
ATOM      9  C   UNL     1       3.432   4.040  20.049  0.00  0.00    +0.000 C 
ATOM     10  H   UNL     1       0.585   8.647  20.232  0.00  0.00    +0.000 HD
ENDROOT
BRANCH   5  11
ATOM     11  C   UNL     1       0.255  10.726  18.779  0.00  0.00    +0.000 A 
ATOM     12  C   UNL     1       0.409  11.829  19.669  0.00  0.00    +0.000 A 
ATOM     13  C   UNL     1       1.579  12.210  20.499  0.00  0.00    +0.000 C 
ATOM     14  N   UNL     1      -0.691  12.592  19.696  0.00  0.00    +0.000 NA
ATOM     15  O   UNL     1      -1.594  11.980  18.854  0.00  0.00    +0.000 OA
ATOM     16  C   UNL     1      -1.037  10.864  18.313  0.00  0.00    +0.000 A 
ATOM     17  C   UNL     1      -1.932  10.068  17.451  0.00  0.00    +0.000 C 
ENDBRANCH   5  11
BRANCH   1  21
ATOM     18  C   UNL     1       6.694   5.294  15.738  0.00  0.00    +0.000 A 
ATOM     19  C   UNL     1       6.860   6.286  16.703  0.00  0.00    +0.000 A 
ATOM     20  C   UNL     1       5.850   6.544  17.633  0.00  0.00    +0.000 A 
ATOM     21  C   UNL     1       4.645   5.824  17.605  0.00  0.00    +0.000 A 
ATOM     22  C   UNL     1       4.473   4.854  16.611  0.00  0.00    +0.000 A 
ATOM     23  C   UNL     1       5.494   4.586  15.690  0.00  0.00    +0.000 A 
BRANCH  18  25
ATOM     24  C   UNL     1       7.384   4.887  13.517  0.00  0.00    +0.000 C 
ATOM     25  O   UNL     1       7.739   5.143  14.871  0.00  0.00    +0.000 OA
ENDBRANCH  18  25
ENDBRANCH   1  21
TORSDOF 3
ENDMDL
MODEL 5
REMARK VINA RESULT:      -7.5      1.709      2.454
REMARK  Name = 
REMARK  7 active torsions:
REMARK  status: ('A' for Active; 'I' for Inactive)
REMARK    1  A    between atoms: C_1  and  O_2
REMARK    2  A    between atoms: O_2  and  C_3
REMARK    3  A    between atoms: C_6  and  C_7
REMARK    4  A    between atoms: C_11  and  C_13
REMARK    5  A    between atoms: C_14  and  C_15
REMARK    6  A    between atoms: C_18  and  C_19
REMARK    7  A    between atoms: C_21  and  C_22
REMARK                            x       y       z     vdW  Elec       q    Type
REMARK                         _______ _______ _______ _____ _____    ______ ____
ROOT
ATOM      1  C   UNL     1       3.343   6.275  18.600  0.00  0.00    +0.000 A 
ATOM      2  N   UNL     1       2.839   7.558  18.496  0.00  0.00    +0.000 NA
ATOM      3  C   UNL     1       1.979   7.795  19.443  0.00  0.00    +0.000 A 
ATOM      4  N   UNL     1       1.221   8.920  19.629  0.00  0.00    +0.000 N 
ATOM      5  C   UNL     1       1.154   9.880  18.640  0.00  0.00    +0.000 C 
ATOM      6  O   UNL     1       1.712   9.834  17.549  0.00  0.00    +0.000 OA
ATOM      7  S   UNL     1       1.766   6.551  20.583  0.00  0.00    +0.000 S 
ATOM      8  C   UNL     1       2.875   5.558  19.694  0.00  0.00    +0.000 A 
ATOM      9  C   UNL     1       3.189   4.184  20.177  0.00  0.00    +0.000 C 
ATOM     10  H   UNL     1       0.609   8.942  20.428  0.00  0.00    +0.000 HD
ENDROOT
BRANCH   5  11
ATOM     11  C   UNL     1       0.275  10.994  18.938  0.00  0.00    +0.000 A 
ATOM     12  C   UNL     1      -1.072  11.167  18.504  0.00  0.00    +0.000 A 
ATOM     13  C   UNL     1      -1.927  10.255  17.705  0.00  0.00    +0.000 C 
ATOM     14  N   UNL     1      -1.574  12.334  18.927  0.00  0.00    +0.000 NA
ATOM     15  O   UNL     1      -0.554  12.957  19.611  0.00  0.00    +0.000 OA
ATOM     16  C   UNL     1       0.551  12.166  19.612  0.00  0.00    +0.000 A 
ATOM     17  C   UNL     1       1.748  12.754  20.246  0.00  0.00    +0.000 C 
ENDBRANCH   5  11
BRANCH   1  21
ATOM     18  C   UNL     1       6.148   4.806  15.721  0.00  0.00    +0.000 A 
ATOM     19  C   UNL     1       4.962   4.124  15.982  0.00  0.00    +0.000 A 
ATOM     20  C   UNL     1       4.042   4.633  16.902  0.00  0.00    +0.000 A 
ATOM     21  C   UNL     1       4.300   5.829  17.592  0.00  0.00    +0.000 A 
ATOM     22  C   UNL     1       5.510   6.488  17.349  0.00  0.00    +0.000 A 
ATOM     23  C   UNL     1       6.423   5.985  16.414  0.00  0.00    +0.000 A 
BRANCH  18  25
ATOM     24  C   UNL     1       6.396   3.882  13.562  0.00  0.00    +0.000 C 
ATOM     25  O   UNL     1       6.980   4.206  14.817  0.00  0.00    +0.000 OA
ENDBRANCH  18  25
ENDBRANCH   1  21
TORSDOF 3
ENDMDL
MODEL 6
REMARK VINA RESULT:      -7.5      2.180      2.665
REMARK  Name = 
REMARK  7 active torsions:
REMARK  status: ('A' for Active; 'I' for Inactive)
REMARK    1  A    between atoms: C_1  and  O_2
REMARK    2  A    between atoms: O_2  and  C_3
REMARK    3  A    between atoms: C_6  and  C_7
REMARK    4  A    between atoms: C_11  and  C_13
REMARK    5  A    between atoms: C_14  and  C_15
REMARK    6  A    between atoms: C_18  and  C_19
REMARK    7  A    between atoms: C_21  and  C_22
REMARK                            x       y       z     vdW  Elec       q    Type
REMARK                         _______ _______ _______ _____ _____    ______ ____
ROOT
ATOM      1  C   UNL     1       2.748   6.429  19.044  0.00  0.00    +0.000 A 
ATOM      2  N   UNL     1       2.511   7.755  18.728  0.00  0.00    +0.000 NA
ATOM      3  C   UNL     1       1.724   8.305  19.605  0.00  0.00    +0.000 A 
ATOM      4  N   UNL     1       1.210   9.574  19.594  0.00  0.00    +0.000 N 
ATOM      5  C   UNL     1       1.328  10.358  18.466  0.00  0.00    +0.000 C 
ATOM      6  O   UNL     1       1.855  10.030  17.408  0.00  0.00    +0.000 OA
ATOM      7  S   UNL     1       1.276   7.326  20.922  0.00  0.00    +0.000 S 
ATOM      8  C   UNL     1       2.155   6.004  20.226  0.00  0.00    +0.000 A 
ATOM      9  C   UNL     1       2.192   4.689  20.927  0.00  0.00    +0.000 C 
ATOM     10  H   UNL     1       0.621   9.844  20.365  0.00  0.00    +0.000 HD
ENDROOT
BRANCH   5  11
ATOM     11  C   UNL     1       0.693  11.658  18.563  0.00  0.00    +0.000 A 
ATOM     12  C   UNL     1       1.337  12.929  18.623  0.00  0.00    +0.000 A 
ATOM     13  C   UNL     1       2.783  13.254  18.546  0.00  0.00    +0.000 C 
ATOM     14  N   UNL     1       0.448  13.921  18.753  0.00  0.00    +0.000 NA
ATOM     15  O   UNL     1      -0.787  13.314  18.817  0.00  0.00    +0.000 OA
ATOM     16  C   UNL     1      -0.644  11.966  18.713  0.00  0.00    +0.000 A 
ATOM     17  C   UNL     1      -1.891  11.187  18.849  0.00  0.00    +0.000 C 
ENDBRANCH   5  11
BRANCH   1  21
ATOM     18  C   UNL     1       5.178   4.257  16.270  0.00  0.00    +0.000 A 
ATOM     19  C   UNL     1       5.392   5.614  16.506  0.00  0.00    +0.000 A 
ATOM     20  C   UNL     1       4.611   6.301  17.438  0.00  0.00    +0.000 A 
ATOM     21  C   UNL     1       3.587   5.647  18.141  0.00  0.00    +0.000 A 
ATOM     22  C   UNL     1       3.356   4.294  17.872  0.00  0.00    +0.000 A 
ATOM     23  C   UNL     1       4.152   3.602  16.950  0.00  0.00    +0.000 A 
BRANCH  18  25
ATOM     24  C   UNL     1       6.767   4.605  14.559  0.00  0.00    +0.000 C 
ATOM     25  O   UNL     1       5.989   3.694  15.325  0.00  0.00    +0.000 OA
ENDBRANCH  18  25
ENDBRANCH   1  21
TORSDOF 3
ENDMDL
MODEL 7
REMARK VINA RESULT:      -7.4      2.106      2.693
REMARK  Name = 
REMARK  7 active torsions:
REMARK  status: ('A' for Active; 'I' for Inactive)
REMARK    1  A    between atoms: C_1  and  O_2
REMARK    2  A    between atoms: O_2  and  C_3
REMARK    3  A    between atoms: C_6  and  C_7
REMARK    4  A    between atoms: C_11  and  C_13
REMARK    5  A    between atoms: C_14  and  C_15
REMARK    6  A    between atoms: C_18  and  C_19
REMARK    7  A    between atoms: C_21  and  C_22
REMARK                            x       y       z     vdW  Elec       q    Type
REMARK                         _______ _______ _______ _____ _____    ______ ____
ROOT
ATOM      1  C   UNL     1       2.841   6.359  18.909  0.00  0.00    +0.000 A 
ATOM      2  N   UNL     1       2.578   7.692  18.649  0.00  0.00    +0.000 NA
ATOM      3  C   UNL     1       1.797   8.195  19.559  0.00  0.00    +0.000 A 
ATOM      4  N   UNL     1       1.263   9.455  19.606  0.00  0.00    +0.000 N 
ATOM      5  C   UNL     1       1.351  10.285  18.508  0.00  0.00    +0.000 C 
ATOM      6  O   UNL     1       1.867  10.006  17.430  0.00  0.00    +0.000 OA
ATOM      7  S   UNL     1       1.385   7.158  20.842  0.00  0.00    +0.000 S 
ATOM      8  C   UNL     1       2.273   5.878  20.081  0.00  0.00    +0.000 A 
ATOM      9  C   UNL     1       2.340   4.537  20.729  0.00  0.00    +0.000 C 
ATOM     10  H   UNL     1       0.683   9.685  20.396  0.00  0.00    +0.000 HD
ENDROOT
BRANCH   5  11
ATOM     11  C   UNL     1       0.698  11.570  18.667  0.00  0.00    +0.000 A 
ATOM     12  C   UNL     1      -0.704  11.830  18.661  0.00  0.00    +0.000 A 
ATOM     13  C   UNL     1      -1.836  10.876  18.552  0.00  0.00    +0.000 C 
ATOM     14  N   UNL     1      -0.958  13.137  18.790  0.00  0.00    +0.000 NA
ATOM     15  O   UNL     1       0.272  13.756  18.845  0.00  0.00    +0.000 OA
ATOM     16  C   UNL     1       1.260  12.827  18.763  0.00  0.00    +0.000 A 
ATOM     17  C   UNL     1       2.633  13.367  18.728  0.00  0.00    +0.000 C 
ENDBRANCH   5  11
BRANCH   1  21
ATOM     18  C   UNL     1       5.232   4.317  16.005  0.00  0.00    +0.000 A 
ATOM     19  C   UNL     1       5.281   5.704  16.131  0.00  0.00    +0.000 A 
ATOM     20  C   UNL     1       4.518   6.353  17.105  0.00  0.00    +0.000 A 
ATOM     21  C   UNL     1       3.676   5.626  17.963  0.00  0.00    +0.000 A 
ATOM     22  C   UNL     1       3.606   4.238  17.805  0.00  0.00    +0.000 A 
ATOM     23  C   UNL     1       4.385   3.587  16.839  0.00  0.00    +0.000 A 
BRANCH  18  25
ATOM     24  C   UNL     1       6.949   4.686  14.427  0.00  0.00    +0.000 C 
ATOM     25  O   UNL     1       6.005   3.794  15.007  0.00  0.00    +0.000 OA
ENDBRANCH  18  25
ENDBRANCH   1  21
TORSDOF 3
ENDMDL
MODEL 8
REMARK VINA RESULT:      -7.3      0.870      1.134
REMARK  Name = 
REMARK  7 active torsions:
REMARK  status: ('A' for Active; 'I' for Inactive)
REMARK    1  A    between atoms: C_1  and  O_2
REMARK    2  A    between atoms: O_2  and  C_3
REMARK    3  A    between atoms: C_6  and  C_7
REMARK    4  A    between atoms: C_11  and  C_13
REMARK    5  A    between atoms: C_14  and  C_15
REMARK    6  A    between atoms: C_18  and  C_19
REMARK    7  A    between atoms: C_21  and  C_22
REMARK                            x       y       z     vdW  Elec       q    Type
REMARK                         _______ _______ _______ _____ _____    ______ ____
ROOT
ATOM      1  C   UNL     1       3.533   5.180  18.503  0.00  0.00    +0.000 A 
ATOM      2  N   UNL     1       3.042   6.427  18.849  0.00  0.00    +0.000 NA
ATOM      3  C   UNL     1       2.337   6.358  19.940  0.00  0.00    +0.000 A 
ATOM      4  N   UNL     1       1.637   7.363  20.553  0.00  0.00    +0.000 N 
ATOM      5  C   UNL     1       1.439   8.564  19.903  0.00  0.00    +0.000 C 
ATOM      6  O   UNL     1       1.827   8.849  18.775  0.00  0.00    +0.000 OA
ATOM      7  S   UNL     1       2.275   4.835  20.693  0.00  0.00    +0.000 S 
ATOM      8  C   UNL     1       3.220   4.168  19.401  0.00  0.00    +0.000 A 
ATOM      9  C   UNL     1       3.578   2.721  19.416  0.00  0.00    +0.000 C 
ATOM     10  H   UNL     1       1.151   7.138  21.406  0.00  0.00    +0.000 HD
ENDROOT
BRANCH   5  11
ATOM     11  C   UNL     1       0.635   9.523  20.636  0.00  0.00    +0.000 A 
ATOM     12  C   UNL     1       0.713   9.827  22.027  0.00  0.00    +0.000 A 
ATOM     13  C   UNL     1       1.647   9.302  23.053  0.00  0.00    +0.000 C 
ATOM     14  N   UNL     1      -0.209  10.732  22.380  0.00  0.00    +0.000 NA
ATOM     15  O   UNL     1      -0.926  11.005  21.236  0.00  0.00    +0.000 OA
ATOM     16  C   UNL     1      -0.432  10.280  20.197  0.00  0.00    +0.000 A 
ATOM     17  C   UNL     1      -1.167  10.420  18.925  0.00  0.00    +0.000 C 
ENDBRANCH   5  11
BRANCH   1  21
ATOM     18  C   UNL     1       5.958   4.751  15.003  0.00  0.00    +0.000 A 
ATOM     19  C   UNL     1       5.560   3.640  15.743  0.00  0.00    +0.000 A 
ATOM     20  C   UNL     1       4.743   3.794  16.866  0.00  0.00    +0.000 A 
ATOM     21  C   UNL     1       4.319   5.068  17.279  0.00  0.00    +0.000 A 
ATOM     22  C   UNL     1       4.753   6.181  16.550  0.00  0.00    +0.000 A 
ATOM     23  C   UNL     1       5.559   6.023  15.415  0.00  0.00    +0.000 A 
BRANCH  18  25
ATOM     24  C   UNL     1       6.217   3.637  12.937  0.00  0.00    +0.000 C 
ATOM     25  O   UNL     1       6.771   4.483  13.938  0.00  0.00    +0.000 OA
ENDBRANCH  18  25
ENDBRANCH   1  21
TORSDOF 3
ENDMDL
MODEL 9
REMARK VINA RESULT:      -7.2      1.869      2.426
REMARK  Name = 
REMARK  7 active torsions:
REMARK  status: ('A' for Active; 'I' for Inactive)
REMARK    1  A    between atoms: C_1  and  O_2
REMARK    2  A    between atoms: O_2  and  C_3
REMARK    3  A    between atoms: C_6  and  C_7
REMARK    4  A    between atoms: C_11  and  C_13
REMARK    5  A    between atoms: C_14  and  C_15
REMARK    6  A    between atoms: C_18  and  C_19
REMARK    7  A    between atoms: C_21  and  C_22
REMARK                            x       y       z     vdW  Elec       q    Type
REMARK                         _______ _______ _______ _____ _____    ______ ____
ROOT
ATOM      1  C   UNL     1       3.051   6.391  18.854  0.00  0.00    +0.000 A 
ATOM      2  N   UNL     1       2.655   7.697  18.626  0.00  0.00    +0.000 NA
ATOM      3  C   UNL     1       1.816   8.090  19.539  0.00  0.00    +0.000 A 
ATOM      4  N   UNL     1       1.154   9.286  19.613  0.00  0.00    +0.000 N 
ATOM      5  C   UNL     1       1.167  10.151  18.538  0.00  0.00    +0.000 C 
ATOM      6  O   UNL     1       1.720   9.958  17.461  0.00  0.00    +0.000 OA
ATOM      7  S   UNL     1       1.500   6.981  20.788  0.00  0.00    +0.000 S 
ATOM      8  C   UNL     1       2.524   5.821  20.006  0.00  0.00    +0.000 A 
ATOM      9  C   UNL     1       2.724   4.477  20.618  0.00  0.00    +0.000 C 
ATOM     10  H   UNL     1       0.544   9.433  20.401  0.00  0.00    +0.000 HD
ENDROOT
BRANCH   5  11
ATOM     11  C   UNL     1       0.382  11.357  18.723  0.00  0.00    +0.000 A 
ATOM     12  C   UNL     1       0.845  12.621  19.193  0.00  0.00    +0.000 A 
ATOM     13  C   UNL     1       2.220  13.044  19.553  0.00  0.00    +0.000 C 
ATOM     14  N   UNL     1      -0.158  13.504  19.283  0.00  0.00    +0.000 NA
ATOM     15  O   UNL     1      -1.295  12.822  18.909  0.00  0.00    +0.000 OA
ATOM     16  C   UNL     1      -0.978  11.541  18.583  0.00  0.00    +0.000 A 
ATOM     17  C   UNL     1      -2.124  10.676  18.241  0.00  0.00    +0.000 C 
ENDBRANCH   5  11
BRANCH   1  21
ATOM     18  C   UNL     1       5.722   4.432  16.144  0.00  0.00    +0.000 A 
ATOM     19  C   UNL     1       4.462   3.906  16.418  0.00  0.00    +0.000 A 
ATOM     20  C   UNL     1       3.589   4.574  17.281  0.00  0.00    +0.000 A 
ATOM     21  C   UNL     1       3.969   5.776  17.900  0.00  0.00    +0.000 A 
ATOM     22  C   UNL     1       5.250   6.277  17.647  0.00  0.00    +0.000 A 
ATOM     23  C   UNL     1       6.117   5.615  16.769  0.00  0.00    +0.000 A 
BRANCH  18  25
ATOM     24  C   UNL     1       6.261   3.879  13.912  0.00  0.00    +0.000 C 
ATOM     25  O   UNL     1       6.497   3.684  15.302  0.00  0.00    +0.000 OA
ENDBRANCH  18  25
ENDBRANCH   1  21
TORSDOF 3
ENDMDL
