MODEL 1
REMARK VINA RESULT:      -7.8      0.000      0.000
REMARK  Name = 
REMARK  9 active torsions:
REMARK  status: ('A' for Active; 'I' for Inactive)
REMARK    1  A    between atoms: C_1  and  C_2
REMARK    2  A    between atoms: C_2  and  C_3
REMARK    3  A    between atoms: C_2  and  C_4
REMARK    4  A    between atoms: C_2  and  N_5
REMARK    5  A    between atoms: N_5  and  C_6
REMARK    6  A    between atoms: C_6  and  C_7
REMARK    7  A    between atoms: C_9  and  N_10
REMARK    8  A    between atoms: N_10  and  C_11
REMARK    9  A    between atoms: C_23  and  C_24
REMARK                            x       y       z     vdW  Elec       q    Type
REMARK                         _______ _______ _______ _____ _____    ______ ____
ROOT
ATOM      1  C   UNL     1       2.010   6.716  19.894  0.00  0.00    +0.000 A 
ATOM      2  C   UNL     1       1.686   8.093  19.762  0.00  0.00    +0.000 A 
ATOM      3  C   UNL     1       2.181   8.832  18.682  0.00  0.00    +0.000 A 
ATOM      4  C   UNL     1       3.045   8.168  17.757  0.00  0.00    +0.000 A 
ATOM      5  C   UNL     1       3.383   6.804  17.836  0.00  0.00    +0.000 A 
ATOM      6  C   UNL     1       2.843   6.109  18.928  0.00  0.00    +0.000 A 
ENDROOT
BRANCH   5   7
ATOM      7  C   UNL     1       4.250   6.106  16.838  0.00  0.00    +0.000 A 
ATOM      8  C   UNL     1       4.935   6.794  15.818  0.00  0.00    +0.000 A 
ATOM      9  C   UNL     1       5.714   6.111  14.878  0.00  0.00    +0.000 A 
ATOM     10  C   UNL     1       5.857   4.734  14.947  0.00  0.00    +0.000 A 
ATOM     11 CL   UNL     1       6.804   3.893  13.781  0.00  0.00    +0.000 Cl
ATOM     12  C   UNL     1       5.222   4.023  15.957  0.00  0.00    +0.000 A 
ATOM     13  C   UNL     1       4.428   4.706  16.886  0.00  0.00    +0.000 A 
ENDBRANCH   5   7
BRANCH   3  14
ATOM     14  N   UNL     1       2.144  10.253  18.529  0.00  0.00    +0.000 N 
ATOM     15  H   UNL     1       2.760  10.543  19.306  0.00  0.00    +0.000 HD
BRANCH  14  16
ATOM     16  C   UNL     1       1.141  11.372  18.535  0.00  0.00    +0.000 A 
ATOM     17  C   UNL     1       1.878  12.557  18.450  0.00  0.00    +0.000 A 
ATOM     18  C   UNL     1       2.335  13.038  19.664  0.00  0.00    +0.000 A 
ATOM     19  N   UNL     1       1.826  12.616  20.846  0.00  0.00    +0.000 NA
ATOM     20  C   UNL     1       0.646  11.984  20.775  0.00  0.00    +0.000 A 
ATOM     21  C   UNL     1      -0.224  12.088  21.843  0.00  0.00    +0.000 A 
ATOM     22  C   UNL     1      -1.595  11.971  21.633  0.00  0.00    +0.000 A 
ATOM     23 CL   UNL     1      -2.681  12.246  22.938  0.00  0.00    +0.000 Cl
ATOM     24  C   UNL     1      -2.091  11.738  20.354  0.00  0.00    +0.000 A 
ATOM     25  C   UNL     1      -1.199  11.452  19.316  0.00  0.00    +0.000 A 
ATOM     26  C   UNL     1       0.191  11.461  19.554  0.00  0.00    +0.000 A 
ENDBRANCH  14  16
ENDBRANCH   3  14
BRANCH   1  27
ATOM     27  C   UNL     1       1.490   5.843  21.035  0.00  0.00    +0.000 C 
BRANCH  27  28
ATOM     28  N   UNL     1       2.379   4.709  21.345  0.00  0.00    +0.000 NA
ATOM     29  H   UNL     1       3.302   4.886  20.954  0.00  0.00    +0.000 HD
BRANCH  28  31
ATOM     30  C   UNL     1       0.784   3.414  19.892  0.00  0.00    +0.000 C 
ATOM     31  C   UNL     1       1.939   3.366  20.908  0.00  0.00    +0.000 C 
ATOM     32  C   UNL     1       1.553   2.480  22.100  0.00  0.00    +0.000 C 
ATOM     33  C   UNL     1       3.145   2.709  20.198  0.00  0.00    +0.000 C 
ENDBRANCH  28  31
ENDBRANCH  27  28
ENDBRANCH   1  27
TORSDOF 6
ENDMDL
MODEL 2
REMARK VINA RESULT:      -7.6      0.118      1.148
REMARK  Name = 
REMARK  9 active torsions:
REMARK  status: ('A' for Active; 'I' for Inactive)
REMARK    1  A    between atoms: C_1  and  C_2
REMARK    2  A    between atoms: C_2  and  C_3
REMARK    3  A    between atoms: C_2  and  C_4
REMARK    4  A    between atoms: C_2  and  N_5
REMARK    5  A    between atoms: N_5  and  C_6
REMARK    6  A    between atoms: C_6  and  C_7
REMARK    7  A    between atoms: C_9  and  N_10
REMARK    8  A    between atoms: N_10  and  C_11
REMARK    9  A    between atoms: C_23  and  C_24
REMARK                            x       y       z     vdW  Elec       q    Type
REMARK                         _______ _______ _______ _____ _____    ______ ____
ROOT
ATOM      1  C   UNL     1       2.002   6.826  19.903  0.00  0.00    +0.000 A 
ATOM      2  C   UNL     1       1.669   8.197  19.732  0.00  0.00    +0.000 A 
ATOM      3  C   UNL     1       2.151   8.906  18.625  0.00  0.00    +0.000 A 
ATOM      4  C   UNL     1       3.010   8.218  17.713  0.00  0.00    +0.000 A 
ATOM      5  C   UNL     1       3.356   6.859  17.830  0.00  0.00    +0.000 A 
ATOM      6  C   UNL     1       2.829   6.194  18.948  0.00  0.00    +0.000 A 
ENDROOT
BRANCH   5   7
ATOM      7  C   UNL     1       4.218   6.135  16.846  0.00  0.00    +0.000 A 
ATOM      8  C   UNL     1       4.365   4.735  16.854  0.00  0.00    +0.000 A 
ATOM      9  C   UNL     1       5.203   4.088  15.941  0.00  0.00    +0.000 A 
ATOM     10  C   UNL     1       5.891   4.811  14.978  0.00  0.00    +0.000 A 
ATOM     11 CL   UNL     1       6.934   4.015  13.865  0.00  0.00    +0.000 Cl
ATOM     12  C   UNL     1       5.748   6.191  14.918  0.00  0.00    +0.000 A 
ATOM     13  C   UNL     1       4.922   6.840  15.844  0.00  0.00    +0.000 A 
ENDBRANCH   5   7
BRANCH   3  14
ATOM     14  N   UNL     1       2.105  10.321  18.431  0.00  0.00    +0.000 N 
ATOM     15  H   UNL     1       2.801  10.631  19.129  0.00  0.00    +0.000 HD
BRANCH  14  16
ATOM     16  C   UNL     1       1.114  11.448  18.503  0.00  0.00    +0.000 A 
ATOM     17  C   UNL     1       1.863  12.629  18.472  0.00  0.00    +0.000 A 
ATOM     18  C   UNL     1       2.335  13.042  19.705  0.00  0.00    +0.000 A 
ATOM     19  N   UNL     1       1.832  12.565  20.868  0.00  0.00    +0.000 NA
ATOM     20  C   UNL     1       0.645  11.949  20.776  0.00  0.00    +0.000 A 
ATOM     21  C   UNL     1      -0.214  12.006  21.856  0.00  0.00    +0.000 A 
ATOM     22  C   UNL     1      -1.588  11.913  21.654  0.00  0.00    +0.000 A 
ATOM     23 CL   UNL     1      -2.659  12.132  22.982  0.00  0.00    +0.000 Cl
ATOM     24  C   UNL     1      -2.098  11.751  20.369  0.00  0.00    +0.000 A 
ATOM     25  C   UNL     1      -1.218  11.511  19.309  0.00  0.00    +0.000 A 
ATOM     26  C   UNL     1       0.175  11.494  19.535  0.00  0.00    +0.000 A 
ENDBRANCH  14  16
ENDBRANCH   3  14
BRANCH   1  27
ATOM     27  C   UNL     1       1.495   5.986  21.074  0.00  0.00    +0.000 C 
BRANCH  27  28
ATOM     28  N   UNL     1       2.364   4.833  21.374  0.00  0.00    +0.000 NA
ATOM     29  H   UNL     1       3.309   5.028  21.052  0.00  0.00    +0.000 HD
BRANCH  28  31
ATOM     30  C   UNL     1       3.054   2.841  20.000  0.00  0.00    +0.000 C 
ATOM     31  C   UNL     1       1.952   3.518  20.836  0.00  0.00    +0.000 C 
ATOM     32  C   UNL     1       0.659   3.618  20.018  0.00  0.00    +0.000 C 
ATOM     33  C   UNL     1       1.677   2.604  22.052  0.00  0.00    +0.000 C 
ENDBRANCH  28  31
ENDBRANCH  27  28
ENDBRANCH   1  27
TORSDOF 6
ENDMDL
MODEL 3
REMARK VINA RESULT:      -7.5      2.078      9.634
REMARK  Name = 
REMARK  9 active torsions:
REMARK  status: ('A' for Active; 'I' for Inactive)
REMARK    1  A    between atoms: C_1  and  C_2
REMARK    2  A    between atoms: C_2  and  C_3
REMARK    3  A    between atoms: C_2  and  C_4
REMARK    4  A    between atoms: C_2  and  N_5
REMARK    5  A    between atoms: N_5  and  C_6
REMARK    6  A    between atoms: C_6  and  C_7
REMARK    7  A    between atoms: C_9  and  N_10
REMARK    8  A    between atoms: N_10  and  C_11
REMARK    9  A    between atoms: C_23  and  C_24
REMARK                            x       y       z     vdW  Elec       q    Type
REMARK                         _______ _______ _______ _____ _____    ______ ____
ROOT
ATOM      1  C   UNL     1       1.874  11.781  18.387  0.00  0.00    +0.000 A 
ATOM      2  C   UNL     1       2.263  10.437  18.143  0.00  0.00    +0.000 A 
ATOM      3  C   UNL     1       1.687   9.393  18.875  0.00  0.00    +0.000 A 
ATOM      4  C   UNL     1       0.738   9.731  19.889  0.00  0.00    +0.000 A 
ATOM      5  C   UNL     1       0.309  11.044  20.159  0.00  0.00    +0.000 A 
ATOM      6  C   UNL     1       0.906  12.048  19.381  0.00  0.00    +0.000 A 
ENDROOT
BRANCH   5   7
ATOM      7  C   UNL     1      -0.719  11.385  21.190  0.00  0.00    +0.000 A 
ATOM      8  C   UNL     1      -0.688  10.853  22.493  0.00  0.00    +0.000 A 
ATOM      9  C   UNL     1      -1.680  11.165  23.428  0.00  0.00    +0.000 A 
ATOM     10  C   UNL     1      -2.709  12.036  23.101  0.00  0.00    +0.000 A 
ATOM     11 CL   UNL     1      -3.938  12.407  24.248  0.00  0.00    +0.000 Cl
ATOM     12  C   UNL     1      -2.757  12.604  21.836  0.00  0.00    +0.000 A 
ATOM     13  C   UNL     1      -1.773  12.278  20.895  0.00  0.00    +0.000 A 
ENDBRANCH   5   7
BRANCH   3  14
ATOM     14  N   UNL     1       2.127   8.033  18.917  0.00  0.00    +0.000 N 
ATOM     15  H   UNL     1       2.976   8.127  19.498  0.00  0.00    +0.000 HD
BRANCH  14  16
ATOM     16  C   UNL     1       2.552   6.946  17.971  0.00  0.00    +0.000 A 
ATOM     17  C   UNL     1       1.691   5.868  18.204  0.00  0.00    +0.000 A 
ATOM     18  C   UNL     1       2.077   5.038  19.242  0.00  0.00    +0.000 A 
ATOM     19  N   UNL     1       3.333   5.049  19.746  0.00  0.00    +0.000 NA
ATOM     20  C   UNL     1       4.260   5.640  18.979  0.00  0.00    +0.000 A 
ATOM     21  C   UNL     1       5.561   5.180  19.042  0.00  0.00    +0.000 A 
ATOM     22  C   UNL     1       6.400   5.322  17.940  0.00  0.00    +0.000 A 
ATOM     23 CL   UNL     1       7.969   4.618  17.971  0.00  0.00    +0.000 Cl
ATOM     24  C   UNL     1       5.936   5.937  16.781  0.00  0.00    +0.000 A 
ATOM     25  C   UNL     1       4.685   6.561  16.791  0.00  0.00    +0.000 A 
ATOM     26  C   UNL     1       3.879   6.512  17.948  0.00  0.00    +0.000 A 
ENDBRANCH  14  16
ENDBRANCH   3  14
BRANCH   1  27
ATOM     27  C   UNL     1       2.445  12.968  17.613  0.00  0.00    +0.000 C 
BRANCH  27  28
ATOM     28  N   UNL     1       3.871  13.208  17.895  0.00  0.00    +0.000 NA
ATOM     29  H   UNL     1       4.174  12.599  18.653  0.00  0.00    +0.000 HD
BRANCH  28  31
ATOM     30  C   UNL     1       4.187  14.900  19.730  0.00  0.00    +0.000 C 
ATOM     31  C   UNL     1       4.273  14.592  18.224  0.00  0.00    +0.000 C 
ATOM     32  C   UNL     1       3.460  15.623  17.431  0.00  0.00    +0.000 C 
ATOM     33  C   UNL     1       5.756  14.738  17.813  0.00  0.00    +0.000 C 
ENDBRANCH  28  31
ENDBRANCH  27  28
ENDBRANCH   1  27
TORSDOF 6
ENDMDL
MODEL 4
REMARK VINA RESULT:      -7.5      2.932      9.129
REMARK  Name = 
REMARK  9 active torsions:
REMARK  status: ('A' for Active; 'I' for Inactive)
REMARK    1  A    between atoms: C_1  and  C_2
REMARK    2  A    between atoms: C_2  and  C_3
REMARK    3  A    between atoms: C_2  and  C_4
REMARK    4  A    between atoms: C_2  and  N_5
REMARK    5  A    between atoms: N_5  and  C_6
REMARK    6  A    between atoms: C_6  and  C_7
REMARK    7  A    between atoms: C_9  and  N_10
REMARK    8  A    between atoms: N_10  and  C_11
REMARK    9  A    between atoms: C_23  and  C_24
REMARK                            x       y       z     vdW  Elec       q    Type
REMARK                         _______ _______ _______ _____ _____    ______ ____
ROOT
ATOM      1  C   UNL     1       1.491  12.001  18.556  0.00  0.00    +0.000 A 
ATOM      2  C   UNL     1       2.202  10.799  18.292  0.00  0.00    +0.000 A 
ATOM      3  C   UNL     1       1.508   9.617  18.012  0.00  0.00    +0.000 A 
ATOM      4  C   UNL     1       0.079   9.657  18.041  0.00  0.00    +0.000 A 
ATOM      5  C   UNL     1      -0.670  10.824  18.282  0.00  0.00    +0.000 A 
ATOM      6  C   UNL     1       0.079  11.982  18.539  0.00  0.00    +0.000 A 
ENDROOT
BRANCH   5   7
ATOM      7  C   UNL     1      -2.165  10.867  18.266  0.00  0.00    +0.000 A 
ATOM      8  C   UNL     1      -2.943   9.886  17.622  0.00  0.00    +0.000 A 
ATOM      9  C   UNL     1      -4.339   9.969  17.596  0.00  0.00    +0.000 A 
ATOM     10  C   UNL     1      -4.996  11.010  18.235  0.00  0.00    +0.000 A 
ATOM     11 CL   UNL     1      -6.713  11.119  18.189  0.00  0.00    +0.000 Cl
ATOM     12  C   UNL     1      -4.265  11.980  18.906  0.00  0.00    +0.000 A 
ATOM     13  C   UNL     1      -2.867  11.906  18.917  0.00  0.00    +0.000 A 
ENDBRANCH   5   7
BRANCH   3  14
ATOM     14  N   UNL     1       2.054   8.297  17.957  0.00  0.00    +0.000 N 
ATOM     15  H   UNL     1       1.217   7.758  17.682  0.00  0.00    +0.000 HD
BRANCH  14  16
ATOM     16  C   UNL     1       2.740   7.312  18.859  0.00  0.00    +0.000 A 
ATOM     17  C   UNL     1       4.059   7.218  18.403  0.00  0.00    +0.000 A 
ATOM     18  C   UNL     1       4.248   6.316  17.371  0.00  0.00    +0.000 A 
ATOM     19  N   UNL     1       3.337   5.361  17.071  0.00  0.00    +0.000 NA
ATOM     20  C   UNL     1       2.424   5.112  18.021  0.00  0.00    +0.000 A 
ATOM     21  C   UNL     1       1.907   3.836  18.122  0.00  0.00    +0.000 A 
ATOM     22  C   UNL     1       1.439   3.373  19.349  0.00  0.00    +0.000 A 
ATOM     23 CL   UNL     1       0.933   1.736  19.502  0.00  0.00    +0.000 Cl
ATOM     24  C   UNL     1       1.481   4.196  20.470  0.00  0.00    +0.000 A 
ATOM     25  C   UNL     1       1.833   5.541  20.320  0.00  0.00    +0.000 A 
ATOM     26  C   UNL     1       2.200   6.039  19.052  0.00  0.00    +0.000 A 
ENDBRANCH  14  16
ENDBRANCH   3  14
BRANCH   1  27
ATOM     27  C   UNL     1       2.182  13.331  18.849  0.00  0.00    +0.000 C 
BRANCH  27  28
ATOM     28  N   UNL     1       3.427  13.515  18.082  0.00  0.00    +0.000 NA
ATOM     29  H   UNL     1       4.070  12.753  18.291  0.00  0.00    +0.000 HD
BRANCH  28  31
ATOM     30  C   UNL     1       3.467  15.973  17.544  0.00  0.00    +0.000 C 
ATOM     31  C   UNL     1       4.149  14.793  18.261  0.00  0.00    +0.000 C 
ATOM     32  C   UNL     1       5.614  14.685  17.817  0.00  0.00    +0.000 C 
ATOM     33  C   UNL     1       4.134  15.109  19.774  0.00  0.00    +0.000 C 
ENDBRANCH  28  31
ENDBRANCH  27  28
ENDBRANCH   1  27
TORSDOF 6
ENDMDL
MODEL 5
REMARK VINA RESULT:      -7.4      2.919      9.157
REMARK  Name = 
REMARK  9 active torsions:
REMARK  status: ('A' for Active; 'I' for Inactive)
REMARK    1  A    between atoms: C_1  and  C_2
REMARK    2  A    between atoms: C_2  and  C_3
REMARK    3  A    between atoms: C_2  and  C_4
REMARK    4  A    between atoms: C_2  and  N_5
REMARK    5  A    between atoms: N_5  and  C_6
REMARK    6  A    between atoms: C_6  and  C_7
REMARK    7  A    between atoms: C_9  and  N_10
REMARK    8  A    between atoms: N_10  and  C_11
REMARK    9  A    between atoms: C_23  and  C_24
REMARK                            x       y       z     vdW  Elec       q    Type
REMARK                         _______ _______ _______ _____ _____    ______ ____
ROOT
ATOM      1  C   UNL     1       1.568  11.948  18.671  0.00  0.00    +0.000 A 
ATOM      2  C   UNL     1       2.234  10.723  18.400  0.00  0.00    +0.000 A 
ATOM      3  C   UNL     1       1.497   9.575  18.089  0.00  0.00    +0.000 A 
ATOM      4  C   UNL     1       0.071   9.673  18.096  0.00  0.00    +0.000 A 
ATOM      5  C   UNL     1      -0.635  10.865  18.344  0.00  0.00    +0.000 A 
ATOM      6  C   UNL     1       0.156  11.988  18.631  0.00  0.00    +0.000 A 
ENDROOT
BRANCH   5   7
ATOM      7  C   UNL     1      -2.125  10.969  18.304  0.00  0.00    +0.000 A 
ATOM      8  C   UNL     1      -2.838  11.923  19.055  0.00  0.00    +0.000 A 
ATOM      9  C   UNL     1      -4.235  11.977  19.023  0.00  0.00    +0.000 A 
ATOM     10  C   UNL     1      -4.957  11.106  18.220  0.00  0.00    +0.000 A 
ATOM     11 CL   UNL     1      -6.676  11.164  18.192  0.00  0.00    +0.000 Cl
ATOM     12  C   UNL     1      -4.288  10.172  17.441  0.00  0.00    +0.000 A 
ATOM     13  C   UNL     1      -2.891  10.107  17.488  0.00  0.00    +0.000 A 
ENDBRANCH   5   7
BRANCH   3  14
ATOM     14  N   UNL     1       1.990   8.234  18.021  0.00  0.00    +0.000 N 
ATOM     15  H   UNL     1       1.122   7.726  17.786  0.00  0.00    +0.000 HD
BRANCH  14  16
ATOM     16  C   UNL     1       2.676   7.230  18.902  0.00  0.00    +0.000 A 
ATOM     17  C   UNL     1       4.005   7.176  18.470  0.00  0.00    +0.000 A 
ATOM     18  C   UNL     1       4.230   6.315  17.411  0.00  0.00    +0.000 A 
ATOM     19  N   UNL     1       3.343   5.355  17.058  0.00  0.00    +0.000 NA
ATOM     20  C   UNL     1       2.417   5.057  17.980  0.00  0.00    +0.000 A 
ATOM     21  C   UNL     1       1.921   3.768  18.025  0.00  0.00    +0.000 A 
ATOM     22  C   UNL     1       1.438   3.254  19.225  0.00  0.00    +0.000 A 
ATOM     23 CL   UNL     1       0.958   1.604  19.310  0.00  0.00    +0.000 Cl
ATOM     24  C   UNL     1       1.442   4.037  20.376  0.00  0.00    +0.000 A 
ATOM     25  C   UNL     1       1.773   5.392  20.280  0.00  0.00    +0.000 A 
ATOM     26  C   UNL     1       2.156   5.941  19.038  0.00  0.00    +0.000 A 
ENDBRANCH  14  16
ENDBRANCH   3  14
BRANCH   1  27
ATOM     27  C   UNL     1       2.307  13.245  18.997  0.00  0.00    +0.000 C 
BRANCH  27  28
ATOM     28  N   UNL     1       3.360  13.570  18.018  0.00  0.00    +0.000 NA
ATOM     29  H   UNL     1       4.075  12.846  18.037  0.00  0.00    +0.000 HD
BRANCH  28  31
ATOM     30  C   UNL     1       3.962  15.446  19.583  0.00  0.00    +0.000 C 
ATOM     31  C   UNL     1       4.026  14.884  18.151  0.00  0.00    +0.000 C 
ATOM     32  C   UNL     1       3.462  15.909  17.159  0.00  0.00    +0.000 C 
ATOM     33  C   UNL     1       5.518  14.665  17.813  0.00  0.00    +0.000 C 
ENDBRANCH  28  31
ENDBRANCH  27  28
ENDBRANCH   1  27
TORSDOF 6
ENDMDL
MODEL 6
REMARK VINA RESULT:      -7.4      1.967      9.610
REMARK  Name = 
REMARK  9 active torsions:
REMARK  status: ('A' for Active; 'I' for Inactive)
REMARK    1  A    between atoms: C_1  and  C_2
REMARK    2  A    between atoms: C_2  and  C_3
REMARK    3  A    between atoms: C_2  and  C_4
REMARK    4  A    between atoms: C_2  and  N_5
REMARK    5  A    between atoms: N_5  and  C_6
REMARK    6  A    between atoms: C_6  and  C_7
REMARK    7  A    between atoms: C_9  and  N_10
REMARK    8  A    between atoms: N_10  and  C_11
REMARK    9  A    between atoms: C_23  and  C_24
REMARK                            x       y       z     vdW  Elec       q    Type
REMARK                         _______ _______ _______ _____ _____    ______ ____
ROOT
ATOM      1  C   UNL     1       1.991  11.671  18.395  0.00  0.00    +0.000 A 
ATOM      2  C   UNL     1       2.341  10.314  18.162  0.00  0.00    +0.000 A 
ATOM      3  C   UNL     1       1.699   9.290  18.868  0.00  0.00    +0.000 A 
ATOM      4  C   UNL     1       0.724   9.661  19.845  0.00  0.00    +0.000 A 
ATOM      5  C   UNL     1       0.332  10.988  20.101  0.00  0.00    +0.000 A 
ATOM      6  C   UNL     1       0.995  11.971  19.351  0.00  0.00    +0.000 A 
ENDROOT
BRANCH   5   7
ATOM      7  C   UNL     1      -0.722  11.364  21.092  0.00  0.00    +0.000 A 
ATOM      8  C   UNL     1      -1.785  12.232  20.775  0.00  0.00    +0.000 A 
ATOM      9  C   UNL     1      -2.739  12.591  21.732  0.00  0.00    +0.000 A 
ATOM     10  C   UNL     1      -2.680  12.074  23.017  0.00  0.00    +0.000 A 
ATOM     11 CL   UNL     1      -3.846  12.529  24.198  0.00  0.00    +0.000 Cl
ATOM     12  C   UNL     1      -1.664  11.191  23.360  0.00  0.00    +0.000 A 
ATOM     13  C   UNL     1      -0.699  10.846  22.406  0.00  0.00    +0.000 A 
ENDBRANCH   5   7
BRANCH   3  14
ATOM     14  N   UNL     1       2.088   7.916  18.923  0.00  0.00    +0.000 N 
ATOM     15  H   UNL     1       2.906   7.976  19.552  0.00  0.00    +0.000 HD
BRANCH  14  16
ATOM     16  C   UNL     1       2.527   6.820  17.994  0.00  0.00    +0.000 A 
ATOM     17  C   UNL     1       1.691   5.729  18.256  0.00  0.00    +0.000 A 
ATOM     18  C   UNL     1       2.104   4.927  19.305  0.00  0.00    +0.000 A 
ATOM     19  N   UNL     1       3.364   4.973  19.797  0.00  0.00    +0.000 NA
ATOM     20  C   UNL     1       4.271   5.569  19.010  0.00  0.00    +0.000 A 
ATOM     21  C   UNL     1       5.582   5.136  19.069  0.00  0.00    +0.000 A 
ATOM     22  C   UNL     1       6.408   5.276  17.957  0.00  0.00    +0.000 A 
ATOM     23 CL   UNL     1       7.992   4.605  17.985  0.00  0.00    +0.000 Cl
ATOM     24  C   UNL     1       5.921   5.859  16.791  0.00  0.00    +0.000 A 
ATOM     25  C   UNL     1       4.657   6.457  16.801  0.00  0.00    +0.000 A 
ATOM     26  C   UNL     1       3.862   6.413  17.966  0.00  0.00    +0.000 A 
ENDBRANCH  14  16
ENDBRANCH   3  14
BRANCH   1  27
ATOM     27  C   UNL     1       2.634  12.838  17.647  0.00  0.00    +0.000 C 
BRANCH  27  28
ATOM     28  N   UNL     1       2.335  14.147  18.254  0.00  0.00    +0.000 NA
ATOM     29  H   UNL     1       1.862  14.737  17.572  0.00  0.00    +0.000 HD
BRANCH  28  31
ATOM     30  C   UNL     1       4.776  14.710  18.026  0.00  0.00    +0.000 C 
ATOM     31  C   UNL     1       3.471  14.908  18.817  0.00  0.00    +0.000 C 
ATOM     32  C   UNL     1       3.699  14.575  20.298  0.00  0.00    +0.000 C 
ATOM     33  C   UNL     1       3.100  16.405  18.718  0.00  0.00    +0.000 C 
ENDBRANCH  28  31
ENDBRANCH  27  28
ENDBRANCH   1  27
TORSDOF 6
ENDMDL
MODEL 7
REMARK VINA RESULT:      -7.3      3.243      5.930
REMARK  Name = 
REMARK  9 active torsions:
REMARK  status: ('A' for Active; 'I' for Inactive)
REMARK    1  A    between atoms: C_1  and  C_2
REMARK    2  A    between atoms: C_2  and  C_3
REMARK    3  A    between atoms: C_2  and  C_4
REMARK    4  A    between atoms: C_2  and  N_5
REMARK    5  A    between atoms: N_5  and  C_6
REMARK    6  A    between atoms: C_6  and  C_7
REMARK    7  A    between atoms: C_9  and  N_10
REMARK    8  A    between atoms: N_10  and  C_11
REMARK    9  A    between atoms: C_23  and  C_24
REMARK                            x       y       z     vdW  Elec       q    Type
REMARK                         _______ _______ _______ _____ _____    ______ ____
ROOT
ATOM      1  C   UNL     1      -0.433  11.389  18.685  0.00  0.00    +0.000 A 
ATOM      2  C   UNL     1       0.380  12.501  18.338  0.00  0.00    +0.000 A 
ATOM      3  C   UNL     1       1.748  12.328  18.103  0.00  0.00    +0.000 A 
ATOM      4  C   UNL     1       2.293  11.016  18.264  0.00  0.00    +0.000 A 
ATOM      5  C   UNL     1       1.528   9.880  18.591  0.00  0.00    +0.000 A 
ATOM      6  C   UNL     1       0.159  10.112  18.796  0.00  0.00    +0.000 A 
ENDROOT
BRANCH   5   7
ATOM      7  C   UNL     1       2.098   8.504  18.712  0.00  0.00    +0.000 A 
ATOM      8  C   UNL     1       2.923   7.936  17.722  0.00  0.00    +0.000 A 
ATOM      9  C   UNL     1       3.416   6.634  17.847  0.00  0.00    +0.000 A 
ATOM     10  C   UNL     1       3.128   5.875  18.972  0.00  0.00    +0.000 A 
ATOM     11 CL   UNL     1       3.724   4.267  19.118  0.00  0.00    +0.000 Cl
ATOM     12  C   UNL     1       2.343   6.411  19.984  0.00  0.00    +0.000 A 
ATOM     13  C   UNL     1       1.835   7.708  19.849  0.00  0.00    +0.000 A 
ENDBRANCH   5   7
BRANCH   3  14
ATOM     14  N   UNL     1       2.732  13.357  17.977  0.00  0.00    +0.000 N 
ATOM     15  H   UNL     1       3.533  12.912  18.454  0.00  0.00    +0.000 HD
BRANCH  14  16
ATOM     16  C   UNL     1       2.932  14.793  18.371  0.00  0.00    +0.000 A 
ATOM     17  C   UNL     1       4.082  14.822  19.167  0.00  0.00    +0.000 A 
ATOM     18  C   UNL     1       3.863  14.546  20.504  0.00  0.00    +0.000 A 
ATOM     19  N   UNL     1       2.629  14.597  21.060  0.00  0.00    +0.000 NA
ATOM     20  C   UNL     1       1.701  15.253  20.349  0.00  0.00    +0.000 A 
ATOM     21  C   UNL     1       0.687  15.901  21.026  0.00  0.00    +0.000 A 
ATOM     22  C   UNL     1       0.069  17.009  20.453  0.00  0.00    +0.000 A 
ATOM     23 CL   UNL     1      -1.090  17.900  21.360  0.00  0.00    +0.000 Cl
ATOM     24  C   UNL     1       0.463  17.460  19.196  0.00  0.00    +0.000 A 
ATOM     25  C   UNL     1       1.358  16.692  18.444  0.00  0.00    +0.000 A 
ATOM     26  C   UNL     1       1.899  15.505  18.982  0.00  0.00    +0.000 A 
ENDBRANCH  14  16
ENDBRANCH   3  14
BRANCH   1  27
ATOM     27  C   UNL     1      -1.936  11.501  18.935  0.00  0.00    +0.000 C 
BRANCH  27  28
ATOM     28  N   UNL     1      -2.668  12.085  17.796  0.00  0.00    +0.000 NA
ATOM     29  H   UNL     1      -3.273  12.832  18.130  0.00  0.00    +0.000 HD
BRANCH  28  31
ATOM     30  C   UNL     1      -2.885  10.937  15.568  0.00  0.00    +0.000 C 
ATOM     31  C   UNL     1      -3.479  11.165  16.970  0.00  0.00    +0.000 C 
ATOM     32  C   UNL     1      -4.934  11.638  16.854  0.00  0.00    +0.000 C 
ATOM     33  C   UNL     1      -3.480   9.798  17.692  0.00  0.00    +0.000 C 
ENDBRANCH  28  31
ENDBRANCH  27  28
ENDBRANCH   1  27
TORSDOF 6
ENDMDL
MODEL 8
REMARK VINA RESULT:      -7.3      3.518      6.455
REMARK  Name = 
REMARK  9 active torsions:
REMARK  status: ('A' for Active; 'I' for Inactive)
REMARK    1  A    between atoms: C_1  and  C_2
REMARK    2  A    between atoms: C_2  and  C_3
REMARK    3  A    between atoms: C_2  and  C_4
REMARK    4  A    between atoms: C_2  and  N_5
REMARK    5  A    between atoms: N_5  and  C_6
REMARK    6  A    between atoms: C_6  and  C_7
REMARK    7  A    between atoms: C_9  and  N_10
REMARK    8  A    between atoms: N_10  and  C_11
REMARK    9  A    between atoms: C_23  and  C_24
REMARK                            x       y       z     vdW  Elec       q    Type
REMARK                         _______ _______ _______ _____ _____    ______ ____
ROOT
ATOM      1  C   UNL     1      -1.881  11.169  17.818  0.00  0.00    +0.000 A 
ATOM      2  C   UNL     1      -1.446  12.496  18.083  0.00  0.00    +0.000 A 
ATOM      3  C   UNL     1      -0.155  12.730  18.570  0.00  0.00    +0.000 A 
ATOM      4  C   UNL     1       0.679  11.598  18.824  0.00  0.00    +0.000 A 
ATOM      5  C   UNL     1       0.301  10.267  18.564  0.00  0.00    +0.000 A 
ATOM      6  C   UNL     1      -0.997  10.095  18.059  0.00  0.00    +0.000 A 
ENDROOT
BRANCH   5   7
ATOM      7  C   UNL     1       1.197   9.092  18.790  0.00  0.00    +0.000 A 
ATOM      8  C   UNL     1       2.018   8.560  17.777  0.00  0.00    +0.000 A 
ATOM      9  C   UNL     1       2.822   7.440  18.008  0.00  0.00    +0.000 A 
ATOM     10  C   UNL     1       2.856   6.840  19.258  0.00  0.00    +0.000 A 
ATOM     11 CL   UNL     1       3.835   5.453  19.536  0.00  0.00    +0.000 Cl
ATOM     12  C   UNL     1       2.084   7.355  20.291  0.00  0.00    +0.000 A 
ATOM     13  C   UNL     1       1.266   8.465  20.054  0.00  0.00    +0.000 A 
ENDBRANCH   5   7
BRANCH   3  14
ATOM     14  N   UNL     1       0.349  13.958  19.101  0.00  0.00    +0.000 N 
ATOM     15  H   UNL     1       1.153  13.611  19.648  0.00  0.00    +0.000 HD
BRANCH  14  16
ATOM     16  C   UNL     1      -0.111  15.097  19.966  0.00  0.00    +0.000 A 
ATOM     17  C   UNL     1       1.047  15.762  20.383  0.00  0.00    +0.000 A 
ATOM     18  C   UNL     1       1.644  15.223  21.509  0.00  0.00    +0.000 A 
ATOM     19  N   UNL     1       0.993  14.371  22.335  0.00  0.00    +0.000 NA
ATOM     20  C   UNL     1      -0.341  14.348  22.208  0.00  0.00    +0.000 A 
ATOM     21  C   UNL     1      -1.107  14.065  23.322  0.00  0.00    +0.000 A 
ATOM     22  C   UNL     1      -2.404  14.562  23.416  0.00  0.00    +0.000 A 
ATOM     23 CL   UNL     1      -3.300  14.331  24.866  0.00  0.00    +0.000 Cl
ATOM     24  C   UNL     1      -2.936  15.332  22.386  0.00  0.00    +0.000 A 
ATOM     25  C   UNL     1      -2.224  15.458  21.189  0.00  0.00    +0.000 A 
ATOM     26  C   UNL     1      -0.954  14.859  21.053  0.00  0.00    +0.000 A 
ENDBRANCH  14  16
ENDBRANCH   3  14
BRANCH   1  27
ATOM     27  C   UNL     1      -3.267  10.841  17.267  0.00  0.00    +0.000 C 
BRANCH  27  28
ATOM     28  N   UNL     1      -4.155  12.015  17.203  0.00  0.00    +0.000 NA
ATOM     29  H   UNL     1      -3.625  12.854  17.432  0.00  0.00    +0.000 HD
BRANCH  28  31
ATOM     30  C   UNL     1      -5.849  10.563  18.366  0.00  0.00    +0.000 C 
ATOM     31  C   UNL     1      -5.370  11.991  18.046  0.00  0.00    +0.000 C 
ATOM     32  C   UNL     1      -6.513  12.799  17.418  0.00  0.00    +0.000 C 
ATOM     33  C   UNL     1      -4.997  12.658  19.389  0.00  0.00    +0.000 C 
ENDBRANCH  28  31
ENDBRANCH  27  28
ENDBRANCH   1  27
TORSDOF 6
ENDMDL
MODEL 9
REMARK VINA RESULT:      -7.2      3.669      7.133
REMARK  Name = 
REMARK  9 active torsions:
REMARK  status: ('A' for Active; 'I' for Inactive)
REMARK    1  A    between atoms: C_1  and  C_2
REMARK    2  A    between atoms: C_2  and  C_3
REMARK    3  A    between atoms: C_2  and  C_4
REMARK    4  A    between atoms: C_2  and  N_5
REMARK    5  A    between atoms: N_5  and  C_6
REMARK    6  A    between atoms: C_6  and  C_7
REMARK    7  A    between atoms: C_9  and  N_10
REMARK    8  A    between atoms: N_10  and  C_11
REMARK    9  A    between atoms: C_23  and  C_24
REMARK                            x       y       z     vdW  Elec       q    Type
REMARK                         _______ _______ _______ _____ _____    ______ ____
ROOT
ATOM      1  C   UNL     1      -2.086  11.582  18.617  0.00  0.00    +0.000 A 
ATOM      2  C   UNL     1      -1.911  12.570  19.622  0.00  0.00    +0.000 A 
ATOM      3  C   UNL     1      -0.809  12.512  20.482  0.00  0.00    +0.000 A 
ATOM      4  C   UNL     1       0.095  11.413  20.338  0.00  0.00    +0.000 A 
ATOM      5  C   UNL     1      -0.027  10.419  19.349  0.00  0.00    +0.000 A 
ATOM      6  C   UNL     1      -1.141  10.539  18.504  0.00  0.00    +0.000 A 
ENDROOT
BRANCH   5   7
ATOM      7  C   UNL     1       0.948   9.299  19.176  0.00  0.00    +0.000 A 
ATOM      8  C   UNL     1       1.237   8.381  20.203  0.00  0.00    +0.000 A 
ATOM      9  C   UNL     1       2.178   7.362  20.023  0.00  0.00    +0.000 A 
ATOM     10  C   UNL     1       2.830   7.210  18.809  0.00  0.00    +0.000 A 
ATOM     11 CL   UNL     1       3.998   5.965  18.593  0.00  0.00    +0.000 Cl
ATOM     12  C   UNL     1       2.549   8.077  17.761  0.00  0.00    +0.000 A 
ATOM     13  C   UNL     1       1.621   9.108  17.948  0.00  0.00    +0.000 A 
ENDBRANCH   5   7
BRANCH   3  14
ATOM     14  N   UNL     1      -0.612  13.277  21.674  0.00  0.00    +0.000 N 
ATOM     15  H   UNL     1       0.410  13.179  21.794  0.00  0.00    +0.000 HD
BRANCH  14  16
ATOM     16  C   UNL     1      -1.065  13.287  23.106  0.00  0.00    +0.000 A 
ATOM     17  C   UNL     1      -1.798  12.110  23.291  0.00  0.00    +0.000 A 
ATOM     18  C   UNL     1      -3.130  12.201  22.930  0.00  0.00    +0.000 A 
ATOM     19  N   UNL     1      -3.753  13.391  22.756  0.00  0.00    +0.000 NA
ATOM     20  C   UNL     1      -3.126  14.454  23.279  0.00  0.00    +0.000 A 
ATOM     21  C   UNL     1      -3.888  15.516  23.724  0.00  0.00    +0.000 A 
ATOM     22  C   UNL     1      -3.404  16.338  24.739  0.00  0.00    +0.000 A 
ATOM     23 CL   UNL     1      -4.415  17.568  25.391  0.00  0.00    +0.000 Cl
ATOM     24  C   UNL     1      -2.152  16.099  25.297  0.00  0.00    +0.000 A 
ATOM     25  C   UNL     1      -1.316  15.140  24.718  0.00  0.00    +0.000 A 
ATOM     26  C   UNL     1      -1.765  14.382  23.615  0.00  0.00    +0.000 A 
ENDBRANCH  14  16
ENDBRANCH   3  14
BRANCH   1  27
ATOM     27  C   UNL     1      -3.253  11.595  17.630  0.00  0.00    +0.000 C 
BRANCH  27  28
ATOM     28  N   UNL     1      -4.413  10.816  18.100  0.00  0.00    +0.000 NA
ATOM     29  H   UNL     1      -4.603  10.062  17.444  0.00  0.00    +0.000 HD
BRANCH  28  31
ATOM     30  C   UNL     1      -6.877  10.625  18.575  0.00  0.00    +0.000 C 
ATOM     31  C   UNL     1      -5.673  11.554  18.335  0.00  0.00    +0.000 C 
ATOM     32  C   UNL     1      -5.982  12.529  17.192  0.00  0.00    +0.000 C 
ATOM     33  C   UNL     1      -5.473  12.382  19.625  0.00  0.00    +0.000 C 
ENDBRANCH  28  31
ENDBRANCH  27  28
ENDBRANCH   1  27
TORSDOF 6
ENDMDL
