MODEL 1
REMARK VINA RESULT:      -7.0      0.000      0.000
REMARK  Name = 
REMARK  15 active torsions:
REMARK  status: ('A' for Active; 'I' for Inactive)
REMARK    1  A    between atoms: C_1  and  C_2
REMARK    2  A    between atoms: C_2  and  N_3
REMARK    3  A    between atoms: N_3  and  C_4
REMARK    4  A    between atoms: N_3  and  C_6
REMARK    5  A    between atoms: C_4  and  C_5
REMARK    6  A    between atoms: C_9  and  C_10
REMARK    7  A    between atoms: C_11  and  C_12
REMARK    8  A    between atoms: C_11  and  C_13
REMARK    9  A    between atoms: C_13  and  C_15
REMARK   10  A    between atoms: C_18  and  O_19
REMARK   11  A    between atoms: O_19  and  C_20
REMARK   12  A    between atoms: C_21  and  O_22
REMARK   13  A    between atoms: O_22  and  C_23
REMARK   14  A    between atoms: C_24  and  O_25
REMARK   15  A    between atoms: O_25  and  C_26
REMARK                            x       y       z     vdW  Elec       q    Type
REMARK                         _______ _______ _______ _____ _____    ______ ____
ROOT
ATOM      1  C   UNL     1       2.864   6.499  19.656  0.00  0.00    +0.000 C 
ATOM      2  C   UNL     1       2.558   5.199  19.861  0.00  0.00    +0.000 C 
ATOM      3  C   UNL     1       1.292   4.726  20.525  0.00  0.00    +0.000 C 
ENDROOT
BRANCH   1   7
ATOM      4  C   UNL     1       0.277   9.890  20.300  0.00  0.00    +0.000 A 
ATOM      5  C   UNL     1       0.849   9.622  19.043  0.00  0.00    +0.000 A 
ATOM      6  C   UNL     1       1.692   8.521  18.845  0.00  0.00    +0.000 A 
ATOM      7  C   UNL     1       1.990   7.656  19.896  0.00  0.00    +0.000 A 
ATOM      8  C   UNL     1       1.364   7.873  21.129  0.00  0.00    +0.000 A 
ATOM      9  C   UNL     1       0.542   8.983  21.332  0.00  0.00    +0.000 A 
BRANCH   4  10
ATOM     10  N   UNL     1      -0.522  11.017  20.561  0.00  0.00    +0.000 N 
BRANCH  10  12
ATOM     11  C   UNL     1      -0.792  12.623  22.446  0.00  0.00    +0.000 C 
ATOM     12  C   UNL     1      -0.957  11.193  21.956  0.00  0.00    +0.000 C 
ENDBRANCH  10  12
BRANCH  10  13
ATOM     13  C   UNL     1      -1.475  11.329  19.478  0.00  0.00    +0.000 C 
ATOM     14  C   UNL     1      -1.172  12.648  18.775  0.00  0.00    +0.000 C 
ENDBRANCH  10  13
ENDBRANCH   4  10
ENDBRANCH   1   7
BRANCH   2  15
ATOM     15  C   UNL     1       3.627   4.219  19.413  0.00  0.00    +0.000 C 
ATOM     16  O   UNL     1       3.801   3.168  20.025  0.00  0.00    +0.000 OA
BRANCH  15  17
ATOM     17  C   UNL     1       4.531   4.568  18.274  0.00  0.00    +0.000 A 
ATOM     18  C   UNL     1       4.023   4.292  16.996  0.00  0.00    +0.000 A 
ATOM     19  C   UNL     1       4.749   4.586  15.853  0.00  0.00    +0.000 A 
ATOM     20  C   UNL     1       5.973   5.242  15.939  0.00  0.00    +0.000 A 
ATOM     21  C   UNL     1       6.488   5.606  17.204  0.00  0.00    +0.000 A 
ATOM     22  C   UNL     1       5.767   5.256  18.391  0.00  0.00    +0.000 A 
BRANCH  20  23
ATOM     23  O   UNL     1       6.499   5.446  14.688  0.00  0.00    +0.000 OA
ATOM     24  C   UNL     1       6.721   4.344  13.826  0.00  0.00    +0.000 C 
ENDBRANCH  20  23
BRANCH  21  25
ATOM     25  O   UNL     1       7.688   6.272  17.153  0.00  0.00    +0.000 OA
ATOM     26  C   UNL     1       7.777   7.680  17.275  0.00  0.00    +0.000 C 
ENDBRANCH  21  25
BRANCH  22  27
ATOM     27  O   UNL     1       6.286   5.739  19.563  0.00  0.00    +0.000 OA
ATOM     28  C   UNL     1       7.576   5.348  20.010  0.00  0.00    +0.000 C 
ENDBRANCH  22  27
ENDBRANCH  15  17
ENDBRANCH   2  15
TORSDOF 9
ENDMDL
MODEL 2
REMARK VINA RESULT:      -7.0      5.387     10.507
REMARK  Name = 
REMARK  15 active torsions:
REMARK  status: ('A' for Active; 'I' for Inactive)
REMARK    1  A    between atoms: C_1  and  C_2
REMARK    2  A    between atoms: C_2  and  N_3
REMARK    3  A    between atoms: N_3  and  C_4
REMARK    4  A    between atoms: N_3  and  C_6
REMARK    5  A    between atoms: C_4  and  C_5
REMARK    6  A    between atoms: C_9  and  C_10
REMARK    7  A    between atoms: C_11  and  C_12
REMARK    8  A    between atoms: C_11  and  C_13
REMARK    9  A    between atoms: C_13  and  C_15
REMARK   10  A    between atoms: C_18  and  O_19
REMARK   11  A    between atoms: O_19  and  C_20
REMARK   12  A    between atoms: C_21  and  O_22
REMARK   13  A    between atoms: O_22  and  C_23
REMARK   14  A    between atoms: C_24  and  O_25
REMARK   15  A    between atoms: O_25  and  C_26
REMARK                            x       y       z     vdW  Elec       q    Type
REMARK                         _______ _______ _______ _____ _____    ______ ____
ROOT
ATOM      1  C   UNL     1       0.422  10.543  19.147  0.00  0.00    +0.000 C 
ATOM      2  C   UNL     1      -0.748  10.817  18.531  0.00  0.00    +0.000 C 
ATOM      3  C   UNL     1      -1.413   9.902  17.537  0.00  0.00    +0.000 C 
ENDROOT
BRANCH   1   7
ATOM      4  C   UNL     1       2.665   6.865  18.921  0.00  0.00    +0.000 A 
ATOM      5  C   UNL     1       2.595   7.757  17.837  0.00  0.00    +0.000 A 
ATOM      6  C   UNL     1       1.860   8.947  17.918  0.00  0.00    +0.000 A 
ATOM      7  C   UNL     1       1.173   9.280  19.084  0.00  0.00    +0.000 A 
ATOM      8  C   UNL     1       1.301   8.433  20.191  0.00  0.00    +0.000 A 
ATOM      9  C   UNL     1       2.014   7.237  20.103  0.00  0.00    +0.000 A 
BRANCH   4  10
ATOM     10  N   UNL     1       3.337   5.631  18.864  0.00  0.00    +0.000 N 
BRANCH  10  12
ATOM     11  C   UNL     1       5.516   4.424  18.831  0.00  0.00    +0.000 C 
ATOM     12  C   UNL     1       4.737   5.634  19.319  0.00  0.00    +0.000 C 
ENDBRANCH  10  12
BRANCH  10  13
ATOM     13  C   UNL     1       2.978   4.817  17.686  0.00  0.00    +0.000 C 
ATOM     14  C   UNL     1       1.606   4.164  17.804  0.00  0.00    +0.000 C 
ENDBRANCH  10  13
ENDBRANCH   4  10
ENDBRANCH   1   7
BRANCH   2  15
ATOM     15  C   UNL     1      -1.340  12.172  18.874  0.00  0.00    +0.000 C 
ATOM     16  O   UNL     1      -0.864  13.198  18.395  0.00  0.00    +0.000 OA
BRANCH  15  17
ATOM     17  C   UNL     1      -2.456  12.270  19.866  0.00  0.00    +0.000 A 
ATOM     18  C   UNL     1      -2.064  12.494  21.194  0.00  0.00    +0.000 A 
ATOM     19  C   UNL     1      -2.996  12.627  22.209  0.00  0.00    +0.000 A 
ATOM     20  C   UNL     1      -4.360  12.626  21.925  0.00  0.00    +0.000 A 
ATOM     21  C   UNL     1      -4.798  12.479  20.588  0.00  0.00    +0.000 A 
ATOM     22  C   UNL     1      -3.838  12.286  19.544  0.00  0.00    +0.000 A 
BRANCH  20  23
ATOM     23  O   UNL     1      -5.091  12.792  23.073  0.00  0.00    +0.000 OA
ATOM     24  C   UNL     1      -5.225  14.081  23.645  0.00  0.00    +0.000 C 
ENDBRANCH  20  23
BRANCH  21  25
ATOM     25  O   UNL     1      -6.162  12.522  20.436  0.00  0.00    +0.000 OA
ATOM     26  C   UNL     1      -6.971  11.365  20.548  0.00  0.00    +0.000 C 
ENDBRANCH  21  25
BRANCH  22  27
ATOM     27  O   UNL     1      -4.346  12.258  18.271  0.00  0.00    +0.000 OA
ATOM     28  C   UNL     1      -4.758  11.039  17.673  0.00  0.00    +0.000 C 
ENDBRANCH  22  27
ENDBRANCH  15  17
ENDBRANCH   2  15
TORSDOF 9
ENDMDL
MODEL 3
REMARK VINA RESULT:      -7.0      0.925      1.372
REMARK  Name = 
REMARK  15 active torsions:
REMARK  status: ('A' for Active; 'I' for Inactive)
REMARK    1  A    between atoms: C_1  and  C_2
REMARK    2  A    between atoms: C_2  and  N_3
REMARK    3  A    between atoms: N_3  and  C_4
REMARK    4  A    between atoms: N_3  and  C_6
REMARK    5  A    between atoms: C_4  and  C_5
REMARK    6  A    between atoms: C_9  and  C_10
REMARK    7  A    between atoms: C_11  and  C_12
REMARK    8  A    between atoms: C_11  and  C_13
REMARK    9  A    between atoms: C_13  and  C_15
REMARK   10  A    between atoms: C_18  and  O_19
REMARK   11  A    between atoms: O_19  and  C_20
REMARK   12  A    between atoms: C_21  and  O_22
REMARK   13  A    between atoms: O_22  and  C_23
REMARK   14  A    between atoms: C_24  and  O_25
REMARK   15  A    between atoms: O_25  and  C_26
REMARK                            x       y       z     vdW  Elec       q    Type
REMARK                         _______ _______ _______ _____ _____    ______ ____
ROOT
ATOM      1  C   UNL     1       3.033   6.413  19.277  0.00  0.00    +0.000 C 
ATOM      2  C   UNL     1       2.703   5.153  19.633  0.00  0.00    +0.000 C 
ATOM      3  C   UNL     1       1.433   4.786  20.354  0.00  0.00    +0.000 C 
ENDROOT
BRANCH   1   7
ATOM      4  C   UNL     1       0.517   9.907  19.537  0.00  0.00    +0.000 A 
ATOM      5  C   UNL     1       1.068   9.481  18.315  0.00  0.00    +0.000 A 
ATOM      6  C   UNL     1       1.888   8.347  18.242  0.00  0.00    +0.000 A 
ATOM      7  C   UNL     1       2.183   7.607  19.386  0.00  0.00    +0.000 A 
ATOM      8  C   UNL     1       1.576   7.982  20.590  0.00  0.00    +0.000 A 
ATOM      9  C   UNL     1       0.777   9.125  20.667  0.00  0.00    +0.000 A 
BRANCH   4  10
ATOM     10  N   UNL     1      -0.258  11.073  19.669  0.00  0.00    +0.000 N 
BRANCH  10  12
ATOM     11  C   UNL     1      -1.784  11.825  17.849  0.00  0.00    +0.000 C 
ATOM     12  C   UNL     1      -1.622  11.008  19.121  0.00  0.00    +0.000 C 
ENDBRANCH  10  12
BRANCH  10  13
ATOM     13  C   UNL     1       0.515  12.319  19.498  0.00  0.00    +0.000 C 
ATOM     14  C   UNL     1       1.150  12.812  20.793  0.00  0.00    +0.000 C 
ENDBRANCH  10  13
ENDBRANCH   4  10
ENDBRANCH   1   7
BRANCH   2  15
ATOM     15  C   UNL     1       3.750   4.106  19.297  0.00  0.00    +0.000 C 
ATOM     16  O   UNL     1       3.882   3.110  20.005  0.00  0.00    +0.000 OA
BRANCH  15  17
ATOM     17  C   UNL     1       4.683   4.323  18.149  0.00  0.00    +0.000 A 
ATOM     18  C   UNL     1       4.254   3.804  16.917  0.00  0.00    +0.000 A 
ATOM     19  C   UNL     1       5.012   3.954  15.768  0.00  0.00    +0.000 A 
ATOM     20  C   UNL     1       6.188   4.700  15.786  0.00  0.00    +0.000 A 
ATOM     21  C   UNL     1       6.618   5.305  16.989  0.00  0.00    +0.000 A 
ATOM     22  C   UNL     1       5.866   5.106  18.191  0.00  0.00    +0.000 A 
BRANCH  20  23
ATOM     23  O   UNL     1       6.757   4.731  14.538  0.00  0.00    +0.000 OA
ATOM     24  C   UNL     1       6.247   3.901  13.508  0.00  0.00    +0.000 C 
ENDBRANCH  20  23
BRANCH  21  25
ATOM     25  O   UNL     1       7.774   6.035  16.870  0.00  0.00    +0.000 OA
ATOM     26  C   UNL     1       7.798   7.443  17.021  0.00  0.00    +0.000 C 
ENDBRANCH  21  25
BRANCH  22  27
ATOM     27  O   UNL     1       6.297   5.813  19.283  0.00  0.00    +0.000 OA
ATOM     28  C   UNL     1       7.513   5.481  19.937  0.00  0.00    +0.000 C 
ENDBRANCH  22  27
ENDBRANCH  15  17
ENDBRANCH   2  15
TORSDOF 9
ENDMDL
MODEL 4
REMARK VINA RESULT:      -6.9      0.766      1.502
REMARK  Name = 
REMARK  15 active torsions:
REMARK  status: ('A' for Active; 'I' for Inactive)
REMARK    1  A    between atoms: C_1  and  C_2
REMARK    2  A    between atoms: C_2  and  N_3
REMARK    3  A    between atoms: N_3  and  C_4
REMARK    4  A    between atoms: N_3  and  C_6
REMARK    5  A    between atoms: C_4  and  C_5
REMARK    6  A    between atoms: C_9  and  C_10
REMARK    7  A    between atoms: C_11  and  C_12
REMARK    8  A    between atoms: C_11  and  C_13
REMARK    9  A    between atoms: C_13  and  C_15
REMARK   10  A    between atoms: C_18  and  O_19
REMARK   11  A    between atoms: O_19  and  C_20
REMARK   12  A    between atoms: C_21  and  O_22
REMARK   13  A    between atoms: O_22  and  C_23
REMARK   14  A    between atoms: C_24  and  O_25
REMARK   15  A    between atoms: O_25  and  C_26
REMARK                            x       y       z     vdW  Elec       q    Type
REMARK                         _______ _______ _______ _____ _____    ______ ____
ROOT
ATOM      1  C   UNL     1       3.062   6.357  19.137  0.00  0.00    +0.000 C 
ATOM      2  C   UNL     1       2.765   5.064  19.387  0.00  0.00    +0.000 C 
ATOM      3  C   UNL     1       1.513   4.607  20.090  0.00  0.00    +0.000 C 
ENDROOT
BRANCH   1   7
ATOM      4  C   UNL     1       0.521   9.769  19.848  0.00  0.00    +0.000 A 
ATOM      5  C   UNL     1       0.889   8.892  20.883  0.00  0.00    +0.000 A 
ATOM      6  C   UNL     1       1.711   7.783  20.641  0.00  0.00    +0.000 A 
ATOM      7  C   UNL     1       2.188   7.518  19.359  0.00  0.00    +0.000 A 
ATOM      8  C   UNL     1       1.887   8.430  18.340  0.00  0.00    +0.000 A 
ATOM      9  C   UNL     1       1.050   9.521  18.576  0.00  0.00    +0.000 A 
BRANCH   4  10
ATOM     10  N   UNL     1      -0.352  10.856  20.031  0.00  0.00    +0.000 N 
BRANCH  10  12
ATOM     11  C   UNL     1       1.128  12.825  19.660  0.00  0.00    +0.000 C 
ATOM     12  C   UNL     1      -0.092  12.042  19.200  0.00  0.00    +0.000 C 
ENDBRANCH  10  12
BRANCH  10  13
ATOM     13  C   UNL     1      -0.766  11.052  21.434  0.00  0.00    +0.000 C 
ATOM     14  C   UNL     1      -1.853  12.108  21.596  0.00  0.00    +0.000 C 
ENDBRANCH  10  13
ENDBRANCH   4  10
ENDBRANCH   1   7
BRANCH   2  15
ATOM     15  C   UNL     1       3.829   4.074  18.950  0.00  0.00    +0.000 C 
ATOM     16  O   UNL     1       3.969   3.008  19.546  0.00  0.00    +0.000 OA
BRANCH  15  17
ATOM     17  C   UNL     1       4.769   4.427  17.841  0.00  0.00    +0.000 A 
ATOM     18  C   UNL     1       4.386   3.990  16.564  0.00  0.00    +0.000 A 
ATOM     19  C   UNL     1       5.155   4.269  15.446  0.00  0.00    +0.000 A 
ATOM     20  C   UNL     1       6.292   5.066  15.547  0.00  0.00    +0.000 A 
ATOM     21  C   UNL     1       6.672   5.591  16.804  0.00  0.00    +0.000 A 
ATOM     22  C   UNL     1       5.911   5.260  17.971  0.00  0.00    +0.000 A 
BRANCH  20  23
ATOM     23  O   UNL     1       6.879   5.225  14.318  0.00  0.00    +0.000 OA
ATOM     24  C   UNL     1       6.657   4.265  13.300  0.00  0.00    +0.000 C 
ENDBRANCH  20  23
BRANCH  21  25
ATOM     25  O   UNL     1       7.793   6.383  16.767  0.00  0.00    +0.000 OA
ATOM     26  C   UNL     1       7.765   7.750  17.138  0.00  0.00    +0.000 C 
ENDBRANCH  21  25
BRANCH  22  27
ATOM     27  O   UNL     1       6.289   5.896  19.124  0.00  0.00    +0.000 OA
ATOM     28  C   UNL     1       7.434   5.476  19.851  0.00  0.00    +0.000 C 
ENDBRANCH  22  27
ENDBRANCH  15  17
ENDBRANCH   2  15
TORSDOF 9
ENDMDL
MODEL 5
REMARK VINA RESULT:      -6.9      5.121     10.289
REMARK  Name = 
REMARK  15 active torsions:
REMARK  status: ('A' for Active; 'I' for Inactive)
REMARK    1  A    between atoms: C_1  and  C_2
REMARK    2  A    between atoms: C_2  and  N_3
REMARK    3  A    between atoms: N_3  and  C_4
REMARK    4  A    between atoms: N_3  and  C_6
REMARK    5  A    between atoms: C_4  and  C_5
REMARK    6  A    between atoms: C_9  and  C_10
REMARK    7  A    between atoms: C_11  and  C_12
REMARK    8  A    between atoms: C_11  and  C_13
REMARK    9  A    between atoms: C_13  and  C_15
REMARK   10  A    between atoms: C_18  and  O_19
REMARK   11  A    between atoms: O_19  and  C_20
REMARK   12  A    between atoms: C_21  and  O_22
REMARK   13  A    between atoms: O_22  and  C_23
REMARK   14  A    between atoms: C_24  and  O_25
REMARK   15  A    between atoms: O_25  and  C_26
REMARK                            x       y       z     vdW  Elec       q    Type
REMARK                         _______ _______ _______ _____ _____    ______ ____
ROOT
ATOM      1  C   UNL     1       0.711  10.671  19.738  0.00  0.00    +0.000 C 
ATOM      2  C   UNL     1      -0.533  11.066  19.391  0.00  0.00    +0.000 C 
ATOM      3  C   UNL     1      -1.443  10.283  18.481  0.00  0.00    +0.000 C 
ENDROOT
BRANCH   1   7
ATOM      4  C   UNL     1       2.517   6.851  18.872  0.00  0.00    +0.000 A 
ATOM      5  C   UNL     1       1.966   7.141  20.133  0.00  0.00    +0.000 A 
ATOM      6  C   UNL     1       1.386   8.386  20.406  0.00  0.00    +0.000 A 
ATOM      7  C   UNL     1       1.341   9.379  19.429  0.00  0.00    +0.000 A 
ATOM      8  C   UNL     1       1.819   9.070  18.150  0.00  0.00    +0.000 A 
ATOM      9  C   UNL     1       2.417   7.837  17.885  0.00  0.00    +0.000 A 
BRANCH   4  10
ATOM     10  N   UNL     1       3.166   5.639  18.574  0.00  0.00    +0.000 N 
BRANCH  10  12
ATOM     11  C   UNL     1       1.659   3.792  17.852  0.00  0.00    +0.000 C 
ATOM     12  C   UNL     1       2.464   4.412  18.983  0.00  0.00    +0.000 C 
ENDBRANCH  10  12
BRANCH  10  13
ATOM     13  C   UNL     1       4.632   5.700  18.727  0.00  0.00    +0.000 C 
ATOM     14  C   UNL     1       5.257   4.349  19.056  0.00  0.00    +0.000 C 
ENDBRANCH  10  13
ENDBRANCH   4  10
ENDBRANCH   1   7
BRANCH   2  15
ATOM     15  C   UNL     1      -0.947  12.415  19.949  0.00  0.00    +0.000 C 
ATOM     16  O   UNL     1      -0.213  13.393  19.820  0.00  0.00    +0.000 OA
BRANCH  15  17
ATOM     17  C   UNL     1      -2.214  12.543  20.734  0.00  0.00    +0.000 A 
ATOM     18  C   UNL     1      -3.370  12.781  19.976  0.00  0.00    +0.000 A 
ATOM     19  C   UNL     1      -4.614  12.898  20.574  0.00  0.00    +0.000 A 
ATOM     20  C   UNL     1      -4.763  12.699  21.944  0.00  0.00    +0.000 A 
ATOM     21  C   UNL     1      -3.635  12.382  22.736  0.00  0.00    +0.000 A 
ATOM     22  C   UNL     1      -2.340  12.314  22.129  0.00  0.00    +0.000 A 
BRANCH  20  23
ATOM     23  O   UNL     1      -6.077  12.843  22.311  0.00  0.00    +0.000 OA
ATOM     24  C   UNL     1      -7.092  12.177  21.581  0.00  0.00    +0.000 C 
ENDBRANCH  20  23
BRANCH  21  25
ATOM     25  O   UNL     1      -3.918  12.183  24.064  0.00  0.00    +0.000 OA
ATOM     26  C   UNL     1      -3.855  13.231  25.015  0.00  0.00    +0.000 C 
ENDBRANCH  21  25
BRANCH  22  27
ATOM     27  O   UNL     1      -1.323  11.900  22.949  0.00  0.00    +0.000 OA
ATOM     28  C   UNL     1      -1.041  10.519  23.125  0.00  0.00    +0.000 C 
ENDBRANCH  22  27
ENDBRANCH  15  17
ENDBRANCH   2  15
TORSDOF 9
ENDMDL
MODEL 6
REMARK VINA RESULT:      -6.9      5.392     10.527
REMARK  Name = 
REMARK  15 active torsions:
REMARK  status: ('A' for Active; 'I' for Inactive)
REMARK    1  A    between atoms: C_1  and  C_2
REMARK    2  A    between atoms: C_2  and  N_3
REMARK    3  A    between atoms: N_3  and  C_4
REMARK    4  A    between atoms: N_3  and  C_6
REMARK    5  A    between atoms: C_4  and  C_5
REMARK    6  A    between atoms: C_9  and  C_10
REMARK    7  A    between atoms: C_11  and  C_12
REMARK    8  A    between atoms: C_11  and  C_13
REMARK    9  A    between atoms: C_13  and  C_15
REMARK   10  A    between atoms: C_18  and  O_19
REMARK   11  A    between atoms: O_19  and  C_20
REMARK   12  A    between atoms: C_21  and  O_22
REMARK   13  A    between atoms: O_22  and  C_23
REMARK   14  A    between atoms: C_24  and  O_25
REMARK   15  A    between atoms: O_25  and  C_26
REMARK                            x       y       z     vdW  Elec       q    Type
REMARK                         _______ _______ _______ _____ _____    ______ ____
ROOT
ATOM      1  C   UNL     1       0.346  10.683  19.379  0.00  0.00    +0.000 C 
ATOM      2  C   UNL     1      -0.809  11.006  18.759  0.00  0.00    +0.000 C 
ATOM      3  C   UNL     1      -1.458  10.163  17.693  0.00  0.00    +0.000 C 
ENDROOT
BRANCH   1   7
ATOM      4  C   UNL     1       2.568   7.009  18.953  0.00  0.00    +0.000 A 
ATOM      5  C   UNL     1       2.422   7.915  17.887  0.00  0.00    +0.000 A 
ATOM      6  C   UNL     1       1.694   9.103  18.034  0.00  0.00    +0.000 A 
ATOM      7  C   UNL     1       1.090   9.421  19.249  0.00  0.00    +0.000 A 
ATOM      8  C   UNL     1       1.296   8.562  20.334  0.00  0.00    +0.000 A 
ATOM      9  C   UNL     1       2.001   7.367  20.181  0.00  0.00    +0.000 A 
BRANCH   4  10
ATOM     10  N   UNL     1       3.234   5.777  18.833  0.00  0.00    +0.000 N 
BRANCH  10  12
ATOM     11  C   UNL     1       2.027   3.742  19.614  0.00  0.00    +0.000 C 
ATOM     12  C   UNL     1       3.040   4.827  19.941  0.00  0.00    +0.000 C 
ENDBRANCH  10  12
BRANCH  10  13
ATOM     13  C   UNL     1       4.571   5.885  18.219  0.00  0.00    +0.000 C 
ATOM     14  C   UNL     1       4.704   5.083  16.929  0.00  0.00    +0.000 C 
ENDBRANCH  10  13
ENDBRANCH   4  10
ENDBRANCH   1   7
BRANCH   2  15
ATOM     15  C   UNL     1      -1.401  12.339  19.179  0.00  0.00    +0.000 C 
ATOM     16  O   UNL     1      -0.930  13.390  18.750  0.00  0.00    +0.000 OA
BRANCH  15  17
ATOM     17  C   UNL     1      -2.508  12.383  20.183  0.00  0.00    +0.000 A 
ATOM     18  C   UNL     1      -2.102  12.499  21.522  0.00  0.00    +0.000 A 
ATOM     19  C   UNL     1      -3.026  12.572  22.551  0.00  0.00    +0.000 A 
ATOM     20  C   UNL     1      -4.391  12.616  22.278  0.00  0.00    +0.000 A 
ATOM     21  C   UNL     1      -4.841  12.578  20.939  0.00  0.00    +0.000 A 
ATOM     22  C   UNL     1      -3.892  12.447  19.875  0.00  0.00    +0.000 A 
BRANCH  20  23
ATOM     23  O   UNL     1      -5.111  12.709  23.442  0.00  0.00    +0.000 OA
ATOM     24  C   UNL     1      -4.495  12.402  24.681  0.00  0.00    +0.000 C 
ENDBRANCH  20  23
BRANCH  21  25
ATOM     25  O   UNL     1      -6.205  12.656  20.801  0.00  0.00    +0.000 OA
ATOM     26  C   UNL     1      -7.034  11.509  20.835  0.00  0.00    +0.000 C 
ENDBRANCH  21  25
BRANCH  22  27
ATOM     27  O   UNL     1      -4.408  12.524  18.608  0.00  0.00    +0.000 OA
ATOM     28  C   UNL     1      -4.787  11.354  17.899  0.00  0.00    +0.000 C 
ENDBRANCH  22  27
ENDBRANCH  15  17
ENDBRANCH   2  15
TORSDOF 9
ENDMDL
MODEL 7
REMARK VINA RESULT:      -6.8      5.282     10.336
REMARK  Name = 
REMARK  15 active torsions:
REMARK  status: ('A' for Active; 'I' for Inactive)
REMARK    1  A    between atoms: C_1  and  C_2
REMARK    2  A    between atoms: C_2  and  N_3
REMARK    3  A    between atoms: N_3  and  C_4
REMARK    4  A    between atoms: N_3  and  C_6
REMARK    5  A    between atoms: C_4  and  C_5
REMARK    6  A    between atoms: C_9  and  C_10
REMARK    7  A    between atoms: C_11  and  C_12
REMARK    8  A    between atoms: C_11  and  C_13
REMARK    9  A    between atoms: C_13  and  C_15
REMARK   10  A    between atoms: C_18  and  O_19
REMARK   11  A    between atoms: O_19  and  C_20
REMARK   12  A    between atoms: C_21  and  O_22
REMARK   13  A    between atoms: O_22  and  C_23
REMARK   14  A    between atoms: C_24  and  O_25
REMARK   15  A    between atoms: O_25  and  C_26
REMARK                            x       y       z     vdW  Elec       q    Type
REMARK                         _______ _______ _______ _____ _____    ______ ____
ROOT
ATOM      1  C   UNL     1       0.407  10.711  19.530  0.00  0.00    +0.000 C 
ATOM      2  C   UNL     1      -0.777  11.018  18.956  0.00  0.00    +0.000 C 
ATOM      3  C   UNL     1      -1.485  10.137  17.961  0.00  0.00    +0.000 C 
ENDROOT
BRANCH   1   7
ATOM      4  C   UNL     1       2.501   6.951  19.229  0.00  0.00    +0.000 A 
ATOM      5  C   UNL     1       1.800   7.318  20.392  0.00  0.00    +0.000 A 
ATOM      6  C   UNL     1       1.128   8.543  20.482  0.00  0.00    +0.000 A 
ATOM      7  C   UNL     1       1.135   9.439  19.414  0.00  0.00    +0.000 A 
ATOM      8  C   UNL     1       1.765   9.047  18.227  0.00  0.00    +0.000 A 
ATOM      9  C   UNL     1       2.455   7.836  18.146  0.00  0.00    +0.000 A 
BRANCH   4  10
ATOM     10  N   UNL     1       3.242   5.762  19.117  0.00  0.00    +0.000 N 
BRANCH  10  12
ATOM     11  C   UNL     1       5.686   5.284  19.069  0.00  0.00    +0.000 C 
ATOM     12  C   UNL     1       4.482   5.845  18.329  0.00  0.00    +0.000 C 
ENDBRANCH  10  12
BRANCH  10  13
ATOM     13  C   UNL     1       2.405   4.553  18.993  0.00  0.00    +0.000 C 
ATOM     14  C   UNL     1       2.386   3.978  17.581  0.00  0.00    +0.000 C 
ENDBRANCH  10  13
ENDBRANCH   4  10
ENDBRANCH   1   7
BRANCH   2  15
ATOM     15  C   UNL     1      -1.338  12.372  19.350  0.00  0.00    +0.000 C 
ATOM     16  O   UNL     1      -0.659  13.388  19.219  0.00  0.00    +0.000 OA
BRANCH  15  17
ATOM     17  C   UNL     1      -2.692  12.466  19.979  0.00  0.00    +0.000 A 
ATOM     18  C   UNL     1      -3.775  12.272  19.109  0.00  0.00    +0.000 A 
ATOM     19  C   UNL     1      -5.082  12.311  19.564  0.00  0.00    +0.000 A 
ATOM     20  C   UNL     1      -5.357  12.463  20.921  0.00  0.00    +0.000 A 
ATOM     21  C   UNL     1      -4.292  12.586  21.844  0.00  0.00    +0.000 A 
ATOM     22  C   UNL     1      -2.941  12.601  21.370  0.00  0.00    +0.000 A 
BRANCH  20  23
ATOM     23  O   UNL     1      -6.710  12.452  21.143  0.00  0.00    +0.000 OA
ATOM     24  C   UNL     1      -7.438  11.243  21.014  0.00  0.00    +0.000 C 
ENDBRANCH  20  23
BRANCH  21  25
ATOM     25  O   UNL     1      -4.692  12.701  23.152  0.00  0.00    +0.000 OA
ATOM     26  C   UNL     1      -4.883  13.958  23.775  0.00  0.00    +0.000 C 
ENDBRANCH  21  25
BRANCH  22  27
ATOM     27  O   UNL     1      -1.974  12.619  22.340  0.00  0.00    +0.000 OA
ATOM     28  C   UNL     1      -1.447  11.412  22.872  0.00  0.00    +0.000 C 
ENDBRANCH  22  27
ENDBRANCH  15  17
ENDBRANCH   2  15
TORSDOF 9
ENDMDL
MODEL 8
REMARK VINA RESULT:      -6.8      4.689      9.783
REMARK  Name = 
REMARK  15 active torsions:
REMARK  status: ('A' for Active; 'I' for Inactive)
REMARK    1  A    between atoms: C_1  and  C_2
REMARK    2  A    between atoms: C_2  and  N_3
REMARK    3  A    between atoms: N_3  and  C_4
REMARK    4  A    between atoms: N_3  and  C_6
REMARK    5  A    between atoms: C_4  and  C_5
REMARK    6  A    between atoms: C_9  and  C_10
REMARK    7  A    between atoms: C_11  and  C_12
REMARK    8  A    between atoms: C_11  and  C_13
REMARK    9  A    between atoms: C_13  and  C_15
REMARK   10  A    between atoms: C_18  and  O_19
REMARK   11  A    between atoms: O_19  and  C_20
REMARK   12  A    between atoms: C_21  and  O_22
REMARK   13  A    between atoms: O_22  and  C_23
REMARK   14  A    between atoms: C_24  and  O_25
REMARK   15  A    between atoms: O_25  and  C_26
REMARK                            x       y       z     vdW  Elec       q    Type
REMARK                         _______ _______ _______ _____ _____    ______ ____
ROOT
ATOM      1  C   UNL     1       1.288   8.510  21.498  0.00  0.00    +0.000 C 
ATOM      2  C   UNL     1       0.273   9.393  21.382  0.00  0.00    +0.000 C 
ATOM      3  C   UNL     1      -0.495   9.632  20.109  0.00  0.00    +0.000 C 
ENDROOT
BRANCH   1   7
ATOM      4  C   UNL     1       2.535   5.621  18.547  0.00  0.00    +0.000 A 
ATOM      5  C   UNL     1       2.020   5.229  19.796  0.00  0.00    +0.000 A 
ATOM      6  C   UNL     1       1.623   6.175  20.750  0.00  0.00    +0.000 A 
ATOM      7  C   UNL     1       1.728   7.540  20.485  0.00  0.00    +0.000 A 
ATOM      8  C   UNL     1       2.167   7.934  19.216  0.00  0.00    +0.000 A 
ATOM      9  C   UNL     1       2.585   6.992  18.275  0.00  0.00    +0.000 A 
BRANCH   4  10
ATOM     10  N   UNL     1       3.005   4.709  17.586  0.00  0.00    +0.000 N 
BRANCH  10  12
ATOM     11  C   UNL     1       3.187   2.239  17.856  0.00  0.00    +0.000 C 
ATOM     12  C   UNL     1       2.295   3.422  17.513  0.00  0.00    +0.000 C 
ENDBRANCH  10  12
BRANCH  10  13
ATOM     13  C   UNL     1       4.473   4.717  17.432  0.00  0.00    +0.000 C 
ATOM     14  C   UNL     1       5.212   4.925  18.749  0.00  0.00    +0.000 C 
ENDBRANCH  10  13
ENDBRANCH   4  10
ENDBRANCH   1   7
BRANCH   2  15
ATOM     15  C   UNL     1      -0.018  10.191  22.639  0.00  0.00    +0.000 C 
ATOM     16  O   UNL     1       0.316   9.760  23.740  0.00  0.00    +0.000 OA
BRANCH  15  17
ATOM     17  C   UNL     1      -0.790  11.470  22.552  0.00  0.00    +0.000 A 
ATOM     18  C   UNL     1      -2.060  11.449  23.148  0.00  0.00    +0.000 A 
ATOM     19  C   UNL     1      -2.870  12.573  23.158  0.00  0.00    +0.000 A 
ATOM     20  C   UNL     1      -2.410  13.784  22.647  0.00  0.00    +0.000 A 
ATOM     21  C   UNL     1      -1.107  13.868  22.105  0.00  0.00    +0.000 A 
ATOM     22  C   UNL     1      -0.287  12.696  22.043  0.00  0.00    +0.000 A 
BRANCH  20  23
ATOM     23  O   UNL     1      -3.368  14.757  22.780  0.00  0.00    +0.000 OA
ATOM     24  C   UNL     1      -3.700  15.249  24.067  0.00  0.00    +0.000 C 
ENDBRANCH  20  23
BRANCH  21  25
ATOM     25  O   UNL     1      -0.763  15.120  21.660  0.00  0.00    +0.000 OA
ATOM     26  C   UNL     1      -0.128  16.071  22.496  0.00  0.00    +0.000 C 
ENDBRANCH  21  25
BRANCH  22  27
ATOM     27  O   UNL     1       0.994  12.893  21.600  0.00  0.00    +0.000 OA
ATOM     28  C   UNL     1       1.312  12.818  20.218  0.00  0.00    +0.000 C 
ENDBRANCH  22  27
ENDBRANCH  15  17
ENDBRANCH   2  15
TORSDOF 9
ENDMDL
MODEL 9
REMARK VINA RESULT:      -6.8      4.869     10.019
REMARK  Name = 
REMARK  15 active torsions:
REMARK  status: ('A' for Active; 'I' for Inactive)
REMARK    1  A    between atoms: C_1  and  C_2
REMARK    2  A    between atoms: C_2  and  N_3
REMARK    3  A    between atoms: N_3  and  C_4
REMARK    4  A    between atoms: N_3  and  C_6
REMARK    5  A    between atoms: C_4  and  C_5
REMARK    6  A    between atoms: C_9  and  C_10
REMARK    7  A    between atoms: C_11  and  C_12
REMARK    8  A    between atoms: C_11  and  C_13
REMARK    9  A    between atoms: C_13  and  C_15
REMARK   10  A    between atoms: C_18  and  O_19
REMARK   11  A    between atoms: O_19  and  C_20
REMARK   12  A    between atoms: C_21  and  O_22
REMARK   13  A    between atoms: O_22  and  C_23
REMARK   14  A    between atoms: C_24  and  O_25
REMARK   15  A    between atoms: O_25  and  C_26
REMARK                            x       y       z     vdW  Elec       q    Type
REMARK                         _______ _______ _______ _____ _____    ______ ____
ROOT
ATOM      1  C   UNL     1       1.235   9.833  20.189  0.00  0.00    +0.000 C 
ATOM      2  C   UNL     1       0.239  10.535  19.606  0.00  0.00    +0.000 C 
ATOM      3  C   UNL     1      -0.531  10.064  18.401  0.00  0.00    +0.000 C 
ENDROOT
BRANCH   1   7
ATOM      4  C   UNL     1       2.393   5.778  19.276  0.00  0.00    +0.000 A 
ATOM      5  C   UNL     1       1.787   6.118  20.499  0.00  0.00    +0.000 A 
ATOM      6  C   UNL     1       1.420   7.439  20.788  0.00  0.00    +0.000 A 
ATOM      7  C   UNL     1       1.646   8.459  19.866  0.00  0.00    +0.000 A 
ATOM      8  C   UNL     1       2.178   8.114  18.617  0.00  0.00    +0.000 A 
ATOM      9  C   UNL     1       2.565   6.803  18.338  0.00  0.00    +0.000 A 
BRANCH   4  10
ATOM     10  N   UNL     1       2.836   4.480  18.969  0.00  0.00    +0.000 N 
BRANCH  10  12
ATOM     11  C   UNL     1       4.677   3.962  17.373  0.00  0.00    +0.000 C 
ATOM     12  C   UNL     1       3.194   4.235  17.562  0.00  0.00    +0.000 C 
ENDBRANCH  10  12
BRANCH  10  13
ATOM     13  C   UNL     1       2.128   3.422  19.714  0.00  0.00    +0.000 C 
ATOM     14  C   UNL     1       1.009   2.769  18.910  0.00  0.00    +0.000 C 
ENDBRANCH  10  13
ENDBRANCH   4  10
ENDBRANCH   1   7
BRANCH   2  15
ATOM     15  C   UNL     1      -0.026  11.893  20.230  0.00  0.00    +0.000 C 
ATOM     16  O   UNL     1       0.873  12.728  20.304  0.00  0.00    +0.000 OA
BRANCH  15  17
ATOM     17  C   UNL     1      -1.361  12.192  20.833  0.00  0.00    +0.000 A 
ATOM     18  C   UNL     1      -2.357  12.584  19.926  0.00  0.00    +0.000 A 
ATOM     19  C   UNL     1      -3.645  12.870  20.348  0.00  0.00    +0.000 A 
ATOM     20  C   UNL     1      -4.011  12.693  21.680  0.00  0.00    +0.000 A 
ATOM     21  C   UNL     1      -3.058  12.225  22.614  0.00  0.00    +0.000 A 
ATOM     22  C   UNL     1      -1.712  11.982  22.192  0.00  0.00    +0.000 A 
BRANCH  20  23
ATOM     23  O   UNL     1      -5.332  13.014  21.863  0.00  0.00    +0.000 OA
ATOM     24  C   UNL     1      -5.738  14.372  21.843  0.00  0.00    +0.000 C 
ENDBRANCH  20  23
BRANCH  21  25
ATOM     25  O   UNL     1      -3.549  12.066  23.886  0.00  0.00    +0.000 OA
ATOM     26  C   UNL     1      -3.711  13.157  24.775  0.00  0.00    +0.000 C 
ENDBRANCH  21  25
BRANCH  22  27
ATOM     27  O   UNL     1      -0.885  11.433  23.137  0.00  0.00    +0.000 OA
ATOM     28  C   UNL     1      -0.735  10.026  23.250  0.00  0.00    +0.000 C 
ENDBRANCH  22  27
ENDBRANCH  15  17
ENDBRANCH   2  15
TORSDOF 9
ENDMDL
