MODEL 1
REMARK VINA RESULT:      -9.1      0.000      0.000
REMARK  Name = 
REMARK  9 active torsions:
REMARK  status: ('A' for Active; 'I' for Inactive)
REMARK    1  A    between atoms: C_2  and  C_4
REMARK    2  A    between atoms: C_7  and  O_8
REMARK    3  A    between atoms: O_8  and  C_9
REMARK    4  A    between atoms: C_9  and  C_10
REMARK    5  A    between atoms: C_16  and  N_17
REMARK    6  A    between atoms: N_17  and  C_18
REMARK    7  A    between atoms: C_18  and  C_19
REMARK    8  A    between atoms: C_25  and  C_27
REMARK    9  A    between atoms: C_27  and  O_29
REMARK                            x       y       z     vdW  Elec       q    Type
REMARK                         _______ _______ _______ _____ _____    ______ ____
ROOT
ATOM      1  C   UNL     1       1.698   8.620  18.119  0.00  0.00    +0.000 C 
ATOM      2  C   UNL     1       2.035   8.244  19.562  0.00  0.00    +0.000 C 
ATOM      3  O   UNL     1       2.001   6.815  19.606  0.00  0.00    +0.000 OA
ATOM      4  C   UNL     1       2.754   6.300  18.578  0.00  0.00    +0.000 A 
ATOM      5  C   UNL     1       2.861   4.925  18.547  0.00  0.00    +0.000 A 
ATOM      6  C   UNL     1       3.809   4.335  17.728  0.00  0.00    +0.000 A 
ATOM      7  C   UNL     1       4.778   5.118  17.100  0.00  0.00    +0.000 A 
ATOM      8  C   UNL     1       4.512   6.505  16.933  0.00  0.00    +0.000 A 
ATOM      9  C   UNL     1       3.405   7.080  17.616  0.00  0.00    +0.000 A 
ATOM     10  O   UNL     1       2.965   8.396  17.390  0.00  0.00    +0.000 OA
ENDROOT
BRANCH   7  11
ATOM     11  N   UNL     1       6.024   4.450  16.827  0.00  0.00    +0.000 N 
ATOM     12  C   UNL     1       7.174   4.697  17.605  0.00  0.00    +0.000 C 
ATOM     13  O   UNL     1       8.221   4.041  17.567  0.00  0.00    +0.000 OA
BRANCH  12  14
ATOM     14  C   UNL     1       7.195   5.854  18.620  0.00  0.00    +0.000 C 
ATOM     15  O   UNL     1       6.822   5.770  19.773  0.00  0.00    +0.000 OA
BRANCH  14  16
ATOM     16  O   UNL     1       7.679   6.973  18.036  0.00  0.00    +0.000 OA
ATOM     17  H   UNL     1       7.173   7.758  18.343  0.00  0.00    +0.000 HD
ENDBRANCH  14  16
ENDBRANCH  12  14
BRANCH  11  18
ATOM     18  C   UNL     1       6.180   3.475  15.751  0.00  0.00    +0.000 C 
BRANCH  18  19
ATOM     19  C   UNL     1       6.517   4.052  14.382  0.00  0.00    +0.000 A 
ATOM     20  C   UNL     1       7.424   5.113  14.275  0.00  0.00    +0.000 A 
ATOM     21  C   UNL     1       7.903   5.523  13.023  0.00  0.00    +0.000 A 
ATOM     22  C   UNL     1       7.459   4.906  11.857  0.00  0.00    +0.000 A 
ATOM     23  C   UNL     1       6.500   3.900  11.936  0.00  0.00    +0.000 A 
ATOM     24  C   UNL     1       6.033   3.479  13.188  0.00  0.00    +0.000 A 
ENDBRANCH  18  19
ENDBRANCH  11  18
ENDBRANCH   7  11
BRANCH   1  25
ATOM     25  C   UNL     1       1.070  10.036  18.095  0.00  0.00    +0.000 C 
BRANCH  25  26
ATOM     26  O   UNL     1       0.196  10.303  19.218  0.00  0.00    +0.000 OA
BRANCH  26  30
ATOM     27  C   UNL     1      -3.734  11.263  18.016  0.00  0.00    +0.000 A 
ATOM     28  C   UNL     1      -3.155  11.958  19.080  0.00  0.00    +0.000 A 
ATOM     29  C   UNL     1      -1.862  11.638  19.529  0.00  0.00    +0.000 A 
ATOM     30  C   UNL     1      -1.111  10.637  18.908  0.00  0.00    +0.000 A 
ATOM     31  C   UNL     1      -1.709   9.919  17.863  0.00  0.00    +0.000 A 
ATOM     32  C   UNL     1      -3.010  10.226  17.417  0.00  0.00    +0.000 A 
BRANCH  27  34
ATOM     33  N   UNL     1      -5.217  12.703  16.765  0.00  0.00    +0.000 NA
ATOM     34  C   UNL     1      -5.091  11.666  17.528  0.00  0.00    +0.000 C 
ATOM     35  N   UNL     1      -6.201  10.958  17.892  0.00  0.00    +0.000 N 
ATOM     36  H   UNL     1      -6.195  12.822  16.494  0.00  0.00    +0.000 HD
ATOM     37  H   UNL     1      -7.084  11.443  17.790  0.00  0.00    +0.000 HD
ATOM     38  H   UNL     1      -6.139  10.476  18.781  0.00  0.00    +0.000 HD
ENDBRANCH  27  34
ENDBRANCH  26  30
ENDBRANCH  25  26
ENDBRANCH   1  25
TORSDOF 9
ENDMDL
MODEL 2
REMARK VINA RESULT:      -9.0      2.288      9.901
REMARK  Name = 
REMARK  9 active torsions:
REMARK  status: ('A' for Active; 'I' for Inactive)
REMARK    1  A    between atoms: C_2  and  C_4
REMARK    2  A    between atoms: C_7  and  O_8
REMARK    3  A    between atoms: O_8  and  C_9
REMARK    4  A    between atoms: C_9  and  C_10
REMARK    5  A    between atoms: C_16  and  N_17
REMARK    6  A    between atoms: N_17  and  C_18
REMARK    7  A    between atoms: C_18  and  C_19
REMARK    8  A    between atoms: C_25  and  C_27
REMARK    9  A    between atoms: C_27  and  O_29
REMARK                            x       y       z     vdW  Elec       q    Type
REMARK                         _______ _______ _______ _____ _____    ______ ____
ROOT
ATOM      1  C   UNL     1       3.096   5.999  19.602  0.00  0.00    +0.000 C 
ATOM      2  C   UNL     1       1.796   5.485  20.221  0.00  0.00    +0.000 C 
ATOM      3  O   UNL     1       1.444   6.440  21.225  0.00  0.00    +0.000 OA
ATOM      4  C   UNL     1       1.489   7.708  20.697  0.00  0.00    +0.000 A 
ATOM      5  C   UNL     1       1.103   8.722  21.548  0.00  0.00    +0.000 A 
ATOM      6  C   UNL     1       0.852   9.984  21.034  0.00  0.00    +0.000 A 
ATOM      7  C   UNL     1       0.790  10.177  19.653  0.00  0.00    +0.000 A 
ATOM      8  C   UNL     1       1.425   9.220  18.815  0.00  0.00    +0.000 A 
ATOM      9  C   UNL     1       1.873   7.997  19.384  0.00  0.00    +0.000 A 
ATOM     10  O   UNL     1       2.652   7.063  18.677  0.00  0.00    +0.000 OA
ENDROOT
BRANCH   7  11
ATOM     11  N   UNL     1      -0.055  11.261  19.224  0.00  0.00    +0.000 N 
ATOM     12  C   UNL     1       0.488  12.437  18.666  0.00  0.00    +0.000 C 
ATOM     13  O   UNL     1      -0.158  13.329  18.103  0.00  0.00    +0.000 OA
BRANCH  12  14
ATOM     14  C   UNL     1       2.004  12.693  18.710  0.00  0.00    +0.000 C 
ATOM     15  O   UNL     1       2.603  13.143  19.666  0.00  0.00    +0.000 OA
BRANCH  14  16
ATOM     16  O   UNL     1       2.567  12.350  17.529  0.00  0.00    +0.000 OA
ATOM     17  H   UNL     1       3.360  11.792  17.684  0.00  0.00    +0.000 HD
ENDBRANCH  14  16
ENDBRANCH  12  14
BRANCH  11  18
ATOM     18  C   UNL     1      -1.512  11.216  19.322  0.00  0.00    +0.000 C 
BRANCH  18  19
ATOM     19  C   UNL     1      -2.256  11.011  18.010  0.00  0.00    +0.000 A 
ATOM     20  C   UNL     1      -1.802  10.055  17.092  0.00  0.00    +0.000 A 
ATOM     21  C   UNL     1      -2.579   9.706  15.979  0.00  0.00    +0.000 A 
ATOM     22  C   UNL     1      -3.803  10.326  15.744  0.00  0.00    +0.000 A 
ATOM     23  C   UNL     1      -4.237  11.331  16.603  0.00  0.00    +0.000 A 
ATOM     24  C   UNL     1      -3.469  11.670  17.725  0.00  0.00    +0.000 A 
ENDBRANCH  18  19
ENDBRANCH  11  18
ENDBRANCH   7  11
BRANCH   1  25
ATOM     25  C   UNL     1       3.893   4.801  19.025  0.00  0.00    +0.000 C 
BRANCH  25  26
ATOM     26  O   UNL     1       5.261   5.126  18.681  0.00  0.00    +0.000 OA
BRANCH  26  30
ATOM     27  C   UNL     1       6.575   4.571  14.709  0.00  0.00    +0.000 A 
ATOM     28  C   UNL     1       5.262   4.237  15.049  0.00  0.00    +0.000 A 
ATOM     29  C   UNL     1       4.803   4.375  16.370  0.00  0.00    +0.000 A 
ATOM     30  C   UNL     1       5.638   4.875  17.373  0.00  0.00    +0.000 A 
ATOM     31  C   UNL     1       6.964   5.176  17.036  0.00  0.00    +0.000 A 
ATOM     32  C   UNL     1       7.434   5.028  15.715  0.00  0.00    +0.000 A 
BRANCH  27  34
ATOM     33  N   UNL     1       7.819   5.347  12.789  0.00  0.00    +0.000 NA
ATOM     34  C   UNL     1       7.013   4.464  13.281  0.00  0.00    +0.000 C 
ATOM     35  N   UNL     1       6.559   3.449  12.487  0.00  0.00    +0.000 N 
ATOM     36  H   UNL     1       8.047   5.114  11.821  0.00  0.00    +0.000 HD
ATOM     37  H   UNL     1       6.641   3.603  11.490  0.00  0.00    +0.000 HD
ATOM     38  H   UNL     1       5.651   3.074  12.736  0.00  0.00    +0.000 HD
ENDBRANCH  27  34
ENDBRANCH  26  30
ENDBRANCH  25  26
ENDBRANCH   1  25
TORSDOF 9
ENDMDL
MODEL 3
REMARK VINA RESULT:      -8.6      3.045      9.756
REMARK  Name = 
REMARK  9 active torsions:
REMARK  status: ('A' for Active; 'I' for Inactive)
REMARK    1  A    between atoms: C_2  and  C_4
REMARK    2  A    between atoms: C_7  and  O_8
REMARK    3  A    between atoms: O_8  and  C_9
REMARK    4  A    between atoms: C_9  and  C_10
REMARK    5  A    between atoms: C_16  and  N_17
REMARK    6  A    between atoms: N_17  and  C_18
REMARK    7  A    between atoms: C_18  and  C_19
REMARK    8  A    between atoms: C_25  and  C_27
REMARK    9  A    between atoms: C_27  and  O_29
REMARK                            x       y       z     vdW  Elec       q    Type
REMARK                         _______ _______ _______ _____ _____    ______ ____
ROOT
ATOM      1  C   UNL     1       3.838   6.346  17.830  0.00  0.00    +0.000 C 
ATOM      2  C   UNL     1       2.639   5.505  18.265  0.00  0.00    +0.000 C 
ATOM      3  O   UNL     1       2.205   6.065  19.507  0.00  0.00    +0.000 OA
ATOM      4  C   UNL     1       2.069   7.427  19.381  0.00  0.00    +0.000 A 
ATOM      5  C   UNL     1       1.589   8.084  20.495  0.00  0.00    +0.000 A 
ATOM      6  C   UNL     1       1.161   9.396  20.379  0.00  0.00    +0.000 A 
ATOM      7  C   UNL     1       1.024   9.979  19.119  0.00  0.00    +0.000 A 
ATOM      8  C   UNL     1       1.742   9.406  18.035  0.00  0.00    +0.000 A 
ATOM      9  C   UNL     1       2.364   8.140  18.214  0.00  0.00    +0.000 A 
ATOM     10  O   UNL     1       3.228   7.568  17.263  0.00  0.00    +0.000 OA
ENDROOT
BRANCH   7  11
ATOM     11  N   UNL     1       0.032  11.019  19.030  0.00  0.00    +0.000 N 
ATOM     12  C   UNL     1       0.383  12.339  18.678  0.00  0.00    +0.000 C 
ATOM     13  O   UNL     1      -0.412  13.243  18.396  0.00  0.00    +0.000 OA
BRANCH  12  14
ATOM     14  C   UNL     1       1.862  12.758  18.603  0.00  0.00    +0.000 C 
ATOM     15  O   UNL     1       2.547  13.055  19.561  0.00  0.00    +0.000 OA
BRANCH  14  16
ATOM     16  O   UNL     1       2.280  12.753  17.317  0.00  0.00    +0.000 OA
ATOM     17  H   UNL     1       2.148  11.862  16.924  0.00  0.00    +0.000 HD
ENDBRANCH  14  16
ENDBRANCH  12  14
BRANCH  11  18
ATOM     18  C   UNL     1      -1.388  10.784  19.282  0.00  0.00    +0.000 C 
BRANCH  18  19
ATOM     19  C   UNL     1      -2.263  10.638  18.045  0.00  0.00    +0.000 A 
ATOM     20  C   UNL     1      -3.441  11.387  17.931  0.00  0.00    +0.000 A 
ATOM     21  C   UNL     1      -4.152  11.425  16.723  0.00  0.00    +0.000 A 
ATOM     22  C   UNL     1      -3.720  10.690  15.623  0.00  0.00    +0.000 A 
ATOM     23  C   UNL     1      -2.594   9.881  15.738  0.00  0.00    +0.000 A 
ATOM     24  C   UNL     1      -1.874   9.855  16.940  0.00  0.00    +0.000 A 
ENDBRANCH  18  19
ENDBRANCH  11  18
ENDBRANCH   7  11
BRANCH   1  25
ATOM     25  C   UNL     1       4.759   5.490  16.924  0.00  0.00    +0.000 C 
BRANCH  25  26
ATOM     26  O   UNL     1       6.079   5.273  17.477  0.00  0.00    +0.000 OA
BRANCH  26  30
ATOM     27  C   UNL     1       8.386   8.667  18.461  0.00  0.00    +0.000 A 
ATOM     28  C   UNL     1       7.482   8.739  17.399  0.00  0.00    +0.000 A 
ATOM     29  C   UNL     1       6.725   7.616  17.022  0.00  0.00    +0.000 A 
ATOM     30  C   UNL     1       6.835   6.407  17.714  0.00  0.00    +0.000 A 
ATOM     31  C   UNL     1       7.769   6.330  18.756  0.00  0.00    +0.000 A 
ATOM     32  C   UNL     1       8.541   7.448  19.131  0.00  0.00    +0.000 A 
BRANCH  27  34
ATOM     33  N   UNL     1       9.322  10.147  20.125  0.00  0.00    +0.000 NA
ATOM     34  C   UNL     1       9.136   9.897  18.870  0.00  0.00    +0.000 C 
ATOM     35  N   UNL     1       9.614  10.767  17.932  0.00  0.00    +0.000 N 
ATOM     36  H   UNL     1       9.876  10.998  20.235  0.00  0.00    +0.000 HD
ATOM     37  H   UNL     1       9.829  11.698  18.266  0.00  0.00    +0.000 HD
ATOM     38  H   UNL     1       9.100  10.791  17.058  0.00  0.00    +0.000 HD
ENDBRANCH  27  34
ENDBRANCH  26  30
ENDBRANCH  25  26
ENDBRANCH   1  25
TORSDOF 9
ENDMDL
MODEL 4
REMARK VINA RESULT:      -8.6      2.188      2.712
REMARK  Name = 
REMARK  9 active torsions:
REMARK  status: ('A' for Active; 'I' for Inactive)
REMARK    1  A    between atoms: C_2  and  C_4
REMARK    2  A    between atoms: C_7  and  O_8
REMARK    3  A    between atoms: O_8  and  C_9
REMARK    4  A    between atoms: C_9  and  C_10
REMARK    5  A    between atoms: C_16  and  N_17
REMARK    6  A    between atoms: N_17  and  C_18
REMARK    7  A    between atoms: C_18  and  C_19
REMARK    8  A    between atoms: C_25  and  C_27
REMARK    9  A    between atoms: C_27  and  O_29
REMARK                            x       y       z     vdW  Elec       q    Type
REMARK                         _______ _______ _______ _____ _____    ______ ____
ROOT
ATOM      1  C   UNL     1       1.707   8.593  18.465  0.00  0.00    +0.000 C 
ATOM      2  C   UNL     1       2.075   8.128  19.874  0.00  0.00    +0.000 C 
ATOM      3  O   UNL     1       2.028   6.699  19.832  0.00  0.00    +0.000 OA
ATOM      4  C   UNL     1       2.751   6.242  18.756  0.00  0.00    +0.000 A 
ATOM      5  C   UNL     1       2.843   4.870  18.639  0.00  0.00    +0.000 A 
ATOM      6  C   UNL     1       3.765   4.323  17.762  0.00  0.00    +0.000 A 
ATOM      7  C   UNL     1       4.727   5.135  17.160  0.00  0.00    +0.000 A 
ATOM      8  C   UNL     1       4.470   6.531  17.084  0.00  0.00    +0.000 A 
ATOM      9  C   UNL     1       3.386   7.073  17.828  0.00  0.00    +0.000 A 
ATOM     10  O   UNL     1       2.953   8.404  17.692  0.00  0.00    +0.000 OA
ENDROOT
BRANCH   7  11
ATOM     11  N   UNL     1       5.959   4.474  16.816  0.00  0.00    +0.000 N 
ATOM     12  C   UNL     1       7.153   4.738  17.519  0.00  0.00    +0.000 C 
ATOM     13  O   UNL     1       8.201   4.090  17.421  0.00  0.00    +0.000 OA
BRANCH  12  14
ATOM     14  C   UNL     1       7.226   5.903  18.520  0.00  0.00    +0.000 C 
ATOM     15  O   UNL     1       7.551   7.039  18.238  0.00  0.00    +0.000 OA
BRANCH  14  16
ATOM     16  O   UNL     1       6.885   5.474  19.756  0.00  0.00    +0.000 OA
ATOM     17  H   UNL     1       7.689   5.201  20.252  0.00  0.00    +0.000 HD
ENDBRANCH  14  16
ENDBRANCH  12  14
BRANCH  11  18
ATOM     18  C   UNL     1       6.057   3.491  15.739  0.00  0.00    +0.000 C 
BRANCH  18  19
ATOM     19  C   UNL     1       6.440   4.044  14.373  0.00  0.00    +0.000 A 
ATOM     20  C   UNL     1       7.339   5.114  14.280  0.00  0.00    +0.000 A 
ATOM     21  C   UNL     1       7.862   5.505  13.040  0.00  0.00    +0.000 A 
ATOM     22  C   UNL     1       7.471   4.859  11.870  0.00  0.00    +0.000 A 
ATOM     23  C   UNL     1       6.522   3.843  11.932  0.00  0.00    +0.000 A 
ATOM     24  C   UNL     1       6.011   3.441  13.174  0.00  0.00    +0.000 A 
ENDBRANCH  18  19
ENDBRANCH  11  18
ENDBRANCH   7  11
BRANCH   1  25
ATOM     25  C   UNL     1       1.092  10.014  18.543  0.00  0.00    +0.000 C 
BRANCH  25  26
ATOM     26  O   UNL     1      -0.309  10.021  18.906  0.00  0.00    +0.000 OA
BRANCH  26  30
ATOM     27  C   UNL     1      -1.424  12.588  22.066  0.00  0.00    +0.000 A 
ATOM     28  C   UNL     1      -1.956  12.799  20.792  0.00  0.00    +0.000 A 
ATOM     29  C   UNL     1      -1.577  11.986  19.710  0.00  0.00    +0.000 A 
ATOM     30  C   UNL     1      -0.681  10.928  19.883  0.00  0.00    +0.000 A 
ATOM     31  C   UNL     1      -0.123  10.740  21.155  0.00  0.00    +0.000 A 
ATOM     32  C   UNL     1      -0.489  11.561  22.242  0.00  0.00    +0.000 A 
BRANCH  27  34
ATOM     33  N   UNL     1      -1.037  14.146  23.871  0.00  0.00    +0.000 NA
ATOM     34  C   UNL     1      -1.891  13.438  23.207  0.00  0.00    +0.000 C 
ATOM     35  N   UNL     1      -3.209  13.462  23.564  0.00  0.00    +0.000 N 
ATOM     36  H   UNL     1      -1.517  14.691  24.590  0.00  0.00    +0.000 HD
ATOM     37  H   UNL     1      -3.405  13.797  24.499  0.00  0.00    +0.000 HD
ATOM     38  H   UNL     1      -3.734  12.621  23.350  0.00  0.00    +0.000 HD
ENDBRANCH  27  34
ENDBRANCH  26  30
ENDBRANCH  25  26
ENDBRANCH   1  25
TORSDOF 9
ENDMDL
MODEL 5
REMARK VINA RESULT:      -8.5      1.300      1.688
REMARK  Name = 
REMARK  9 active torsions:
REMARK  status: ('A' for Active; 'I' for Inactive)
REMARK    1  A    between atoms: C_2  and  C_4
REMARK    2  A    between atoms: C_7  and  O_8
REMARK    3  A    between atoms: O_8  and  C_9
REMARK    4  A    between atoms: C_9  and  C_10
REMARK    5  A    between atoms: C_16  and  N_17
REMARK    6  A    between atoms: N_17  and  C_18
REMARK    7  A    between atoms: C_18  and  C_19
REMARK    8  A    between atoms: C_25  and  C_27
REMARK    9  A    between atoms: C_27  and  O_29
REMARK                            x       y       z     vdW  Elec       q    Type
REMARK                         _______ _______ _______ _____ _____    ______ ____
ROOT
ATOM      1  C   UNL     1       1.728   8.625  18.119  0.00  0.00    +0.000 C 
ATOM      2  C   UNL     1       2.067   8.235  19.557  0.00  0.00    +0.000 C 
ATOM      3  O   UNL     1       2.034   6.805  19.586  0.00  0.00    +0.000 OA
ATOM      4  C   UNL     1       2.784   6.301  18.551  0.00  0.00    +0.000 A 
ATOM      5  C   UNL     1       2.889   4.926  18.505  0.00  0.00    +0.000 A 
ATOM      6  C   UNL     1       3.835   4.344  17.678  0.00  0.00    +0.000 A 
ATOM      7  C   UNL     1       4.803   5.134  17.056  0.00  0.00    +0.000 A 
ATOM      8  C   UNL     1       4.537   6.522  16.904  0.00  0.00    +0.000 A 
ATOM      9  C   UNL     1       3.433   7.091  17.596  0.00  0.00    +0.000 A 
ATOM     10  O   UNL     1       2.992   8.409  17.384  0.00  0.00    +0.000 OA
ENDROOT
BRANCH   7  11
ATOM     11  N   UNL     1       6.048   4.468  16.773  0.00  0.00    +0.000 N 
ATOM     12  C   UNL     1       7.207   4.723  17.536  0.00  0.00    +0.000 C 
ATOM     13  O   UNL     1       8.255   4.071  17.489  0.00  0.00    +0.000 OA
BRANCH  12  14
ATOM     14  C   UNL     1       7.235   5.886  18.543  0.00  0.00    +0.000 C 
ATOM     15  O   UNL     1       7.628   7.008  18.294  0.00  0.00    +0.000 OA
BRANCH  14  16
ATOM     16  O   UNL     1       6.766   5.473  19.742  0.00  0.00    +0.000 OA
ATOM     17  H   UNL     1       7.502   5.419  20.391  0.00  0.00    +0.000 HD
ENDBRANCH  14  16
ENDBRANCH  12  14
BRANCH  11  18
ATOM     18  C   UNL     1       6.196   3.487  15.701  0.00  0.00    +0.000 C 
BRANCH  18  19
ATOM     19  C   UNL     1       6.518   4.055  14.325  0.00  0.00    +0.000 A 
ATOM     20  C   UNL     1       7.443   5.100  14.201  0.00  0.00    +0.000 A 
ATOM     21  C   UNL     1       7.907   5.499  12.940  0.00  0.00    +0.000 A 
ATOM     22  C   UNL     1       7.431   4.889  11.783  0.00  0.00    +0.000 A 
ATOM     23  C   UNL     1       6.456   3.901  11.880  0.00  0.00    +0.000 A 
ATOM     24  C   UNL     1       6.003   3.490  13.141  0.00  0.00    +0.000 A 
ENDBRANCH  18  19
ENDBRANCH  11  18
ENDBRANCH   7  11
BRANCH   1  25
ATOM     25  C   UNL     1       1.100  10.042  18.111  0.00  0.00    +0.000 C 
BRANCH  25  26
ATOM     26  O   UNL     1       1.102  10.685  19.408  0.00  0.00    +0.000 OA
BRANCH  26  30
ATOM     27  C   UNL     1      -2.602  12.413  20.462  0.00  0.00    +0.000 A 
ATOM     28  C   UNL     1      -1.655  12.163  21.458  0.00  0.00    +0.000 A 
ATOM     29  C   UNL     1      -0.427  11.555  21.147  0.00  0.00    +0.000 A 
ATOM     30  C   UNL     1      -0.107  11.209  19.831  0.00  0.00    +0.000 A 
ATOM     31  C   UNL     1      -1.074  11.430  18.840  0.00  0.00    +0.000 A 
ATOM     32  C   UNL     1      -2.313  12.028  19.148  0.00  0.00    +0.000 A 
BRANCH  27  34
ATOM     33  N   UNL     1      -4.539  13.747  19.909  0.00  0.00    +0.000 NA
ATOM     34  C   UNL     1      -3.877  13.112  20.820  0.00  0.00    +0.000 C 
ATOM     35  N   UNL     1      -4.342  13.098  22.105  0.00  0.00    +0.000 N 
ATOM     36  H   UNL     1      -5.396  14.137  20.305  0.00  0.00    +0.000 HD
ATOM     37  H   UNL     1      -5.014  13.820  22.336  0.00  0.00    +0.000 HD
ATOM     38  H   UNL     1      -3.634  13.001  22.823  0.00  0.00    +0.000 HD
ENDBRANCH  27  34
ENDBRANCH  26  30
ENDBRANCH  25  26
ENDBRANCH   1  25
TORSDOF 9
ENDMDL
MODEL 6
REMARK VINA RESULT:      -8.5      2.521      9.908
REMARK  Name = 
REMARK  9 active torsions:
REMARK  status: ('A' for Active; 'I' for Inactive)
REMARK    1  A    between atoms: C_2  and  C_4
REMARK    2  A    between atoms: C_7  and  O_8
REMARK    3  A    between atoms: O_8  and  C_9
REMARK    4  A    between atoms: C_9  and  C_10
REMARK    5  A    between atoms: C_16  and  N_17
REMARK    6  A    between atoms: N_17  and  C_18
REMARK    7  A    between atoms: C_18  and  C_19
REMARK    8  A    between atoms: C_25  and  C_27
REMARK    9  A    between atoms: C_27  and  O_29
REMARK                            x       y       z     vdW  Elec       q    Type
REMARK                         _______ _______ _______ _____ _____    ______ ____
ROOT
ATOM      1  C   UNL     1       2.942   6.464  19.930  0.00  0.00    +0.000 C 
ATOM      2  C   UNL     1       1.618   5.892  20.435  0.00  0.00    +0.000 C 
ATOM      3  O   UNL     1       1.143   6.822  21.412  0.00  0.00    +0.000 OA
ATOM      4  C   UNL     1       1.179   8.096  20.897  0.00  0.00    +0.000 A 
ATOM      5  C   UNL     1       0.682   9.086  21.719  0.00  0.00    +0.000 A 
ATOM      6  C   UNL     1       0.423  10.341  21.192  0.00  0.00    +0.000 A 
ATOM      7  C   UNL     1       0.468  10.544  19.812  0.00  0.00    +0.000 A 
ATOM      8  C   UNL     1       1.210   9.622  19.025  0.00  0.00    +0.000 A 
ATOM      9  C   UNL     1       1.660   8.413  19.622  0.00  0.00    +0.000 A 
ATOM     10  O   UNL     1       2.533   7.518  18.978  0.00  0.00    +0.000 OA
ENDROOT
BRANCH   7  11
ATOM     11  N   UNL     1      -0.382  11.596  19.320  0.00  0.00    +0.000 N 
ATOM     12  C   UNL     1       0.156  12.756  18.724  0.00  0.00    +0.000 C 
ATOM     13  O   UNL     1      -0.490  13.613  18.111  0.00  0.00    +0.000 OA
BRANCH  12  14
ATOM     14  C   UNL     1       1.667  13.035  18.789  0.00  0.00    +0.000 C 
ATOM     15  O   UNL     1       2.464  12.739  17.921  0.00  0.00    +0.000 OA
BRANCH  14  16
ATOM     16  O   UNL     1       1.976  13.648  19.954  0.00  0.00    +0.000 OA
ATOM     17  H   UNL     1       2.752  13.211  20.369  0.00  0.00    +0.000 HD
ENDBRANCH  14  16
ENDBRANCH  12  14
BRANCH  11  18
ATOM     18  C   UNL     1      -1.840  11.534  19.390  0.00  0.00    +0.000 C 
BRANCH  18  19
ATOM     19  C   UNL     1      -2.543  11.068  18.123  0.00  0.00    +0.000 A 
ATOM     20  C   UNL     1      -3.793  11.601  17.781  0.00  0.00    +0.000 A 
ATOM     21  C   UNL     1      -4.363  11.343  16.527  0.00  0.00    +0.000 A 
ATOM     22  C   UNL     1      -3.714  10.523  15.608  0.00  0.00    +0.000 A 
ATOM     23  C   UNL     1      -2.507   9.923  15.956  0.00  0.00    +0.000 A 
ATOM     24  C   UNL     1      -1.930  10.193  17.204  0.00  0.00    +0.000 A 
ENDBRANCH  18  19
ENDBRANCH  11  18
ENDBRANCH   7  11
BRANCH   1  25
ATOM     25  C   UNL     1       3.834   5.306  19.415  0.00  0.00    +0.000 C 
BRANCH  25  26
ATOM     26  O   UNL     1       3.362   4.715  18.180  0.00  0.00    +0.000 OA
BRANCH  26  30
ATOM     27  C   UNL     1       6.064   4.716  14.938  0.00  0.00    +0.000 A 
ATOM     28  C   UNL     1       5.616   3.498  15.456  0.00  0.00    +0.000 A 
ATOM     29  C   UNL     1       4.746   3.462  16.558  0.00  0.00    +0.000 A 
ATOM     30  C   UNL     1       4.282   4.641  17.149  0.00  0.00    +0.000 A 
ATOM     31  C   UNL     1       4.760   5.859  16.648  0.00  0.00    +0.000 A 
ATOM     32  C   UNL     1       5.645   5.902  15.551  0.00  0.00    +0.000 A 
BRANCH  27  34
ATOM     33  N   UNL     1       7.920   5.567  13.647  0.00  0.00    +0.000 NA
ATOM     34  C   UNL     1       6.948   4.719  13.729  0.00  0.00    +0.000 C 
ATOM     35  N   UNL     1       6.728   3.843  12.703  0.00  0.00    +0.000 N 
ATOM     36  H   UNL     1       8.444   5.417  12.782  0.00  0.00    +0.000 HD
ATOM     37  H   UNL     1       7.146   4.094  11.816  0.00  0.00    +0.000 HD
ATOM     38  H   UNL     1       5.769   3.535  12.592  0.00  0.00    +0.000 HD
ENDBRANCH  27  34
ENDBRANCH  26  30
ENDBRANCH  25  26
ENDBRANCH   1  25
TORSDOF 9
ENDMDL
MODEL 7
REMARK VINA RESULT:      -8.5      0.435      1.358
REMARK  Name = 
REMARK  9 active torsions:
REMARK  status: ('A' for Active; 'I' for Inactive)
REMARK    1  A    between atoms: C_2  and  C_4
REMARK    2  A    between atoms: C_7  and  O_8
REMARK    3  A    between atoms: O_8  and  C_9
REMARK    4  A    between atoms: C_9  and  C_10
REMARK    5  A    between atoms: C_16  and  N_17
REMARK    6  A    between atoms: N_17  and  C_18
REMARK    7  A    between atoms: C_18  and  C_19
REMARK    8  A    between atoms: C_25  and  C_27
REMARK    9  A    between atoms: C_27  and  O_29
REMARK                            x       y       z     vdW  Elec       q    Type
REMARK                         _______ _______ _______ _____ _____    ______ ____
ROOT
ATOM      1  C   UNL     1       1.775   8.757  18.463  0.00  0.00    +0.000 C 
ATOM      2  C   UNL     1       2.049   8.193  19.857  0.00  0.00    +0.000 C 
ATOM      3  O   UNL     1       1.934   6.773  19.728  0.00  0.00    +0.000 OA
ATOM      4  C   UNL     1       2.684   6.341  18.662  0.00  0.00    +0.000 A 
ATOM      5  C   UNL     1       2.713   4.975  18.468  0.00  0.00    +0.000 A 
ATOM      6  C   UNL     1       3.648   4.431  17.603  0.00  0.00    +0.000 A 
ATOM      7  C   UNL     1       4.677   5.224  17.095  0.00  0.00    +0.000 A 
ATOM      8  C   UNL     1       4.495   6.634  17.090  0.00  0.00    +0.000 A 
ATOM      9  C   UNL     1       3.405   7.189  17.814  0.00  0.00    +0.000 A 
ATOM     10  O   UNL     1       3.046   8.547  17.739  0.00  0.00    +0.000 OA
ENDROOT
BRANCH   7  11
ATOM     11  N   UNL     1       5.890   4.519  16.769  0.00  0.00    +0.000 N 
ATOM     12  C   UNL     1       7.088   4.758  17.474  0.00  0.00    +0.000 C 
ATOM     13  O   UNL     1       8.116   4.076  17.393  0.00  0.00    +0.000 OA
BRANCH  12  14
ATOM     14  C   UNL     1       7.193   5.937  18.456  0.00  0.00    +0.000 C 
ATOM     15  O   UNL     1       7.519   7.066  18.150  0.00  0.00    +0.000 OA
BRANCH  14  16
ATOM     16  O   UNL     1       6.876   5.529  19.706  0.00  0.00    +0.000 OA
ATOM     17  H   UNL     1       7.641   5.665  20.308  0.00  0.00    +0.000 HD
ENDBRANCH  14  16
ENDBRANCH  12  14
BRANCH  11  18
ATOM     18  C   UNL     1       5.963   3.515  15.710  0.00  0.00    +0.000 C 
BRANCH  18  19
ATOM     19  C   UNL     1       6.584   3.981  14.400  0.00  0.00    +0.000 A 
ATOM     20  C   UNL     1       6.230   3.355  13.198  0.00  0.00    +0.000 A 
ATOM     21  C   UNL     1       6.627   3.893  11.967  0.00  0.00    +0.000 A 
ATOM     22  C   UNL     1       7.412   5.042  11.914  0.00  0.00    +0.000 A 
ATOM     23  C   UNL     1       7.839   5.635  13.099  0.00  0.00    +0.000 A 
ATOM     24  C   UNL     1       7.428   5.107  14.330  0.00  0.00    +0.000 A 
ENDBRANCH  18  19
ENDBRANCH  11  18
ENDBRANCH   7  11
BRANCH   1  25
ATOM     25  C   UNL     1       1.229  10.201  18.597  0.00  0.00    +0.000 C 
BRANCH  25  26
ATOM     26  O   UNL     1       0.175  10.335  19.580  0.00  0.00    +0.000 OA
BRANCH  26  30
ATOM     27  C   UNL     1      -3.687  11.514  18.351  0.00  0.00    +0.000 A 
ATOM     28  C   UNL     1      -3.043  10.473  17.679  0.00  0.00    +0.000 A 
ATOM     29  C   UNL     1      -1.743  10.080  18.039  0.00  0.00    +0.000 A 
ATOM     30  C   UNL     1      -1.069  10.700  19.094  0.00  0.00    +0.000 A 
ATOM     31  C   UNL     1      -1.705  11.767  19.743  0.00  0.00    +0.000 A 
ATOM     32  C   UNL     1      -3.004  12.175  19.378  0.00  0.00    +0.000 A 
BRANCH  27  34
ATOM     33  N   UNL     1      -5.486  11.736  16.753  0.00  0.00    +0.000 NA
ATOM     34  C   UNL     1      -5.093  11.870  17.978  0.00  0.00    +0.000 C 
ATOM     35  N   UNL     1      -5.963  12.350  18.916  0.00  0.00    +0.000 N 
ATOM     36  H   UNL     1      -6.473  11.987  16.672  0.00  0.00    +0.000 HD
ATOM     37  H   UNL     1      -6.768  12.846  18.555  0.00  0.00    +0.000 HD
ATOM     38  H   UNL     1      -5.537  12.841  19.694  0.00  0.00    +0.000 HD
ENDBRANCH  27  34
ENDBRANCH  26  30
ENDBRANCH  25  26
ENDBRANCH   1  25
TORSDOF 9
ENDMDL
MODEL 8
REMARK VINA RESULT:      -8.4      2.551      3.166
REMARK  Name = 
REMARK  9 active torsions:
REMARK  status: ('A' for Active; 'I' for Inactive)
REMARK    1  A    between atoms: C_2  and  C_4
REMARK    2  A    between atoms: C_7  and  O_8
REMARK    3  A    between atoms: O_8  and  C_9
REMARK    4  A    between atoms: C_9  and  C_10
REMARK    5  A    between atoms: C_16  and  N_17
REMARK    6  A    between atoms: N_17  and  C_18
REMARK    7  A    between atoms: C_18  and  C_19
REMARK    8  A    between atoms: C_25  and  C_27
REMARK    9  A    between atoms: C_27  and  O_29
REMARK                            x       y       z     vdW  Elec       q    Type
REMARK                         _______ _______ _______ _____ _____    ______ ____
ROOT
ATOM      1  C   UNL     1       1.770   8.640  18.455  0.00  0.00    +0.000 C 
ATOM      2  C   UNL     1       2.041   8.077  19.850  0.00  0.00    +0.000 C 
ATOM      3  O   UNL     1       1.954   6.655  19.715  0.00  0.00    +0.000 OA
ATOM      4  C   UNL     1       2.723   6.240  18.655  0.00  0.00    +0.000 A 
ATOM      5  C   UNL     1       2.780   4.877  18.457  0.00  0.00    +0.000 A 
ATOM      6  C   UNL     1       3.734   4.352  17.601  0.00  0.00    +0.000 A 
ATOM      7  C   UNL     1       4.754   5.167  17.106  0.00  0.00    +0.000 A 
ATOM      8  C   UNL     1       4.545   6.573  17.104  0.00  0.00    +0.000 A 
ATOM      9  C   UNL     1       3.436   7.105  17.818  0.00  0.00    +0.000 A 
ATOM     10  O   UNL     1       3.053   8.456  17.743  0.00  0.00    +0.000 OA
ENDROOT
BRANCH   7  11
ATOM     11  N   UNL     1       5.983   4.487  16.791  0.00  0.00    +0.000 N 
ATOM     12  C   UNL     1       7.165   4.732  17.521  0.00  0.00    +0.000 C 
ATOM     13  O   UNL     1       8.205   4.068  17.447  0.00  0.00    +0.000 OA
BRANCH  12  14
ATOM     14  C   UNL     1       7.233   5.898  18.523  0.00  0.00    +0.000 C 
ATOM     15  O   UNL     1       7.631   7.015  18.259  0.00  0.00    +0.000 OA
BRANCH  14  16
ATOM     16  O   UNL     1       6.794   5.493  19.736  0.00  0.00    +0.000 OA
ATOM     17  H   UNL     1       5.822   5.619  19.801  0.00  0.00    +0.000 HD
ENDBRANCH  14  16
ENDBRANCH  12  14
BRANCH  11  18
ATOM     18  C   UNL     1       6.090   3.501  15.718  0.00  0.00    +0.000 C 
BRANCH  18  19
ATOM     19  C   UNL     1       6.452   4.054  14.346  0.00  0.00    +0.000 A 
ATOM     20  C   UNL     1       7.354   5.120  14.239  0.00  0.00    +0.000 A 
ATOM     21  C   UNL     1       7.857   5.510  12.990  0.00  0.00    +0.000 A 
ATOM     22  C   UNL     1       7.442   4.869  11.827  0.00  0.00    +0.000 A 
ATOM     23  C   UNL     1       6.488   3.857  11.904  0.00  0.00    +0.000 A 
ATOM     24  C   UNL     1       5.998   3.456  13.154  0.00  0.00    +0.000 A 
ENDBRANCH  18  19
ENDBRANCH  11  18
ENDBRANCH   7  11
BRANCH   1  25
ATOM     25  C   UNL     1       1.196  10.073  18.587  0.00  0.00    +0.000 C 
BRANCH  25  26
ATOM     26  O   UNL     1       2.122  11.109  18.183  0.00  0.00    +0.000 OA
BRANCH  26  30
ATOM     27  C   UNL     1       0.686  15.023  18.841  0.00  0.00    +0.000 A 
ATOM     28  C   UNL     1       2.048  14.825  18.601  0.00  0.00    +0.000 A 
ATOM     29  C   UNL     1       2.564  13.532  18.415  0.00  0.00    +0.000 A 
ATOM     30  C   UNL     1       1.729  12.412  18.437  0.00  0.00    +0.000 A 
ATOM     31  C   UNL     1       0.369  12.612  18.713  0.00  0.00    +0.000 A 
ATOM     32  C   UNL     1      -0.153  13.906  18.914  0.00  0.00    +0.000 A 
BRANCH  27  34
ATOM     33  N   UNL     1       0.326  17.059  20.092  0.00  0.00    +0.000 NA
ATOM     34  C   UNL     1       0.161  16.419  18.981  0.00  0.00    +0.000 C 
ATOM     35  N   UNL     1      -0.504  17.019  17.949  0.00  0.00    +0.000 N 
ATOM     36  H   UNL     1      -0.057  18.003  20.014  0.00  0.00    +0.000 HD
ATOM     37  H   UNL     1      -1.083  17.810  18.203  0.00  0.00    +0.000 HD
ATOM     38  H   UNL     1      -0.985  16.390  17.316  0.00  0.00    +0.000 HD
ENDBRANCH  27  34
ENDBRANCH  26  30
ENDBRANCH  25  26
ENDBRANCH   1  25
TORSDOF 9
ENDMDL
MODEL 9
REMARK VINA RESULT:      -8.3      2.296      3.551
REMARK  Name = 
REMARK  9 active torsions:
REMARK  status: ('A' for Active; 'I' for Inactive)
REMARK    1  A    between atoms: C_2  and  C_4
REMARK    2  A    between atoms: C_7  and  O_8
REMARK    3  A    between atoms: O_8  and  C_9
REMARK    4  A    between atoms: C_9  and  C_10
REMARK    5  A    between atoms: C_16  and  N_17
REMARK    6  A    between atoms: N_17  and  C_18
REMARK    7  A    between atoms: C_18  and  C_19
REMARK    8  A    between atoms: C_25  and  C_27
REMARK    9  A    between atoms: C_27  and  O_29
REMARK                            x       y       z     vdW  Elec       q    Type
REMARK                         _______ _______ _______ _____ _____    ______ ____
ROOT
ATOM      1  C   UNL     1       0.438  10.465  19.241  0.00  0.00    +0.000 C 
ATOM      2  C   UNL     1       1.305  10.704  20.477  0.00  0.00    +0.000 C 
ATOM      3  O   UNL     1       1.161   9.529  21.281  0.00  0.00    +0.000 OA
ATOM      4  C   UNL     1       1.372   8.411  20.511  0.00  0.00    +0.000 A 
ATOM      5  C   UNL     1       1.329   7.207  21.184  0.00  0.00    +0.000 A 
ATOM      6  C   UNL     1       1.796   6.062  20.560  0.00  0.00    +0.000 A 
ATOM      7  C   UNL     1       2.487   6.155  19.351  0.00  0.00    +0.000 A 
ATOM      8  C   UNL     1       2.303   7.325  18.565  0.00  0.00    +0.000 A 
ATOM      9  C   UNL     1       1.636   8.442  19.138  0.00  0.00    +0.000 A 
ATOM     10  O   UNL     1       1.264   9.576  18.395  0.00  0.00    +0.000 OA
ENDROOT
BRANCH   7  11
ATOM     11  N   UNL     1       3.441   5.105  19.109  0.00  0.00    +0.000 N 
ATOM     12  C   UNL     1       3.026   3.806  18.746  0.00  0.00    +0.000 C 
ATOM     13  O   UNL     1       3.766   2.903  18.340  0.00  0.00    +0.000 OA
BRANCH  12  14
ATOM     14  C   UNL     1       1.540   3.414  18.823  0.00  0.00    +0.000 C 
ATOM     15  O   UNL     1       1.007   2.905  19.788  0.00  0.00    +0.000 OA
BRANCH  14  16
ATOM     16  O   UNL     1       0.922   3.711  17.658  0.00  0.00    +0.000 OA
ATOM     17  H   UNL     1       0.044   3.272  17.621  0.00  0.00    +0.000 HD
ENDBRANCH  14  16
ENDBRANCH  12  14
BRANCH  11  18
ATOM     18  C   UNL     1       4.885   5.307  19.207  0.00  0.00    +0.000 C 
BRANCH  18  19
ATOM     19  C   UNL     1       5.640   5.333  17.885  0.00  0.00    +0.000 A 
ATOM     20  C   UNL     1       6.866   4.667  17.768  0.00  0.00    +0.000 A 
ATOM     21  C   UNL     1       7.477   4.504  16.517  0.00  0.00    +0.000 A 
ATOM     22  C   UNL     1       6.893   5.032  15.369  0.00  0.00    +0.000 A 
ATOM     23  C   UNL     1       5.713   5.763  15.474  0.00  0.00    +0.000 A 
ATOM     24  C   UNL     1       5.094   5.912  16.722  0.00  0.00    +0.000 A 
ENDBRANCH  18  19
ENDBRANCH  11  18
ENDBRANCH   7  11
BRANCH   1  25
ATOM     25  C   UNL     1      -0.011  11.830  18.662  0.00  0.00    +0.000 C 
BRANCH  25  26
ATOM     26  O   UNL     1      -0.974  12.523  19.491  0.00  0.00    +0.000 OA
BRANCH  26  30
ATOM     27  C   UNL     1      -4.987  11.746  18.438  0.00  0.00    +0.000 A 
ATOM     28  C   UNL     1      -4.706  12.356  19.663  0.00  0.00    +0.000 A 
ATOM     29  C   UNL     1      -3.380  12.595  20.061  0.00  0.00    +0.000 A 
ATOM     30  C   UNL     1      -2.307  12.256  19.232  0.00  0.00    +0.000 A 
ATOM     31  C   UNL     1      -2.591  11.614  18.019  0.00  0.00    +0.000 A 
ATOM     32  C   UNL     1      -3.919  11.359  17.620  0.00  0.00    +0.000 A 
BRANCH  27  34
ATOM     33  N   UNL     1      -6.908  12.284  17.075  0.00  0.00    +0.000 NA
ATOM     34  C   UNL     1      -6.413  11.556  18.022  0.00  0.00    +0.000 C 
ATOM     35  N   UNL     1      -7.202  10.630  18.643  0.00  0.00    +0.000 N 
ATOM     36  H   UNL     1      -7.874  12.009  16.890  0.00  0.00    +0.000 HD
ATOM     37  H   UNL     1      -8.200  10.761  18.535  0.00  0.00    +0.000 HD
ATOM     38  H   UNL     1      -6.953  10.419  19.603  0.00  0.00    +0.000 HD
ENDBRANCH  27  34
ENDBRANCH  26  30
ENDBRANCH  25  26
ENDBRANCH   1  25
TORSDOF 9
ENDMDL
