MODEL 1
REMARK VINA RESULT:      -8.0      0.000      0.000
REMARK  Name = 
REMARK  11 active torsions:
REMARK  status: ('A' for Active; 'I' for Inactive)
REMARK    1  A    between atoms: C_1  and  C_2
REMARK    2  A    between atoms: C_2  and  N_3
REMARK    3  A    between atoms: C_4  and  C_6
REMARK    4  A    between atoms: C_8  and  N_9
REMARK    5  A    between atoms: N_14  and  O_15
REMARK    6  A    between atoms: O_15  and  C_16
REMARK    7  A    between atoms: C_18  and  C_19
REMARK    8  A    between atoms: C_20  and  C_21
REMARK    9  A    between atoms: C_24  and  C_25
REMARK   10  A    between atoms: C_30  and  O_31
REMARK   11  A    between atoms: C_32  and  O_33
REMARK                            x       y       z     vdW  Elec       q    Type
REMARK                         _______ _______ _______ _____ _____    ______ ____
ROOT
ATOM      1  N   UNL     1       4.328   5.672  18.235  0.00  0.00    +0.000 N 
ATOM      2  C   UNL     1       3.926   4.664  17.396  0.00  0.00    +0.000 A 
ATOM      3  N   UNL     1       4.699   4.572  16.335  0.00  0.00    +0.000 NA
ATOM      4  C   UNL     1       5.668   5.539  16.524  0.00  0.00    +0.000 A 
ATOM      5  C   UNL     1       6.767   5.928  15.739  0.00  0.00    +0.000 A 
ATOM      6  N   UNL     1       6.981   5.351  14.471  0.00  0.00    +0.000 N 
ATOM      7  N   UNL     1       7.584   6.907  16.227  0.00  0.00    +0.000 NA
ATOM      8  C   UNL     1       7.285   7.469  17.417  0.00  0.00    +0.000 A 
ATOM      9  N   UNL     1       6.226   7.209  18.220  0.00  0.00    +0.000 NA
ATOM     10  C   UNL     1       5.467   6.222  17.712  0.00  0.00    +0.000 A 
ATOM     11  H   UNL     1       6.414   4.509  14.361  0.00  0.00    +0.000 HD
ENDROOT
BRANCH   1  14
ATOM     12  C   UNL     1       2.294   4.946  20.987  0.00  0.00    +0.000 C 
ATOM     13  O   UNL     1       3.568   4.910  20.325  0.00  0.00    +0.000 OA
ATOM     14  C   UNL     1       3.651   6.052  19.454  0.00  0.00    +0.000 C 
ATOM     15  C   UNL     1       2.244   6.596  19.247  0.00  0.00    +0.000 C 
ATOM     16  C   UNL     1       1.572   6.230  20.560  0.00  0.00    +0.000 C 
BRANCH  12  18
ATOM     17  N   UNL     1       1.101   3.467  19.422  0.00  0.00    +0.000 N 
ATOM     18  C   UNL     1       1.424   3.699  20.746  0.00  0.00    +0.000 C 
ATOM     19  O   UNL     1       1.133   2.920  21.648  0.00  0.00    +0.000 OA
ATOM     20  H   UNL     1       1.035   4.293  18.834  0.00  0.00    +0.000 HD
BRANCH  17  22
ATOM     21  C   UNL     1       1.121   1.211  18.411  0.00  0.00    +0.000 C 
ATOM     22  C   UNL     1       0.311   2.300  19.085  0.00  0.00    +0.000 C 
ENDBRANCH  17  22
ENDBRANCH  12  18
BRANCH  15  23
ATOM     23  O   UNL     1       2.259   8.008  19.026  0.00  0.00    +0.000 OA
ATOM     24  H   UNL     1       1.516   8.199  18.415  0.00  0.00    +0.000 HD
ENDBRANCH  15  23
BRANCH  16  25
ATOM     25  O   UNL     1       1.772   7.320  21.484  0.00  0.00    +0.000 OA
ATOM     26  H   UNL     1       1.112   7.272  22.198  0.00  0.00    +0.000 HD
ENDBRANCH  16  25
ENDBRANCH   1  14
BRANCH   6  27
ATOM     27  O   UNL     1       8.293   5.214  14.016  0.00  0.00    +0.000 OA
ATOM     28  C   UNL     1       8.303   5.637  12.656  0.00  0.00    +0.000 C 
ENDBRANCH   6  27
BRANCH   8  29
ATOM     29  C   UNL     1       8.134   8.542  17.843  0.00  0.00    +0.000 C 
ATOM     30  C   UNL     1       8.775   9.484  18.253  0.00  0.00    +0.000 C 
BRANCH  30  31
ATOM     31  C   UNL     1       9.421  10.641  18.812  0.00  0.00    +0.000 A 
ATOM     32  C   UNL     1       9.494  10.808  20.198  0.00  0.00    +0.000 A 
ATOM     33  C   UNL     1      10.010  11.989  20.749  0.00  0.00    +0.000 A 
ATOM     34  C   UNL     1      10.478  13.019  19.927  0.00  0.00    +0.000 A 
ATOM     35  C   UNL     1      11.018  14.296  20.508  0.00  0.00    +0.000 C 
ATOM     36  C   UNL     1      10.436  12.837  18.538  0.00  0.00    +0.000 A 
ATOM     37  C   UNL     1       9.908  11.659  17.985  0.00  0.00    +0.000 A 
ENDBRANCH  30  31
ENDBRANCH   8  29
TORSDOF 8
ENDMDL
MODEL 2
REMARK VINA RESULT:      -7.4      1.919      2.187
REMARK  Name = 
REMARK  11 active torsions:
REMARK  status: ('A' for Active; 'I' for Inactive)
REMARK    1  A    between atoms: C_1  and  C_2
REMARK    2  A    between atoms: C_2  and  N_3
REMARK    3  A    between atoms: C_4  and  C_6
REMARK    4  A    between atoms: C_8  and  N_9
REMARK    5  A    between atoms: N_14  and  O_15
REMARK    6  A    between atoms: O_15  and  C_16
REMARK    7  A    between atoms: C_18  and  C_19
REMARK    8  A    between atoms: C_20  and  C_21
REMARK    9  A    between atoms: C_24  and  C_25
REMARK   10  A    between atoms: C_30  and  O_31
REMARK   11  A    between atoms: C_32  and  O_33
REMARK                            x       y       z     vdW  Elec       q    Type
REMARK                         _______ _______ _______ _____ _____    ______ ____
ROOT
ATOM      1  N   UNL     1       4.285   4.870  17.565  0.00  0.00    +0.000 N 
ATOM      2  C   UNL     1       4.069   3.917  16.604  0.00  0.00    +0.000 A 
ATOM      3  N   UNL     1       4.934   4.012  15.616  0.00  0.00    +0.000 NA
ATOM      4  C   UNL     1       5.770   5.050  15.982  0.00  0.00    +0.000 A 
ATOM      5  C   UNL     1       6.880   5.627  15.343  0.00  0.00    +0.000 A 
ATOM      6  N   UNL     1       7.262   5.206  14.054  0.00  0.00    +0.000 N 
ATOM      7  N   UNL     1       7.539   6.631  15.994  0.00  0.00    +0.000 NA
ATOM      8  C   UNL     1       7.081   7.035  17.196  0.00  0.00    +0.000 A 
ATOM      9  N   UNL     1       5.995   6.588  17.870  0.00  0.00    +0.000 NA
ATOM     10  C   UNL     1       5.395   5.585  17.204  0.00  0.00    +0.000 A 
ATOM     11  H   UNL     1       6.804   4.326  13.815  0.00  0.00    +0.000 HD
ENDROOT
BRANCH   1  14
ATOM     12  C   UNL     1       3.274   3.954  20.787  0.00  0.00    +0.000 C 
ATOM     13  O   UNL     1       4.200   4.600  19.899  0.00  0.00    +0.000 OA
ATOM     14  C   UNL     1       3.470   5.053  18.745  0.00  0.00    +0.000 C 
ATOM     15  C   UNL     1       2.136   4.320  18.707  0.00  0.00    +0.000 C 
ATOM     16  C   UNL     1       1.870   4.082  20.184  0.00  0.00    +0.000 C 
BRANCH  12  18
ATOM     17  N   UNL     1       4.784   2.031  20.509  0.00  0.00    +0.000 N 
ATOM     18  C   UNL     1       3.624   2.489  21.104  0.00  0.00    +0.000 C 
ATOM     19  O   UNL     1       2.978   1.821  21.905  0.00  0.00    +0.000 OA
ATOM     20  H   UNL     1       5.024   2.463  19.621  0.00  0.00    +0.000 HD
BRANCH  17  22
ATOM     21  C   UNL     1       6.054   0.551  22.029  0.00  0.00    +0.000 C 
ATOM     22  C   UNL     1       5.219   0.673  20.770  0.00  0.00    +0.000 C 
ENDBRANCH  17  22
ENDBRANCH  12  18
BRANCH  15  23
ATOM     23  O   UNL     1       1.120   5.119  18.099  0.00  0.00    +0.000 OA
ATOM     24  H   UNL     1       0.510   4.496  17.651  0.00  0.00    +0.000 HD
ENDBRANCH  15  23
BRANCH  16  25
ATOM     25  O   UNL     1       1.140   5.217  20.696  0.00  0.00    +0.000 OA
ATOM     26  H   UNL     1       0.941   5.083  21.639  0.00  0.00    +0.000 HD
ENDBRANCH  16  25
ENDBRANCH   1  14
BRANCH   6  27
ATOM     27  O   UNL     1       8.615   5.252  13.713  0.00  0.00    +0.000 OA
ATOM     28  C   UNL     1       8.713   6.026  12.521  0.00  0.00    +0.000 C 
ENDBRANCH   6  27
BRANCH   8  29
ATOM     29  C   UNL     1       7.767   8.141  17.797  0.00  0.00    +0.000 C 
ATOM     30  C   UNL     1       8.332   9.125  18.222  0.00  0.00    +0.000 C 
BRANCH  30  31
ATOM     31  C   UNL     1       8.970  10.357  18.603  0.00  0.00    +0.000 A 
ATOM     32  C   UNL     1       8.891  11.478  17.773  0.00  0.00    +0.000 A 
ATOM     33  C   UNL     1       9.611  12.643  18.075  0.00  0.00    +0.000 A 
ATOM     34  C   UNL     1      10.410  12.714  19.222  0.00  0.00    +0.000 A 
ATOM     35  C   UNL     1      11.198  13.952  19.546  0.00  0.00    +0.000 C 
ATOM     36  C   UNL     1      10.460  11.601  20.071  0.00  0.00    +0.000 A 
ATOM     37  C   UNL     1       9.749  10.429  19.762  0.00  0.00    +0.000 A 
ENDBRANCH  30  31
ENDBRANCH   8  29
TORSDOF 8
ENDMDL
MODEL 3
REMARK VINA RESULT:      -7.4      7.378     10.163
REMARK  Name = 
REMARK  11 active torsions:
REMARK  status: ('A' for Active; 'I' for Inactive)
REMARK    1  A    between atoms: C_1  and  C_2
REMARK    2  A    between atoms: C_2  and  N_3
REMARK    3  A    between atoms: C_4  and  C_6
REMARK    4  A    between atoms: C_8  and  N_9
REMARK    5  A    between atoms: N_14  and  O_15
REMARK    6  A    between atoms: O_15  and  C_16
REMARK    7  A    between atoms: C_18  and  C_19
REMARK    8  A    between atoms: C_20  and  C_21
REMARK    9  A    between atoms: C_24  and  C_25
REMARK   10  A    between atoms: C_30  and  O_31
REMARK   11  A    between atoms: C_32  and  O_33
REMARK                            x       y       z     vdW  Elec       q    Type
REMARK                         _______ _______ _______ _____ _____    ______ ____
ROOT
ATOM      1  N   UNL     1      -2.453  12.243  20.296  0.00  0.00    +0.000 N 
ATOM      2  C   UNL     1      -3.605  12.708  19.714  0.00  0.00    +0.000 A 
ATOM      3  N   UNL     1      -3.741  12.269  18.480  0.00  0.00    +0.000 NA
ATOM      4  C   UNL     1      -2.646  11.451  18.276  0.00  0.00    +0.000 A 
ATOM      5  C   UNL     1      -2.233  10.701  17.162  0.00  0.00    +0.000 A 
ATOM      6  N   UNL     1      -2.942  10.776  15.947  0.00  0.00    +0.000 N 
ATOM      7  N   UNL     1      -1.105   9.942  17.287  0.00  0.00    +0.000 NA
ATOM      8  C   UNL     1      -0.432   9.969  18.457  0.00  0.00    +0.000 A 
ATOM      9  N   UNL     1      -0.711  10.695  19.564  0.00  0.00    +0.000 NA
ATOM     10  C   UNL     1      -1.842  11.404  19.403  0.00  0.00    +0.000 A 
ATOM     11  H   UNL     1      -3.854  11.211  16.091  0.00  0.00    +0.000 HD
ENDROOT
BRANCH   1  14
ATOM     12  C   UNL     1      -3.053  12.982  23.662  0.00  0.00    +0.000 C 
ATOM     13  O   UNL     1      -2.909  12.035  22.593  0.00  0.00    +0.000 OA
ATOM     14  C   UNL     1      -2.001  12.589  21.624  0.00  0.00    +0.000 C 
ATOM     15  C   UNL     1      -1.889  14.086  21.879  0.00  0.00    +0.000 C 
ATOM     16  C   UNL     1      -2.118  14.164  23.379  0.00  0.00    +0.000 C 
BRANCH  12  18
ATOM     17  N   UNL     1      -5.432  12.428  23.965  0.00  0.00    +0.000 N 
ATOM     18  C   UNL     1      -4.501  13.447  23.899  0.00  0.00    +0.000 C 
ATOM     19  O   UNL     1      -4.784  14.621  24.115  0.00  0.00    +0.000 OA
ATOM     20  H   UNL     1      -5.214  11.597  23.423  0.00  0.00    +0.000 HD
BRANCH  17  22
ATOM     21  C   UNL     1      -7.737  12.384  23.069  0.00  0.00    +0.000 C 
ATOM     22  C   UNL     1      -6.820  12.759  24.217  0.00  0.00    +0.000 C 
ENDBRANCH  17  22
ENDBRANCH  12  18
BRANCH  15  23
ATOM     23  O   UNL     1      -0.602  14.583  21.505  0.00  0.00    +0.000 OA
ATOM     24  H   UNL     1      -0.421  15.348  22.090  0.00  0.00    +0.000 HD
ENDBRANCH  15  23
BRANCH  16  25
ATOM     25  O   UNL     1      -0.838  14.039  24.035  0.00  0.00    +0.000 OA
ATOM     26  H   UNL     1      -0.966  13.735  24.950  0.00  0.00    +0.000 HD
ENDBRANCH  16  25
ENDBRANCH   1  14
BRANCH   6  27
ATOM     27  O   UNL     1      -2.977   9.647  15.127  0.00  0.00    +0.000 OA
ATOM     28  C   UNL     1      -3.610  10.039  13.912  0.00  0.00    +0.000 C 
ENDBRANCH   6  27
BRANCH   8  29
ATOM     29  C   UNL     1       0.784   9.211  18.505  0.00  0.00    +0.000 C 
ATOM     30  C   UNL     1       1.763   8.498  18.501  0.00  0.00    +0.000 C 
BRANCH  30  31
ATOM     31  C   UNL     1       2.848   7.556  18.428  0.00  0.00    +0.000 A 
ATOM     32  C   UNL     1       3.749   7.601  17.360  0.00  0.00    +0.000 A 
ATOM     33  C   UNL     1       4.733   6.612  17.215  0.00  0.00    +0.000 A 
ATOM     34  C   UNL     1       4.845   5.570  18.142  0.00  0.00    +0.000 A 
ATOM     35  C   UNL     1       5.886   4.498  17.985  0.00  0.00    +0.000 C 
ATOM     36  C   UNL     1       3.963   5.546  19.230  0.00  0.00    +0.000 A 
ATOM     37  C   UNL     1       2.969   6.529  19.370  0.00  0.00    +0.000 A 
ENDBRANCH  30  31
ENDBRANCH   8  29
TORSDOF 8
ENDMDL
MODEL 4
REMARK VINA RESULT:      -7.2      7.412     10.149
REMARK  Name = 
REMARK  11 active torsions:
REMARK  status: ('A' for Active; 'I' for Inactive)
REMARK    1  A    between atoms: C_1  and  C_2
REMARK    2  A    between atoms: C_2  and  N_3
REMARK    3  A    between atoms: C_4  and  C_6
REMARK    4  A    between atoms: C_8  and  N_9
REMARK    5  A    between atoms: N_14  and  O_15
REMARK    6  A    between atoms: O_15  and  C_16
REMARK    7  A    between atoms: C_18  and  C_19
REMARK    8  A    between atoms: C_20  and  C_21
REMARK    9  A    between atoms: C_24  and  C_25
REMARK   10  A    between atoms: C_30  and  O_31
REMARK   11  A    between atoms: C_32  and  O_33
REMARK                            x       y       z     vdW  Elec       q    Type
REMARK                         _______ _______ _______ _____ _____    ______ ____
ROOT
ATOM      1  N   UNL     1      -2.489  12.282  20.188  0.00  0.00    +0.000 N 
ATOM      2  C   UNL     1      -3.690  12.724  19.694  0.00  0.00    +0.000 A 
ATOM      3  N   UNL     1      -3.923  12.258  18.485  0.00  0.00    +0.000 NA
ATOM      4  C   UNL     1      -2.840  11.446  18.208  0.00  0.00    +0.000 A 
ATOM      5  C   UNL     1      -2.512  10.676  17.079  0.00  0.00    +0.000 A 
ATOM      6  N   UNL     1      -3.320  10.718  15.925  0.00  0.00    +0.000 N 
ATOM      7  N   UNL     1      -1.369   9.930  17.126  0.00  0.00    +0.000 NA
ATOM      8  C   UNL     1      -0.602   9.988  18.235  0.00  0.00    +0.000 A 
ATOM      9  N   UNL     1      -0.796  10.735  19.347  0.00  0.00    +0.000 NA
ATOM     10  C   UNL     1      -1.944  11.431  19.265  0.00  0.00    +0.000 A 
ATOM     11  H   UNL     1      -4.221  11.148  16.136  0.00  0.00    +0.000 HD
ENDROOT
BRANCH   1  14
ATOM     12  C   UNL     1      -2.701  12.628  23.662  0.00  0.00    +0.000 C 
ATOM     13  O   UNL     1      -2.490  11.822  22.493  0.00  0.00    +0.000 OA
ATOM     14  C   UNL     1      -1.932  12.661  21.466  0.00  0.00    +0.000 C 
ATOM     15  C   UNL     1      -2.179  14.113  21.853  0.00  0.00    +0.000 C 
ATOM     16  C   UNL     1      -2.171  14.037  23.371  0.00  0.00    +0.000 C 
BRANCH  12  18
ATOM     17  N   UNL     1      -4.978  13.542  23.466  0.00  0.00    +0.000 N 
ATOM     18  C   UNL     1      -4.161  12.660  24.149  0.00  0.00    +0.000 C 
ATOM     19  O   UNL     1      -4.583  11.888  25.004  0.00  0.00    +0.000 OA
ATOM     20  H   UNL     1      -4.518  14.363  23.085  0.00  0.00    +0.000 HD
BRANCH  17  22
ATOM     21  C   UNL     1      -7.016  14.942  23.429  0.00  0.00    +0.000 C 
ATOM     22  C   UNL     1      -6.380  13.625  23.826  0.00  0.00    +0.000 C 
ENDBRANCH  17  22
ENDBRANCH  12  18
BRANCH  15  23
ATOM     23  O   UNL     1      -1.148  14.968  21.352  0.00  0.00    +0.000 OA
ATOM     24  H   UNL     1      -0.686  14.461  20.652  0.00  0.00    +0.000 HD
ENDBRANCH  15  23
BRANCH  16  25
ATOM     25  O   UNL     1      -0.814  14.231  23.822  0.00  0.00    +0.000 OA
ATOM     26  H   UNL     1      -0.443  13.384  24.126  0.00  0.00    +0.000 HD
ENDBRANCH  16  25
ENDBRANCH   1  14
BRANCH   6  27
ATOM     27  O   UNL     1      -3.410   9.571  15.135  0.00  0.00    +0.000 OA
ATOM     28  C   UNL     1      -3.417  10.006  13.778  0.00  0.00    +0.000 C 
ENDBRANCH   6  27
BRANCH   8  29
ATOM     29  C   UNL     1       0.622   9.243  18.198  0.00  0.00    +0.000 C 
ATOM     30  C   UNL     1       1.603   8.533  18.188  0.00  0.00    +0.000 C 
BRANCH  30  31
ATOM     31  C   UNL     1       2.682   7.581  18.200  0.00  0.00    +0.000 A 
ATOM     32  C   UNL     1       2.739   6.593  19.187  0.00  0.00    +0.000 A 
ATOM     33  C   UNL     1       3.849   5.741  19.281  0.00  0.00    +0.000 A 
ATOM     34  C   UNL     1       4.914   5.849  18.380  0.00  0.00    +0.000 A 
ATOM     35  C   UNL     1       6.115   4.951  18.483  0.00  0.00    +0.000 C 
ATOM     36  C   UNL     1       4.839   6.818  17.370  0.00  0.00    +0.000 A 
ATOM     37  C   UNL     1       3.734   7.680  17.283  0.00  0.00    +0.000 A 
ENDBRANCH  30  31
ENDBRANCH   8  29
TORSDOF 8
ENDMDL
MODEL 5
REMARK VINA RESULT:      -7.2      6.409      9.364
REMARK  Name = 
REMARK  11 active torsions:
REMARK  status: ('A' for Active; 'I' for Inactive)
REMARK    1  A    between atoms: C_1  and  C_2
REMARK    2  A    between atoms: C_2  and  N_3
REMARK    3  A    between atoms: C_4  and  C_6
REMARK    4  A    between atoms: C_8  and  N_9
REMARK    5  A    between atoms: N_14  and  O_15
REMARK    6  A    between atoms: O_15  and  C_16
REMARK    7  A    between atoms: C_18  and  C_19
REMARK    8  A    between atoms: C_20  and  C_21
REMARK    9  A    between atoms: C_24  and  C_25
REMARK   10  A    between atoms: C_30  and  O_31
REMARK   11  A    between atoms: C_32  and  O_33
REMARK                            x       y       z     vdW  Elec       q    Type
REMARK                         _______ _______ _______ _____ _____    ______ ____
ROOT
ATOM      1  N   UNL     1      -2.935  12.419  19.797  0.00  0.00    +0.000 N 
ATOM      2  C   UNL     1      -4.142  12.824  19.288  0.00  0.00    +0.000 A 
ATOM      3  N   UNL     1      -4.363  12.320  18.092  0.00  0.00    +0.000 NA
ATOM      4  C   UNL     1      -3.264  11.521  17.840  0.00  0.00    +0.000 A 
ATOM      5  C   UNL     1      -2.918  10.727  16.733  0.00  0.00    +0.000 A 
ATOM      6  N   UNL     1      -3.724  10.722  15.577  0.00  0.00    +0.000 N 
ATOM      7  N   UNL     1      -1.762  10.004  16.804  0.00  0.00    +0.000 NA
ATOM      8  C   UNL     1      -0.999  10.107  17.912  0.00  0.00    +0.000 A 
ATOM      9  N   UNL     1      -1.211  10.881  19.002  0.00  0.00    +0.000 NA
ATOM     10  C   UNL     1      -2.371  11.552  18.899  0.00  0.00    +0.000 A 
ATOM     11  H   UNL     1      -4.634  11.140  15.773  0.00  0.00    +0.000 HD
ENDROOT
BRANCH   1  14
ATOM     12  C   UNL     1      -0.834  11.963  22.556  0.00  0.00    +0.000 C 
ATOM     13  O   UNL     1      -1.042  12.351  21.190  0.00  0.00    +0.000 OA
ATOM     14  C   UNL     1      -2.389  12.843  21.066  0.00  0.00    +0.000 C 
ATOM     15  C   UNL     1      -3.181  12.374  22.279  0.00  0.00    +0.000 C 
ATOM     16  C   UNL     1      -2.102  12.306  23.347  0.00  0.00    +0.000 C 
BRANCH  12  18
ATOM     17  N   UNL     1      -0.420   9.746  21.571  0.00  0.00    +0.000 N 
ATOM     18  C   UNL     1      -0.434  10.488  22.737  0.00  0.00    +0.000 C 
ATOM     19  O   UNL     1      -0.058  10.039  23.815  0.00  0.00    +0.000 OA
ATOM     20  H   UNL     1      -1.073  10.044  20.852  0.00  0.00    +0.000 HD
BRANCH  17  22
ATOM     21  C   UNL     1       1.456   8.146  21.384  0.00  0.00    +0.000 C 
ATOM     22  C   UNL     1      -0.025   8.352  21.628  0.00  0.00    +0.000 C 
ENDBRANCH  17  22
ENDBRANCH  12  18
BRANCH  15  23
ATOM     23  O   UNL     1      -4.215  13.300  22.616  0.00  0.00    +0.000 OA
ATOM     24  H   UNL     1      -3.897  14.183  22.332  0.00  0.00    +0.000 HD
ENDBRANCH  15  23
BRANCH  16  25
ATOM     25  O   UNL     1      -2.031  13.594  23.993  0.00  0.00    +0.000 OA
ATOM     26  H   UNL     1      -2.929  13.941  24.137  0.00  0.00    +0.000 HD
ENDBRANCH  16  25
ENDBRANCH   1  14
BRANCH   6  27
ATOM     27  O   UNL     1      -3.790   9.552  14.818  0.00  0.00    +0.000 OA
ATOM     28  C   UNL     1      -3.870   9.952  13.453  0.00  0.00    +0.000 C 
ENDBRANCH   6  27
BRANCH   8  29
ATOM     29  C   UNL     1       0.238   9.384  17.899  0.00  0.00    +0.000 C 
ATOM     30  C   UNL     1       1.232   8.691  17.890  0.00  0.00    +0.000 C 
BRANCH  30  31
ATOM     31  C   UNL     1       2.325   7.756  17.877  0.00  0.00    +0.000 A 
ATOM     32  C   UNL     1       3.566   8.129  17.352  0.00  0.00    +0.000 A 
ATOM     33  C   UNL     1       4.597   7.188  17.222  0.00  0.00    +0.000 A 
ATOM     34  C   UNL     1       4.414   5.862  17.628  0.00  0.00    +0.000 A 
ATOM     35  C   UNL     1       5.509   4.844  17.478  0.00  0.00    +0.000 C 
ATOM     36  C   UNL     1       3.181   5.498  18.186  0.00  0.00    +0.000 A 
ATOM     37  C   UNL     1       2.143   6.437  18.306  0.00  0.00    +0.000 A 
ENDBRANCH  30  31
ENDBRANCH   8  29
TORSDOF 8
ENDMDL
MODEL 6
REMARK VINA RESULT:      -7.1      3.708      8.051
REMARK  Name = 
REMARK  11 active torsions:
REMARK  status: ('A' for Active; 'I' for Inactive)
REMARK    1  A    between atoms: C_1  and  C_2
REMARK    2  A    between atoms: C_2  and  N_3
REMARK    3  A    between atoms: C_4  and  C_6
REMARK    4  A    between atoms: C_8  and  N_9
REMARK    5  A    between atoms: N_14  and  O_15
REMARK    6  A    between atoms: O_15  and  C_16
REMARK    7  A    between atoms: C_18  and  C_19
REMARK    8  A    between atoms: C_20  and  C_21
REMARK    9  A    between atoms: C_24  and  C_25
REMARK   10  A    between atoms: C_30  and  O_31
REMARK   11  A    between atoms: C_32  and  O_33
REMARK                            x       y       z     vdW  Elec       q    Type
REMARK                         _______ _______ _______ _____ _____    ______ ____
ROOT
ATOM      1  N   UNL     1       5.146   5.217  18.664  0.00  0.00    +0.000 N 
ATOM      2  C   UNL     1       5.476   3.886  18.692  0.00  0.00    +0.000 A 
ATOM      3  N   UNL     1       4.657   3.195  19.455  0.00  0.00    +0.000 NA
ATOM      4  C   UNL     1       3.733   4.119  19.904  0.00  0.00    +0.000 A 
ATOM      5  C   UNL     1       2.617   3.993  20.751  0.00  0.00    +0.000 A 
ATOM      6  N   UNL     1       2.331   2.764  21.377  0.00  0.00    +0.000 N 
ATOM      7  N   UNL     1       1.859   5.105  20.975  0.00  0.00    +0.000 NA
ATOM      8  C   UNL     1       2.227   6.269  20.400  0.00  0.00    +0.000 A 
ATOM      9  N   UNL     1       3.307   6.509  19.620  0.00  0.00    +0.000 NA
ATOM     10  C   UNL     1       4.008   5.382  19.406  0.00  0.00    +0.000 A 
ATOM     11  H   UNL     1       2.861   2.008  20.942  0.00  0.00    +0.000 HD
ENDROOT
BRANCH   1  14
ATOM     12  C   UNL     1       6.610   6.509  15.762  0.00  0.00    +0.000 C 
ATOM     13  O   UNL     1       5.458   6.265  16.583  0.00  0.00    +0.000 OA
ATOM     14  C   UNL     1       5.886   6.237  17.956  0.00  0.00    +0.000 C 
ATOM     15  C   UNL     1       7.397   6.046  17.980  0.00  0.00    +0.000 C 
ATOM     16  C   UNL     1       7.816   6.722  16.685  0.00  0.00    +0.000 C 
BRANCH  12  18
ATOM     17  N   UNL     1       5.819   4.560  14.485  0.00  0.00    +0.000 N 
ATOM     18  C   UNL     1       6.882   5.412  14.717  0.00  0.00    +0.000 C 
ATOM     19  O   UNL     1       7.924   5.367  14.071  0.00  0.00    +0.000 OA
ATOM     20  H   UNL     1       5.192   4.413  15.271  0.00  0.00    +0.000 HD
BRANCH  17  22
ATOM     21  C   UNL     1       4.987   3.647  12.342  0.00  0.00    +0.000 C 
ATOM     22  C   UNL     1       5.962   3.510  13.495  0.00  0.00    +0.000 C 
ENDBRANCH  17  22
ENDBRANCH  12  18
BRANCH  15  23
ATOM     23  O   UNL     1       7.982   6.668  19.125  0.00  0.00    +0.000 OA
ATOM     24  H   UNL     1       7.534   7.534  19.228  0.00  0.00    +0.000 HD
ENDBRANCH  15  23
BRANCH  16  25
ATOM     25  O   UNL     1       8.068   8.115  16.968  0.00  0.00    +0.000 OA
ATOM     26  H   UNL     1       8.834   8.423  16.454  0.00  0.00    +0.000 HD
ENDBRANCH  16  25
ENDBRANCH   1  14
BRANCH   6  27
ATOM     27  O   UNL     1       0.997   2.444  21.635  0.00  0.00    +0.000 OA
ATOM     28  C   UNL     1       0.317   2.471  20.384  0.00  0.00    +0.000 C 
ENDBRANCH   6  27
BRANCH   8  29
ATOM     29  C   UNL     1       1.436   7.418  20.730  0.00  0.00    +0.000 C 
ATOM     30  C   UNL     1       0.829   8.404  21.085  0.00  0.00    +0.000 C 
BRANCH  30  31
ATOM     31  C   UNL     1       0.205   9.589  21.608  0.00  0.00    +0.000 A 
ATOM     32  C   UNL     1      -0.489   9.544  22.821  0.00  0.00    +0.000 A 
ATOM     33  C   UNL     1      -1.204  10.662  23.277  0.00  0.00    +0.000 A 
ATOM     34  C   UNL     1      -1.225  11.849  22.537  0.00  0.00    +0.000 A 
ATOM     35  C   UNL     1      -2.001  13.046  23.009  0.00  0.00    +0.000 C 
ATOM     36  C   UNL     1      -0.501  11.903  21.339  0.00  0.00    +0.000 A 
ATOM     37  C   UNL     1       0.206  10.781  20.876  0.00  0.00    +0.000 A 
ENDBRANCH  30  31
ENDBRANCH   8  29
TORSDOF 8
ENDMDL
MODEL 7
REMARK VINA RESULT:      -7.1      6.963      9.950
REMARK  Name = 
REMARK  11 active torsions:
REMARK  status: ('A' for Active; 'I' for Inactive)
REMARK    1  A    between atoms: C_1  and  C_2
REMARK    2  A    between atoms: C_2  and  N_3
REMARK    3  A    between atoms: C_4  and  C_6
REMARK    4  A    between atoms: C_8  and  N_9
REMARK    5  A    between atoms: N_14  and  O_15
REMARK    6  A    between atoms: O_15  and  C_16
REMARK    7  A    between atoms: C_18  and  C_19
REMARK    8  A    between atoms: C_20  and  C_21
REMARK    9  A    between atoms: C_24  and  C_25
REMARK   10  A    between atoms: C_30  and  O_31
REMARK   11  A    between atoms: C_32  and  O_33
REMARK                            x       y       z     vdW  Elec       q    Type
REMARK                         _______ _______ _______ _____ _____    ______ ____
ROOT
ATOM      1  N   UNL     1      -3.907  12.708  19.769  0.00  0.00    +0.000 N 
ATOM      2  C   UNL     1      -5.076  13.017  19.121  0.00  0.00    +0.000 A 
ATOM      3  N   UNL     1      -5.136  12.461  17.930  0.00  0.00    +0.000 NA
ATOM      4  C   UNL     1      -3.970  11.728  17.826  0.00  0.00    +0.000 A 
ATOM      5  C   UNL     1      -3.459  10.922  16.794  0.00  0.00    +0.000 A 
ATOM      6  N   UNL     1      -4.134  10.826  15.561  0.00  0.00    +0.000 N 
ATOM      7  N   UNL     1      -2.275  10.279  17.014  0.00  0.00    +0.000 NA
ATOM      8  C   UNL     1      -1.643  10.468  18.191  0.00  0.00    +0.000 A 
ATOM      9  N   UNL     1      -2.017  11.261  19.222  0.00  0.00    +0.000 NA
ATOM     10  C   UNL     1      -3.199  11.852  18.971  0.00  0.00    +0.000 A 
ATOM     11  H   UNL     1      -5.084  11.190  15.644  0.00  0.00    +0.000 HD
ENDROOT
BRANCH   1  14
ATOM     12  C   UNL     1      -1.645  12.996  22.422  0.00  0.00    +0.000 C 
ATOM     13  O   UNL     1      -2.099  13.378  21.115  0.00  0.00    +0.000 OA
ATOM     14  C   UNL     1      -3.528  13.209  21.071  0.00  0.00    +0.000 C 
ATOM     15  C   UNL     1      -3.937  12.313  22.232  0.00  0.00    +0.000 C 
ATOM     16  C   UNL     1      -2.874  12.642  23.268  0.00  0.00    +0.000 C 
BRANCH  12  18
ATOM     17  N   UNL     1      -1.005  10.717  23.092  0.00  0.00    +0.000 N 
ATOM     18  C   UNL     1      -0.609  11.858  22.421  0.00  0.00    +0.000 C 
ATOM     19  O   UNL     1       0.437  11.927  21.785  0.00  0.00    +0.000 OA
ATOM     20  H   UNL     1      -1.646  10.861  23.866  0.00  0.00    +0.000 HD
BRANCH  17  22
ATOM     21  C   UNL     1      -0.427   8.549  22.051  0.00  0.00    +0.000 C 
ATOM     22  C   UNL     1      -0.113   9.574  23.122  0.00  0.00    +0.000 C 
ENDBRANCH  17  22
ENDBRANCH  12  18
BRANCH  15  23
ATOM     23  O   UNL     1      -5.253  12.626  22.693  0.00  0.00    +0.000 OA
ATOM     24  H   UNL     1      -5.197  12.680  23.671  0.00  0.00    +0.000 HD
ENDBRANCH  15  23
BRANCH  16  25
ATOM     25  O   UNL     1      -3.350  13.750  24.061  0.00  0.00    +0.000 OA
ATOM     26  H   UNL     1      -2.757  13.890  24.820  0.00  0.00    +0.000 HD
ENDBRANCH  16  25
ENDBRANCH   1  14
BRANCH   6  27
ATOM     27  O   UNL     1      -4.046   9.631  14.846  0.00  0.00    +0.000 OA
ATOM     28  C   UNL     1      -3.836   9.982  13.481  0.00  0.00    +0.000 C 
ENDBRANCH   6  27
BRANCH   8  29
ATOM     29  C   UNL     1      -0.369   9.827  18.336  0.00  0.00    +0.000 C 
ATOM     30  C   UNL     1       0.666   9.204  18.426  0.00  0.00    +0.000 C 
BRANCH  30  31
ATOM     31  C   UNL     1       1.825   8.353  18.478  0.00  0.00    +0.000 A 
ATOM     32  C   UNL     1       2.751   8.358  17.432  0.00  0.00    +0.000 A 
ATOM     33  C   UNL     1       3.815   7.445  17.416  0.00  0.00    +0.000 A 
ATOM     34  C   UNL     1       3.983   6.522  18.454  0.00  0.00    +0.000 A 
ATOM     35  C   UNL     1       5.111   5.529  18.437  0.00  0.00    +0.000 C 
ATOM     36  C   UNL     1       3.074   6.542  19.519  0.00  0.00    +0.000 A 
ATOM     37  C   UNL     1       2.000   7.447  19.530  0.00  0.00    +0.000 A 
ENDBRANCH  30  31
ENDBRANCH   8  29
TORSDOF 8
ENDMDL
MODEL 8
REMARK VINA RESULT:      -7.0      8.861     12.145
REMARK  Name = 
REMARK  11 active torsions:
REMARK  status: ('A' for Active; 'I' for Inactive)
REMARK    1  A    between atoms: C_1  and  C_2
REMARK    2  A    between atoms: C_2  and  N_3
REMARK    3  A    between atoms: C_4  and  C_6
REMARK    4  A    between atoms: C_8  and  N_9
REMARK    5  A    between atoms: N_14  and  O_15
REMARK    6  A    between atoms: O_15  and  C_16
REMARK    7  A    between atoms: C_18  and  C_19
REMARK    8  A    between atoms: C_20  and  C_21
REMARK    9  A    between atoms: C_24  and  C_25
REMARK   10  A    between atoms: C_30  and  O_31
REMARK   11  A    between atoms: C_32  and  O_33
REMARK                            x       y       z     vdW  Elec       q    Type
REMARK                         _______ _______ _______ _____ _____    ______ ____
ROOT
ATOM      1  N   UNL     1      -5.047  13.993  21.951  0.00  0.00    +0.000 N 
ATOM      2  C   UNL     1      -5.382  15.052  22.756  0.00  0.00    +0.000 A 
ATOM      3  N   UNL     1      -4.417  15.349  23.600  0.00  0.00    +0.000 NA
ATOM      4  C   UNL     1      -3.399  14.466  23.295  0.00  0.00    +0.000 A 
ATOM      5  C   UNL     1      -2.119  14.286  23.846  0.00  0.00    +0.000 A 
ATOM      6  N   UNL     1      -1.713  15.033  24.970  0.00  0.00    +0.000 N 
ATOM      7  N   UNL     1      -1.311  13.340  23.285  0.00  0.00    +0.000 NA
ATOM      8  C   UNL     1      -1.786  12.610  22.254  0.00  0.00    +0.000 A 
ATOM      9  N   UNL     1      -3.014  12.664  21.689  0.00  0.00    +0.000 NA
ATOM     10  C   UNL     1      -3.763  13.626  22.255  0.00  0.00    +0.000 A 
ATOM     11  H   UNL     1      -2.342  15.822  25.121  0.00  0.00    +0.000 HD
ENDROOT
BRANCH   1  14
ATOM     12  C   UNL     1      -5.635  11.840  19.258  0.00  0.00    +0.000 C 
ATOM     13  O   UNL     1      -5.459  12.069  20.665  0.00  0.00    +0.000 OA
ATOM     14  C   UNL     1      -5.916  13.402  20.960  0.00  0.00    +0.000 C 
ATOM     15  C   UNL     1      -5.996  14.178  19.652  0.00  0.00    +0.000 C 
ATOM     16  C   UNL     1      -6.313  13.076  18.655  0.00  0.00    +0.000 C 
BRANCH  12  18
ATOM     17  N   UNL     1      -3.256  12.291  18.816  0.00  0.00    +0.000 N 
ATOM     18  C   UNL     1      -4.336  11.484  18.512  0.00  0.00    +0.000 C 
ATOM     19  O   UNL     1      -4.248  10.498  17.787  0.00  0.00    +0.000 OA
ATOM     20  H   UNL     1      -3.481  13.245  19.084  0.00  0.00    +0.000 HD
BRANCH  17  22
ATOM     21  C   UNL     1      -0.956  13.113  18.430  0.00  0.00    +0.000 C 
ATOM     22  C   UNL     1      -1.977  12.019  18.190  0.00  0.00    +0.000 C 
ENDBRANCH  17  22
ENDBRANCH  12  18
BRANCH  15  23
ATOM     23  O   UNL     1      -7.022  15.172  19.699  0.00  0.00    +0.000 OA
ATOM     24  H   UNL     1      -6.969  15.581  20.588  0.00  0.00    +0.000 HD
ENDBRANCH  15  23
BRANCH  16  25
ATOM     25  O   UNL     1      -7.748  12.945  18.573  0.00  0.00    +0.000 OA
ATOM     26  H   UNL     1      -8.159  13.828  18.549  0.00  0.00    +0.000 HD
ENDBRANCH  16  25
ENDBRANCH   1  14
BRANCH   6  27
ATOM     27  O   UNL     1      -0.361  15.353  25.102  0.00  0.00    +0.000 OA
ATOM     28  C   UNL     1      -0.186  16.646  24.530  0.00  0.00    +0.000 C 
ENDBRANCH   6  27
BRANCH   8  29
ATOM     29  C   UNL     1      -0.921  11.581  21.755  0.00  0.00    +0.000 C 
ATOM     30  C   UNL     1      -0.243  10.714  21.249  0.00  0.00    +0.000 C 
BRANCH  30  31
ATOM     31  C   UNL     1       0.486   9.702  20.532  0.00  0.00    +0.000 A 
ATOM     32  C   UNL     1       0.922   8.548  21.189  0.00  0.00    +0.000 A 
ATOM     33  C   UNL     1       1.737   7.616  20.531  0.00  0.00    +0.000 A 
ATOM     34  C   UNL     1       2.118   7.812  19.199  0.00  0.00    +0.000 A 
ATOM     35  C   UNL     1       3.004   6.827  18.490  0.00  0.00    +0.000 C 
ATOM     36  C   UNL     1       1.651   8.952  18.531  0.00  0.00    +0.000 A 
ATOM     37  C   UNL     1       0.845   9.892  19.193  0.00  0.00    +0.000 A 
ENDBRANCH  30  31
ENDBRANCH   8  29
TORSDOF 8
ENDMDL
MODEL 9
REMARK VINA RESULT:      -7.0      7.672     10.366
REMARK  Name = 
REMARK  11 active torsions:
REMARK  status: ('A' for Active; 'I' for Inactive)
REMARK    1  A    between atoms: C_1  and  C_2
REMARK    2  A    between atoms: C_2  and  N_3
REMARK    3  A    between atoms: C_4  and  C_6
REMARK    4  A    between atoms: C_8  and  N_9
REMARK    5  A    between atoms: N_14  and  O_15
REMARK    6  A    between atoms: O_15  and  C_16
REMARK    7  A    between atoms: C_18  and  C_19
REMARK    8  A    between atoms: C_20  and  C_21
REMARK    9  A    between atoms: C_24  and  C_25
REMARK   10  A    between atoms: C_30  and  O_31
REMARK   11  A    between atoms: C_32  and  O_33
REMARK                            x       y       z     vdW  Elec       q    Type
REMARK                         _______ _______ _______ _____ _____    ______ ____
ROOT
ATOM      1  N   UNL     1      -1.790  13.359  20.003  0.00  0.00    +0.000 N 
ATOM      2  C   UNL     1      -1.631  14.719  20.072  0.00  0.00    +0.000 A 
ATOM      3  N   UNL     1      -0.407  15.085  19.755  0.00  0.00    +0.000 NA
ATOM      4  C   UNL     1       0.237  13.908  19.426  0.00  0.00    +0.000 A 
ATOM      5  C   UNL     1       1.554  13.645  19.011  0.00  0.00    +0.000 A 
ATOM      6  N   UNL     1       2.506  14.683  18.954  0.00  0.00    +0.000 N 
ATOM      7  N   UNL     1       1.882  12.354  18.712  0.00  0.00    +0.000 NA
ATOM      8  C   UNL     1       0.943  11.396  18.854  0.00  0.00    +0.000 A 
ATOM      9  N   UNL     1      -0.328  11.533  19.298  0.00  0.00    +0.000 NA
ATOM     10  C   UNL     1      -0.613  12.822  19.554  0.00  0.00    +0.000 A 
ATOM     11  H   UNL     1       2.046  15.593  19.003  0.00  0.00    +0.000 HD
ENDROOT
BRANCH   1  14
ATOM     12  C   UNL     1      -4.856  11.911  19.143  0.00  0.00    +0.000 C 
ATOM     13  O   UNL     1      -3.423  11.864  19.211  0.00  0.00    +0.000 OA
ATOM     14  C   UNL     1      -3.004  12.651  20.341  0.00  0.00    +0.000 C 
ATOM     15  C   UNL     1      -4.162  13.550  20.751  0.00  0.00    +0.000 C 
ATOM     16  C   UNL     1      -5.364  12.713  20.348  0.00  0.00    +0.000 C 
BRANCH  12  18
ATOM     17  N   UNL     1      -6.248  13.557  17.954  0.00  0.00    +0.000 N 
ATOM     18  C   UNL     1      -5.405  12.470  17.818  0.00  0.00    +0.000 C 
ATOM     19  O   UNL     1      -5.036  12.047  16.727  0.00  0.00    +0.000 OA
ATOM     20  H   UNL     1      -6.782  13.594  18.818  0.00  0.00    +0.000 HD
BRANCH  17  22
ATOM     21  C   UNL     1      -7.002  15.671  16.917  0.00  0.00    +0.000 C 
ATOM     22  C   UNL     1      -6.793  14.178  16.763  0.00  0.00    +0.000 C 
ENDBRANCH  17  22
ENDBRANCH  12  18
BRANCH  15  23
ATOM     23  O   UNL     1      -4.140  13.820  22.154  0.00  0.00    +0.000 OA
ATOM     24  H   UNL     1      -3.413  13.280  22.528  0.00  0.00    +0.000 HD
ENDBRANCH  15  23
BRANCH  16  25
ATOM     25  O   UNL     1      -5.723  11.876  21.468  0.00  0.00    +0.000 OA
ATOM     26  H   UNL     1      -5.057  11.965  22.172  0.00  0.00    +0.000 HD
ENDBRANCH  16  25
ENDBRANCH   1  14
BRANCH   6  27
ATOM     27  O   UNL     1       3.513  14.608  17.991  0.00  0.00    +0.000 OA
ATOM     28  C   UNL     1       3.590  15.890  17.375  0.00  0.00    +0.000 C 
ENDBRANCH   6  27
BRANCH   8  29
ATOM     29  C   UNL     1       1.366  10.051  18.598  0.00  0.00    +0.000 C 
ATOM     30  C   UNL     1       1.815   8.949  18.369  0.00  0.00    +0.000 C 
BRANCH  30  31
ATOM     31  C   UNL     1       2.474   7.702  18.085  0.00  0.00    +0.000 A 
ATOM     32  C   UNL     1       1.989   6.509  18.628  0.00  0.00    +0.000 A 
ATOM     33  C   UNL     1       2.695   5.309  18.459  0.00  0.00    +0.000 A 
ATOM     34  C   UNL     1       3.889   5.276  17.730  0.00  0.00    +0.000 A 
ATOM     35  C   UNL     1       4.660   3.998  17.557  0.00  0.00    +0.000 C 
ATOM     36  C   UNL     1       4.355   6.467  17.157  0.00  0.00    +0.000 A 
ATOM     37  C   UNL     1       3.655   7.672  17.336  0.00  0.00    +0.000 A 
ENDBRANCH  30  31
ENDBRANCH   8  29
TORSDOF 8
ENDMDL
