MODEL 1
REMARK VINA RESULT:      -8.7      0.000      0.000
REMARK  Name = 
REMARK  5 active torsions:
REMARK  status: ('A' for Active; 'I' for Inactive)
REMARK    1  A    between atoms: C_1  and  C_2
REMARK    2  A    between atoms: C_2  and  S_3
REMARK    3  A    between atoms: S_3  and  C_6
REMARK    4  A    between atoms: C_8  and  C_9
REMARK    5  A    between atoms: C_15  and  C_16
REMARK                            x       y       z     vdW  Elec       q    Type
REMARK                         _______ _______ _______ _____ _____    ______ ____
ROOT
ATOM      1  C   UNL     1       5.562   5.352  17.384  0.00  0.00    +0.000 A 
ATOM      2  N   UNL     1       4.899   4.370  17.960  0.00  0.00    +0.000 NA
ATOM      3  C   UNL     1       3.711   4.928  18.396  0.00  0.00    +0.000 A 
ATOM      4  C   UNL     1       3.694   6.304  18.168  0.00  0.00    +0.000 A 
ATOM      5  N   UNL     1       4.866   6.527  17.480  0.00  0.00    +0.000 N 
ATOM      6  H   UNL     1       5.212   7.415  17.139  0.00  0.00    +0.000 HD
ENDROOT
BRANCH   3   7
ATOM      7  C   UNL     1       2.683   4.120  19.039  0.00  0.00    +0.000 A 
ATOM      8  C   UNL     1       2.627   4.056  20.437  0.00  0.00    +0.000 A 
ATOM      9  C   UNL     1       1.623   3.326  21.078  0.00  0.00    +0.000 A 
ATOM     10  C   UNL     1       0.661   2.654  20.327  0.00  0.00    +0.000 A 
ATOM     11  C   UNL     1       0.720   2.685  18.936  0.00  0.00    +0.000 A 
ATOM     12  C   UNL     1       1.740   3.393  18.296  0.00  0.00    +0.000 A 
ENDBRANCH   3   7
BRANCH   4  13
ATOM     13  C   UNL     1       2.775   7.392  18.522  0.00  0.00    +0.000 A 
ATOM     14  C   UNL     1       2.446   8.386  17.590  0.00  0.00    +0.000 A 
ATOM     15  C   UNL     1       1.625   9.460  17.940  0.00  0.00    +0.000 A 
ATOM     16  C   UNL     1       1.076   9.528  19.215  0.00  0.00    +0.000 A 
ATOM     17  C   UNL     1       1.353   8.527  20.142  0.00  0.00    +0.000 A 
ATOM     18  C   UNL     1       2.204   7.470  19.802  0.00  0.00    +0.000 A 
ENDBRANCH   4  13
BRANCH   1  19
ATOM     19  S   UNL     1       7.158   5.279  16.633  0.00  0.00    +0.000 S 
ATOM     20  O   UNL     1       7.939   4.481  17.564  0.00  0.00    +0.000 OA
ATOM     21  O   UNL     1       7.517   6.640  16.301  0.00  0.00    +0.000 OA
BRANCH  19  23
ATOM     22  C   UNL     1       5.547   4.723  14.506  0.00  0.00    +0.000 C 
ATOM     23  C   UNL     1       6.864   4.338  15.151  0.00  0.00    +0.000 C 
ENDBRANCH  19  23
ENDBRANCH   1  19
TORSDOF 4
ENDMDL
MODEL 2
REMARK VINA RESULT:      -8.7      0.366      1.085
REMARK  Name = 
REMARK  5 active torsions:
REMARK  status: ('A' for Active; 'I' for Inactive)
REMARK    1  A    between atoms: C_1  and  C_2
REMARK    2  A    between atoms: C_2  and  S_3
REMARK    3  A    between atoms: S_3  and  C_6
REMARK    4  A    between atoms: C_8  and  C_9
REMARK    5  A    between atoms: C_15  and  C_16
REMARK                            x       y       z     vdW  Elec       q    Type
REMARK                         _______ _______ _______ _____ _____    ______ ____
ROOT
ATOM      1  C   UNL     1       5.515   5.259  17.470  0.00  0.00    +0.000 A 
ATOM      2  N   UNL     1       4.915   4.351  18.212  0.00  0.00    +0.000 NA
ATOM      3  C   UNL     1       3.753   4.947  18.664  0.00  0.00    +0.000 A 
ATOM      4  C   UNL     1       3.693   6.284  18.270  0.00  0.00    +0.000 A 
ATOM      5  N   UNL     1       4.806   6.430  17.472  0.00  0.00    +0.000 N 
ATOM      6  H   UNL     1       5.109   7.271  16.999  0.00  0.00    +0.000 HD
ENDROOT
BRANCH   3   7
ATOM      7  C   UNL     1       2.791   4.216  19.478  0.00  0.00    +0.000 A 
ATOM      8  C   UNL     1       1.694   3.596  18.864  0.00  0.00    +0.000 A 
ATOM      9  C   UNL     1       0.784   2.850  19.617  0.00  0.00    +0.000 A 
ATOM     10  C   UNL     1       0.963   2.711  20.991  0.00  0.00    +0.000 A 
ATOM     11  C   UNL     1       2.031   3.344  21.620  0.00  0.00    +0.000 A 
ATOM     12  C   UNL     1       2.926   4.112  20.871  0.00  0.00    +0.000 A 
ENDBRANCH   3   7
BRANCH   4  13
ATOM     13  C   UNL     1       2.783   7.399  18.555  0.00  0.00    +0.000 A 
ATOM     14  C   UNL     1       2.506   8.367  17.580  0.00  0.00    +0.000 A 
ATOM     15  C   UNL     1       1.693   9.466  17.865  0.00  0.00    +0.000 A 
ATOM     16  C   UNL     1       1.099   9.585  19.116  0.00  0.00    +0.000 A 
ATOM     17  C   UNL     1       1.324   8.610  20.085  0.00  0.00    +0.000 A 
ATOM     18  C   UNL     1       2.167   7.528  19.810  0.00  0.00    +0.000 A 
ENDBRANCH   4  13
BRANCH   1  19
ATOM     19  S   UNL     1       7.052   5.108  16.614  0.00  0.00    +0.000 S 
ATOM     20  O   UNL     1       7.914   4.436  17.573  0.00  0.00    +0.000 OA
ATOM     21  O   UNL     1       7.363   6.421  16.095  0.00  0.00    +0.000 OA
BRANCH  19  23
ATOM     22  C   UNL     1       5.564   4.546  14.402  0.00  0.00    +0.000 C 
ATOM     23  C   UNL     1       6.665   3.991  15.283  0.00  0.00    +0.000 C 
ENDBRANCH  19  23
ENDBRANCH   1  19
TORSDOF 4
ENDMDL
MODEL 3
REMARK VINA RESULT:      -8.7      0.363      1.492
REMARK  Name = 
REMARK  5 active torsions:
REMARK  status: ('A' for Active; 'I' for Inactive)
REMARK    1  A    between atoms: C_1  and  C_2
REMARK    2  A    between atoms: C_2  and  S_3
REMARK    3  A    between atoms: S_3  and  C_6
REMARK    4  A    between atoms: C_8  and  C_9
REMARK    5  A    between atoms: C_15  and  C_16
REMARK                            x       y       z     vdW  Elec       q    Type
REMARK                         _______ _______ _______ _____ _____    ______ ____
ROOT
ATOM      1  C   UNL     1       5.521   5.258  17.455  0.00  0.00    +0.000 A 
ATOM      2  N   UNL     1       4.915   4.351  18.194  0.00  0.00    +0.000 NA
ATOM      3  C   UNL     1       3.760   4.957  18.654  0.00  0.00    +0.000 A 
ATOM      4  C   UNL     1       3.713   6.296  18.268  0.00  0.00    +0.000 A 
ATOM      5  N   UNL     1       4.824   6.436  17.467  0.00  0.00    +0.000 N 
ATOM      6  H   UNL     1       5.134   7.277  16.998  0.00  0.00    +0.000 HD
ENDROOT
BRANCH   3   7
ATOM      7  C   UNL     1       2.794   4.230  19.467  0.00  0.00    +0.000 A 
ATOM      8  C   UNL     1       1.695   3.616  18.852  0.00  0.00    +0.000 A 
ATOM      9  C   UNL     1       0.780   2.874  19.603  0.00  0.00    +0.000 A 
ATOM     10  C   UNL     1       0.956   2.735  20.978  0.00  0.00    +0.000 A 
ATOM     11  C   UNL     1       2.027   3.363  21.608  0.00  0.00    +0.000 A 
ATOM     12  C   UNL     1       2.926   4.126  20.860  0.00  0.00    +0.000 A 
ENDBRANCH   3   7
BRANCH   4  13
ATOM     13  C   UNL     1       2.815   7.419  18.564  0.00  0.00    +0.000 A 
ATOM     14  C   UNL     1       2.216   7.546  19.825  0.00  0.00    +0.000 A 
ATOM     15  C   UNL     1       1.310   8.574  20.093  0.00  0.00    +0.000 A 
ATOM     16  C   UNL     1       1.028   9.524  19.118  0.00  0.00    +0.000 A 
ATOM     17  C   UNL     1       1.647   9.442  17.873  0.00  0.00    +0.000 A 
ATOM     18  C   UNL     1       2.529   8.392  17.594  0.00  0.00    +0.000 A 
ENDBRANCH   4  13
BRANCH   1  19
ATOM     19  S   UNL     1       7.053   5.097  16.592  0.00  0.00    +0.000 S 
ATOM     20  O   UNL     1       7.909   4.402  17.541  0.00  0.00    +0.000 OA
ATOM     21  O   UNL     1       7.379   6.411  16.086  0.00  0.00    +0.000 OA
BRANCH  19  23
ATOM     22  C   UNL     1       5.445   4.500  14.474  0.00  0.00    +0.000 C 
ATOM     23  C   UNL     1       6.647   4.000  15.250  0.00  0.00    +0.000 C 
ENDBRANCH  19  23
ENDBRANCH   1  19
TORSDOF 4
ENDMDL
MODEL 4
REMARK VINA RESULT:      -8.6      0.084      1.030
REMARK  Name = 
REMARK  5 active torsions:
REMARK  status: ('A' for Active; 'I' for Inactive)
REMARK    1  A    between atoms: C_1  and  C_2
REMARK    2  A    between atoms: C_2  and  S_3
REMARK    3  A    between atoms: S_3  and  C_6
REMARK    4  A    between atoms: C_8  and  C_9
REMARK    5  A    between atoms: C_15  and  C_16
REMARK                            x       y       z     vdW  Elec       q    Type
REMARK                         _______ _______ _______ _____ _____    ______ ____
ROOT
ATOM      1  C   UNL     1       5.564   5.345  17.394  0.00  0.00    +0.000 A 
ATOM      2  N   UNL     1       4.908   4.376  17.999  0.00  0.00    +0.000 NA
ATOM      3  C   UNL     1       3.730   4.946  18.445  0.00  0.00    +0.000 A 
ATOM      4  C   UNL     1       3.714   6.318  18.193  0.00  0.00    +0.000 A 
ATOM      5  N   UNL     1       4.874   6.524  17.481  0.00  0.00    +0.000 N 
ATOM      6  H   UNL     1       5.216   7.404  17.118  0.00  0.00    +0.000 HD
ENDROOT
BRANCH   3   7
ATOM      7  C   UNL     1       2.711   4.153  19.120  0.00  0.00    +0.000 A 
ATOM      8  C   UNL     1       2.713   4.069  20.518  0.00  0.00    +0.000 A 
ATOM      9  C   UNL     1       1.719   3.353  21.191  0.00  0.00    +0.000 A 
ATOM     10  C   UNL     1       0.710   2.717  20.472  0.00  0.00    +0.000 A 
ATOM     11  C   UNL     1       0.710   2.767  19.081  0.00  0.00    +0.000 A 
ATOM     12  C   UNL     1       1.718   3.461  18.408  0.00  0.00    +0.000 A 
ENDBRANCH   3   7
BRANCH   4  13
ATOM     13  C   UNL     1       2.804   7.415  18.543  0.00  0.00    +0.000 A 
ATOM     14  C   UNL     1       2.238   7.497  19.823  0.00  0.00    +0.000 A 
ATOM     15  C   UNL     1       1.321   8.501  20.143  0.00  0.00    +0.000 A 
ATOM     16  C   UNL     1       0.996   9.471  19.201  0.00  0.00    +0.000 A 
ATOM     17  C   UNL     1       1.582   9.434  17.938  0.00  0.00    +0.000 A 
ATOM     18  C   UNL     1       2.474   8.408  17.607  0.00  0.00    +0.000 A 
ENDBRANCH   4  13
BRANCH   1  19
ATOM     19  S   UNL     1       7.147   5.253  16.617  0.00  0.00    +0.000 S 
ATOM     20  O   UNL     1       7.938   4.459  17.543  0.00  0.00    +0.000 OA
ATOM     21  O   UNL     1       7.510   6.608  16.266  0.00  0.00    +0.000 OA
BRANCH  19  23
ATOM     22  C   UNL     1       5.492   4.682  14.528  0.00  0.00    +0.000 C 
ATOM     23  C   UNL     1       6.821   4.300  15.150  0.00  0.00    +0.000 C 
ENDBRANCH  19  23
ENDBRANCH   1  19
TORSDOF 4
ENDMDL
MODEL 5
REMARK VINA RESULT:      -8.6      0.422      4.053
REMARK  Name = 
REMARK  5 active torsions:
REMARK  status: ('A' for Active; 'I' for Inactive)
REMARK    1  A    between atoms: C_1  and  C_2
REMARK    2  A    between atoms: C_2  and  S_3
REMARK    3  A    between atoms: S_3  and  C_6
REMARK    4  A    between atoms: C_8  and  C_9
REMARK    5  A    between atoms: C_15  and  C_16
REMARK                            x       y       z     vdW  Elec       q    Type
REMARK                         _______ _______ _______ _____ _____    ______ ____
ROOT
ATOM      1  C   UNL     1       5.559   5.380  17.419  0.00  0.00    +0.000 A 
ATOM      2  N   UNL     1       4.884   6.512  17.407  0.00  0.00    +0.000 NA
ATOM      3  C   UNL     1       3.804   6.309  18.247  0.00  0.00    +0.000 A 
ATOM      4  C   UNL     1       3.768   4.991  18.702  0.00  0.00    +0.000 A 
ATOM      5  N   UNL     1       4.926   4.447  18.194  0.00  0.00    +0.000 N 
ATOM      6  H   UNL     1       5.252   3.496  18.309  0.00  0.00    +0.000 HD
ENDROOT
BRANCH   3   7
ATOM      7  C   UNL     1       2.853   7.376  18.531  0.00  0.00    +0.000 A 
ATOM      8  C   UNL     1       2.238   7.437  19.789  0.00  0.00    +0.000 A 
ATOM      9  C   UNL     1       1.358   8.476  20.101  0.00  0.00    +0.000 A 
ATOM     10  C   UNL     1       1.086   9.468  19.161  0.00  0.00    +0.000 A 
ATOM     11  C   UNL     1       1.668   9.405  17.898  0.00  0.00    +0.000 A 
ATOM     12  C   UNL     1       2.527   8.351  17.577  0.00  0.00    +0.000 A 
ENDBRANCH   3   7
BRANCH   4  13
ATOM     13  C   UNL     1       2.814   4.204  19.493  0.00  0.00    +0.000 A 
ATOM     14  C   UNL     1       1.687   3.628  18.893  0.00  0.00    +0.000 A 
ATOM     15  C   UNL     1       0.741   2.934  19.651  0.00  0.00    +0.000 A 
ATOM     16  C   UNL     1       0.937   2.760  21.016  0.00  0.00    +0.000 A 
ATOM     17  C   UNL     1       2.074   3.286  21.625  0.00  0.00    +0.000 A 
ATOM     18  C   UNL     1       3.003   4.011  20.871  0.00  0.00    +0.000 A 
ENDBRANCH   4  13
BRANCH   1  19
ATOM     19  S   UNL     1       7.042   5.001  16.538  0.00  0.00    +0.000 S 
ATOM     20  O   UNL     1       7.880   4.359  17.537  0.00  0.00    +0.000 OA
ATOM     21  O   UNL     1       7.443   6.218  15.868  0.00  0.00    +0.000 OA
BRANCH  19  23
ATOM     22  C   UNL     1       5.589   4.404  14.310  0.00  0.00    +0.000 C 
ATOM     23  C   UNL     1       6.506   3.789  15.349  0.00  0.00    +0.000 C 
ENDBRANCH  19  23
ENDBRANCH   1  19
TORSDOF 4
ENDMDL
MODEL 6
REMARK VINA RESULT:      -8.6      0.202      4.159
REMARK  Name = 
REMARK  5 active torsions:
REMARK  status: ('A' for Active; 'I' for Inactive)
REMARK    1  A    between atoms: C_1  and  C_2
REMARK    2  A    between atoms: C_2  and  S_3
REMARK    3  A    between atoms: S_3  and  C_6
REMARK    4  A    between atoms: C_8  and  C_9
REMARK    5  A    between atoms: C_15  and  C_16
REMARK                            x       y       z     vdW  Elec       q    Type
REMARK                         _______ _______ _______ _____ _____    ______ ____
ROOT
ATOM      1  C   UNL     1       5.545   5.530  17.567  0.00  0.00    +0.000 A 
ATOM      2  N   UNL     1       4.897   6.676  17.608  0.00  0.00    +0.000 NA
ATOM      3  C   UNL     1       3.716   6.412  18.277  0.00  0.00    +0.000 A 
ATOM      4  C   UNL     1       3.598   5.051  18.562  0.00  0.00    +0.000 A 
ATOM      5  N   UNL     1       4.802   4.533  18.139  0.00  0.00    +0.000 N 
ATOM      6  H   UNL     1       5.094   3.565  18.178  0.00  0.00    +0.000 HD
ENDROOT
BRANCH   3   7
ATOM      7  C   UNL     1       2.755   7.468  18.567  0.00  0.00    +0.000 A 
ATOM      8  C   UNL     1       2.177   7.546  19.841  0.00  0.00    +0.000 A 
ATOM      9  C   UNL     1       1.289   8.577  20.159  0.00  0.00    +0.000 A 
ATOM     10  C   UNL     1       0.973   9.544  19.207  0.00  0.00    +0.000 A 
ATOM     11  C   UNL     1       1.517   9.464  17.928  0.00  0.00    +0.000 A 
ATOM     12  C   UNL     1       2.384   8.418  17.604  0.00  0.00    +0.000 A 
ENDBRANCH   3   7
BRANCH   4  13
ATOM     13  C   UNL     1       2.539   4.209  19.129  0.00  0.00    +0.000 A 
ATOM     14  C   UNL     1       2.393   4.075  20.516  0.00  0.00    +0.000 A 
ATOM     15  C   UNL     1       1.430   3.224  21.062  0.00  0.00    +0.000 A 
ATOM     16  C   UNL     1       0.560   2.533  20.227  0.00  0.00    +0.000 A 
ATOM     17  C   UNL     1       0.657   2.688  18.846  0.00  0.00    +0.000 A 
ATOM     18  C   UNL     1       1.645   3.514  18.299  0.00  0.00    +0.000 A 
ENDBRANCH   4  13
BRANCH   1  19
ATOM     19  S   UNL     1       7.120   5.208  16.836  0.00  0.00    +0.000 S 
ATOM     20  O   UNL     1       7.827   4.457  17.861  0.00  0.00    +0.000 OA
ATOM     21  O   UNL     1       7.609   6.476  16.342  0.00  0.00    +0.000 OA
BRANCH  19  23
ATOM     22  C   UNL     1       5.611   4.702  14.624  0.00  0.00    +0.000 C 
ATOM     23  C   UNL     1       6.722   4.126  15.480  0.00  0.00    +0.000 C 
ENDBRANCH  19  23
ENDBRANCH   1  19
TORSDOF 4
ENDMDL
MODEL 7
REMARK VINA RESULT:      -8.5      0.203      4.130
REMARK  Name = 
REMARK  5 active torsions:
REMARK  status: ('A' for Active; 'I' for Inactive)
REMARK    1  A    between atoms: C_1  and  C_2
REMARK    2  A    between atoms: C_2  and  S_3
REMARK    3  A    between atoms: S_3  and  C_6
REMARK    4  A    between atoms: C_8  and  C_9
REMARK    5  A    between atoms: C_15  and  C_16
REMARK                            x       y       z     vdW  Elec       q    Type
REMARK                         _______ _______ _______ _____ _____    ______ ____
ROOT
ATOM      1  C   UNL     1       5.577   5.403  17.387  0.00  0.00    +0.000 A 
ATOM      2  N   UNL     1       4.950   6.561  17.457  0.00  0.00    +0.000 NA
ATOM      3  C   UNL     1       3.811   6.322  18.204  0.00  0.00    +0.000 A 
ATOM      4  C   UNL     1       3.691   4.966  18.510  0.00  0.00    +0.000 A 
ATOM      5  N   UNL     1       4.857   4.425  18.016  0.00  0.00    +0.000 N 
ATOM      6  H   UNL     1       5.136   3.453  18.046  0.00  0.00    +0.000 HD
ENDROOT
BRANCH   3   7
ATOM      7  C   UNL     1       2.887   7.396  18.544  0.00  0.00    +0.000 A 
ATOM      8  C   UNL     1       2.600   8.387  17.596  0.00  0.00    +0.000 A 
ATOM      9  C   UNL     1       1.682   9.402  17.881  0.00  0.00    +0.000 A 
ATOM     10  C   UNL     1       1.039   9.434  19.116  0.00  0.00    +0.000 A 
ATOM     11  C   UNL     1       1.336   8.473  20.079  0.00  0.00    +0.000 A 
ATOM     12  C   UNL     1       2.273   7.475  19.803  0.00  0.00    +0.000 A 
ENDBRANCH   3   7
BRANCH   4  13
ATOM     13  C   UNL     1       2.657   4.147  19.152  0.00  0.00    +0.000 A 
ATOM     14  C   UNL     1       1.705   3.461  18.385  0.00  0.00    +0.000 A 
ATOM     15  C   UNL     1       0.680   2.732  18.991  0.00  0.00    +0.000 A 
ATOM     16  C   UNL     1       0.621   2.635  20.377  0.00  0.00    +0.000 A 
ATOM     17  C   UNL     1       1.584   3.271  21.156  0.00  0.00    +0.000 A 
ATOM     18  C   UNL     1       2.591   4.029  20.549  0.00  0.00    +0.000 A 
ENDBRANCH   4  13
BRANCH   1  19
ATOM     19  S   UNL     1       7.096   5.050  16.559  0.00  0.00    +0.000 S 
ATOM     20  O   UNL     1       7.890   4.374  17.573  0.00  0.00    +0.000 OA
ATOM     21  O   UNL     1       7.527   6.287  15.948  0.00  0.00    +0.000 OA
BRANCH  19  23
ATOM     22  C   UNL     1       5.577   4.467  14.373  0.00  0.00    +0.000 C 
ATOM     23  C   UNL     1       6.612   3.877  15.310  0.00  0.00    +0.000 C 
ENDBRANCH  19  23
ENDBRANCH   1  19
TORSDOF 4
ENDMDL
MODEL 8
REMARK VINA RESULT:      -8.5      1.059      1.934
REMARK  Name = 
REMARK  5 active torsions:
REMARK  status: ('A' for Active; 'I' for Inactive)
REMARK    1  A    between atoms: C_1  and  C_2
REMARK    2  A    between atoms: C_2  and  S_3
REMARK    3  A    between atoms: S_3  and  C_6
REMARK    4  A    between atoms: C_8  and  C_9
REMARK    5  A    between atoms: C_15  and  C_16
REMARK                            x       y       z     vdW  Elec       q    Type
REMARK                         _______ _______ _______ _____ _____    ______ ____
ROOT
ATOM      1  C   UNL     1       5.299   5.745  17.360  0.00  0.00    +0.000 A 
ATOM      2  N   UNL     1       4.703   4.723  17.941  0.00  0.00    +0.000 NA
ATOM      3  C   UNL     1       3.509   5.218  18.431  0.00  0.00    +0.000 A 
ATOM      4  C   UNL     1       3.422   6.596  18.232  0.00  0.00    +0.000 A 
ATOM      5  N   UNL     1       4.556   6.884  17.506  0.00  0.00    +0.000 N 
ATOM      6  H   UNL     1       4.848   7.793  17.170  0.00  0.00    +0.000 HD
ENDROOT
BRANCH   3   7
ATOM      7  C   UNL     1       2.543   4.352  19.094  0.00  0.00    +0.000 A 
ATOM      8  C   UNL     1       1.640   3.606  18.325  0.00  0.00    +0.000 A 
ATOM      9  C   UNL     1       0.735   2.733  18.935  0.00  0.00    +0.000 A 
ATOM     10  C   UNL     1       0.727   2.594  20.321  0.00  0.00    +0.000 A 
ATOM     11  C   UNL     1       1.599   3.349  21.100  0.00  0.00    +0.000 A 
ATOM     12  C   UNL     1       2.484   4.241  20.492  0.00  0.00    +0.000 A 
ENDBRANCH   3   7
BRANCH   4  13
ATOM     13  C   UNL     1       2.469   7.635  18.641  0.00  0.00    +0.000 A 
ATOM     14  C   UNL     1       1.989   8.573  17.717  0.00  0.00    +0.000 A 
ATOM     15  C   UNL     1       1.134   9.603  18.114  0.00  0.00    +0.000 A 
ATOM     16  C   UNL     1       0.702   9.680  19.433  0.00  0.00    +0.000 A 
ATOM     17  C   UNL     1       1.131   8.730  20.357  0.00  0.00    +0.000 A 
ATOM     18  C   UNL     1       2.016   7.719  19.967  0.00  0.00    +0.000 A 
ENDBRANCH   4  13
BRANCH   1  19
ATOM     19  S   UNL     1       6.867   5.758  16.549  0.00  0.00    +0.000 S 
ATOM     20  O   UNL     1       6.526   5.915  15.145  0.00  0.00    +0.000 OA
ATOM     21  O   UNL     1       7.591   4.606  17.038  0.00  0.00    +0.000 OA
BRANCH  19  23
ATOM     22  C   UNL     1       8.088   7.108  18.578  0.00  0.00    +0.000 C 
ATOM     23  C   UNL     1       7.617   7.259  17.145  0.00  0.00    +0.000 C 
ENDBRANCH  19  23
ENDBRANCH   1  19
TORSDOF 4
ENDMDL
MODEL 9
REMARK VINA RESULT:      -8.5      0.246      4.238
REMARK  Name = 
REMARK  5 active torsions:
REMARK  status: ('A' for Active; 'I' for Inactive)
REMARK    1  A    between atoms: C_1  and  C_2
REMARK    2  A    between atoms: C_2  and  S_3
REMARK    3  A    between atoms: S_3  and  C_6
REMARK    4  A    between atoms: C_8  and  C_9
REMARK    5  A    between atoms: C_15  and  C_16
REMARK                            x       y       z     vdW  Elec       q    Type
REMARK                         _______ _______ _______ _____ _____    ______ ____
ROOT
ATOM      1  C   UNL     1       5.537   5.400  17.379  0.00  0.00    +0.000 A 
ATOM      2  N   UNL     1       4.929   6.567  17.458  0.00  0.00    +0.000 NA
ATOM      3  C   UNL     1       3.776   6.337  18.185  0.00  0.00    +0.000 A 
ATOM      4  C   UNL     1       3.629   4.979  18.470  0.00  0.00    +0.000 A 
ATOM      5  N   UNL     1       4.792   4.425  17.984  0.00  0.00    +0.000 N 
ATOM      6  H   UNL     1       5.054   3.448  18.004  0.00  0.00    +0.000 HD
ENDROOT
BRANCH   3   7
ATOM      7  C   UNL     1       2.866   7.422  18.528  0.00  0.00    +0.000 A 
ATOM      8  C   UNL     1       2.580   8.411  17.578  0.00  0.00    +0.000 A 
ATOM      9  C   UNL     1       1.675   9.436  17.866  0.00  0.00    +0.000 A 
ATOM     10  C   UNL     1       1.043   9.481  19.107  0.00  0.00    +0.000 A 
ATOM     11  C   UNL     1       1.339   8.521  20.071  0.00  0.00    +0.000 A 
ATOM     12  C   UNL     1       2.263   7.513  19.792  0.00  0.00    +0.000 A 
ENDBRANCH   3   7
BRANCH   4  13
ATOM     13  C   UNL     1       2.572   4.168  19.086  0.00  0.00    +0.000 A 
ATOM     14  C   UNL     1       2.437   4.104  20.480  0.00  0.00    +0.000 A 
ATOM     15  C   UNL     1       1.477   3.284  21.075  0.00  0.00    +0.000 A 
ATOM     16  C   UNL     1       0.599   2.553  20.282  0.00  0.00    +0.000 A 
ATOM     17  C   UNL     1       0.687   2.638  18.894  0.00  0.00    +0.000 A 
ATOM     18  C   UNL     1       1.672   3.434  18.299  0.00  0.00    +0.000 A 
ENDBRANCH   4  13
BRANCH   1  19
ATOM     19  S   UNL     1       7.062   5.032  16.568  0.00  0.00    +0.000 S 
ATOM     20  O   UNL     1       7.871   4.429  17.615  0.00  0.00    +0.000 OA
ATOM     21  O   UNL     1       7.467   6.242  15.888  0.00  0.00    +0.000 OA
BRANCH  19  23
ATOM     22  C   UNL     1       5.823   4.381  14.229  0.00  0.00    +0.000 C 
ATOM     23  C   UNL     1       6.599   3.783  15.386  0.00  0.00    +0.000 C 
ENDBRANCH  19  23
ENDBRANCH   1  19
TORSDOF 4
ENDMDL
