MODEL 1
REMARK VINA RESULT:      -7.5      0.000      0.000
REMARK  Name = 
REMARK  9 active torsions:
REMARK  status: ('A' for Active; 'I' for Inactive)
REMARK    1  A    between atoms: C_1  and  C_2
REMARK    2  A    between atoms: C_2  and  N_3
REMARK    3  A    between atoms: C_9  and  N_10
REMARK    4  A    between atoms: N_13  and  C_14
REMARK    5  A    between atoms: C_14  and  C_15
REMARK    6  A    between atoms: C_14  and  C_16
REMARK    7  A    between atoms: C_23  and  C_24
REMARK    8  A    between atoms: C_24  and  O_25
REMARK    9  A    between atoms: O_25  and  C_26
REMARK                            x       y       z     vdW  Elec       q    Type
REMARK                         _______ _______ _______ _____ _____    ______ ____
ROOT
ATOM      1  N   UNL     1       3.768   3.799  16.945  0.00  0.00    +0.000 N 
ATOM      2  C   UNL     1       4.706   4.086  17.882  0.00  0.00    +0.000 A 
ATOM      3  N   UNL     1       4.874   3.417  19.025  0.00  0.00    +0.000 NA
ATOM      4  N   UNL     1       5.864   4.069  19.648  0.00  0.00    +0.000 N 
ATOM      5  C   UNL     1       6.343   5.152  18.964  0.00  0.00    +0.000 A 
ATOM      6  C   UNL     1       7.334   6.089  19.272  0.00  0.00    +0.000 A 
ATOM      7  C   UNL     1       7.570   7.054  18.298  0.00  0.00    +0.000 A 
ATOM      8  N   UNL     1       6.906   7.083  17.136  0.00  0.00    +0.000 NA
ATOM      9  C   UNL     1       5.930   6.172  16.830  0.00  0.00    +0.000 A 
ATOM     10  C   UNL     1       5.622   5.178  17.776  0.00  0.00    +0.000 A 
ATOM     11  H   UNL     1       3.544   4.555  16.296  0.00  0.00    +0.000 HD
ATOM     12  H   UNL     1       6.165   3.720  20.549  0.00  0.00    +0.000 HD
ENDROOT
BRANCH   7  13
ATOM     13  N   UNL     1       8.561   8.015  18.554  0.00  0.00    +0.000 N 
ATOM     14  C   UNL     1       8.492   9.349  18.206  0.00  0.00    +0.000 C 
ATOM     15  O   UNL     1       7.581   9.929  17.630  0.00  0.00    +0.000 OA
ATOM     16  N   UNL     1       9.632  10.016  18.600  0.00  0.00    +0.000 N 
ATOM     17  H   UNL     1       9.378   7.707  19.048  0.00  0.00    +0.000 HD
ATOM     18  H   UNL     1      10.319   9.524  19.149  0.00  0.00    +0.000 HD
BRANCH  16  19
ATOM     19  C   UNL     1       9.781  11.460  18.482  0.00  0.00    +0.000 C 
ATOM     20  C   UNL     1      11.186  11.859  18.019  0.00  0.00    +0.000 C 
BRANCH  19  21
ATOM     21  C   UNL     1       9.447  12.098  19.821  0.00  0.00    +0.000 A 
ATOM     22  C   UNL     1       9.310  11.304  20.969  0.00  0.00    +0.000 A 
ATOM     23  C   UNL     1       9.047  11.891  22.207  0.00  0.00    +0.000 A 
ATOM     24  C   UNL     1       8.926  13.276  22.316  0.00  0.00    +0.000 A 
ATOM     25  C   UNL     1       9.057  14.076  21.186  0.00  0.00    +0.000 A 
ATOM     26  C   UNL     1       9.312  13.492  19.946  0.00  0.00    +0.000 A 
ENDBRANCH  19  21
ENDBRANCH  16  19
ENDBRANCH   7  13
BRANCH   1  28
ATOM     27  C   UNL     1       1.470   3.965  17.766  0.00  0.00    +0.000 C 
ATOM     28  C   UNL     1       2.595   3.033  17.350  0.00  0.00    +0.000 C 
ENDBRANCH   1  28
BRANCH   9  29
ATOM     29  C   UNL     1       5.351   6.283  15.446  0.00  0.00    +0.000 C 
BRANCH  29  30
ATOM     30  O   UNL     1       5.523   5.076  14.694  0.00  0.00    +0.000 OA
ATOM     31  C   UNL     1       6.908   4.826  14.479  0.00  0.00    +0.000 C 
ENDBRANCH  29  30
ENDBRANCH   9  29
TORSDOF 6
ENDMDL
MODEL 2
REMARK VINA RESULT:      -7.5      6.141      9.393
REMARK  Name = 
REMARK  9 active torsions:
REMARK  status: ('A' for Active; 'I' for Inactive)
REMARK    1  A    between atoms: C_1  and  C_2
REMARK    2  A    between atoms: C_2  and  N_3
REMARK    3  A    between atoms: C_9  and  N_10
REMARK    4  A    between atoms: N_13  and  C_14
REMARK    5  A    between atoms: C_14  and  C_15
REMARK    6  A    between atoms: C_14  and  C_16
REMARK    7  A    between atoms: C_23  and  C_24
REMARK    8  A    between atoms: C_24  and  O_25
REMARK    9  A    between atoms: O_25  and  C_26
REMARK                            x       y       z     vdW  Elec       q    Type
REMARK                         _______ _______ _______ _____ _____    ______ ____
ROOT
ATOM      1  N   UNL     1      -1.366  11.837  20.500  0.00  0.00    +0.000 N 
ATOM      2  C   UNL     1      -0.417  11.243  19.734  0.00  0.00    +0.000 A 
ATOM      3  N   UNL     1      -0.021  11.676  18.535  0.00  0.00    +0.000 NA
ATOM      4  N   UNL     1       0.882  10.771  18.137  0.00  0.00    +0.000 N 
ATOM      5  C   UNL     1       1.084   9.748  19.024  0.00  0.00    +0.000 A 
ATOM      6  C   UNL     1       1.904   8.618  18.977  0.00  0.00    +0.000 A 
ATOM      7  C   UNL     1       1.864   7.800  20.102  0.00  0.00    +0.000 A 
ATOM      8  N   UNL     1       1.102   8.077  21.167  0.00  0.00    +0.000 NA
ATOM      9  C   UNL     1       0.291   9.180  21.218  0.00  0.00    +0.000 A 
ATOM     10  C   UNL     1       0.264  10.043  20.108  0.00  0.00    +0.000 A 
ATOM     11  H   UNL     1      -1.787  11.247  21.220  0.00  0.00    +0.000 HD
ATOM     12  H   UNL     1       1.325  10.910  17.238  0.00  0.00    +0.000 HD
ENDROOT
BRANCH   7  13
ATOM     13  N   UNL     1       2.675   6.655  20.109  0.00  0.00    +0.000 N 
ATOM     14  C   UNL     1       2.640   5.642  19.172  0.00  0.00    +0.000 C 
ATOM     15  O   UNL     1       1.922   5.555  18.186  0.00  0.00    +0.000 OA
ATOM     16  N   UNL     1       3.564   4.665  19.475  0.00  0.00    +0.000 N 
ATOM     17  H   UNL     1       3.349   6.579  20.850  0.00  0.00    +0.000 HD
ATOM     18  H   UNL     1       4.198   4.815  20.244  0.00  0.00    +0.000 HD
BRANCH  16  19
ATOM     19  C   UNL     1       3.843   3.542  18.591  0.00  0.00    +0.000 C 
ATOM     20  C   UNL     1       4.253   2.286  19.365  0.00  0.00    +0.000 C 
BRANCH  19  21
ATOM     21  C   UNL     1       4.923   3.951  17.604  0.00  0.00    +0.000 A 
ATOM     22  C   UNL     1       6.164   4.418  18.064  0.00  0.00    +0.000 A 
ATOM     23  C   UNL     1       7.173   4.752  17.161  0.00  0.00    +0.000 A 
ATOM     24  C   UNL     1       6.961   4.618  15.790  0.00  0.00    +0.000 A 
ATOM     25  C   UNL     1       5.736   4.158  15.318  0.00  0.00    +0.000 A 
ATOM     26  C   UNL     1       4.723   3.830  16.217  0.00  0.00    +0.000 A 
ENDBRANCH  19  21
ENDBRANCH  16  19
ENDBRANCH   7  13
BRANCH   1  28
ATOM     27  C   UNL     1      -2.318  14.091  20.496  0.00  0.00    +0.000 C 
ATOM     28  C   UNL     1      -2.331  12.715  19.849  0.00  0.00    +0.000 C 
ENDBRANCH   1  28
BRANCH   9  29
ATOM     29  C   UNL     1      -0.424   9.400  22.523  0.00  0.00    +0.000 C 
BRANCH  29  30
ATOM     30  O   UNL     1      -0.213  10.720  23.035  0.00  0.00    +0.000 OA
ATOM     31  C   UNL     1      -1.462  11.329  23.351  0.00  0.00    +0.000 C 
ENDBRANCH  29  30
ENDBRANCH   9  29
TORSDOF 6
ENDMDL
MODEL 3
REMARK VINA RESULT:      -7.4      6.602      8.798
REMARK  Name = 
REMARK  9 active torsions:
REMARK  status: ('A' for Active; 'I' for Inactive)
REMARK    1  A    between atoms: C_1  and  C_2
REMARK    2  A    between atoms: C_2  and  N_3
REMARK    3  A    between atoms: C_9  and  N_10
REMARK    4  A    between atoms: N_13  and  C_14
REMARK    5  A    between atoms: C_14  and  C_15
REMARK    6  A    between atoms: C_14  and  C_16
REMARK    7  A    between atoms: C_23  and  C_24
REMARK    8  A    between atoms: C_24  and  O_25
REMARK    9  A    between atoms: O_25  and  C_26
REMARK                            x       y       z     vdW  Elec       q    Type
REMARK                         _______ _______ _______ _____ _____    ______ ____
ROOT
ATOM      1  N   UNL     1      -0.964  13.170  21.476  0.00  0.00    +0.000 N 
ATOM      2  C   UNL     1      -0.695  11.919  21.927  0.00  0.00    +0.000 A 
ATOM      3  N   UNL     1      -0.984  11.467  23.149  0.00  0.00    +0.000 NA
ATOM      4  N   UNL     1      -0.503  10.218  23.163  0.00  0.00    +0.000 N 
ATOM      5  C   UNL     1       0.107   9.835  22.000  0.00  0.00    +0.000 A 
ATOM      6  C   UNL     1       0.743   8.649  21.625  0.00  0.00    +0.000 A 
ATOM      7  C   UNL     1       1.229   8.615  20.322  0.00  0.00    +0.000 A 
ATOM      8  N   UNL     1       1.089   9.642  19.473  0.00  0.00    +0.000 NA
ATOM      9  C   UNL     1       0.471  10.809  19.836  0.00  0.00    +0.000 A 
ATOM     10  C   UNL     1      -0.027  10.923  21.146  0.00  0.00    +0.000 A 
ATOM     11  H   UNL     1      -0.422  13.475  20.666  0.00  0.00    +0.000 HD
ATOM     12  H   UNL     1      -0.623   9.676  24.010  0.00  0.00    +0.000 HD
ENDROOT
BRANCH   7  13
ATOM     13  N   UNL     1       1.871   7.444  19.891  0.00  0.00    +0.000 N 
ATOM     14  C   UNL     1       2.588   7.308  18.718  0.00  0.00    +0.000 C 
ATOM     15  O   UNL     1       2.796   8.157  17.863  0.00  0.00    +0.000 OA
ATOM     16  N   UNL     1       3.085   6.028  18.596  0.00  0.00    +0.000 N 
ATOM     17  H   UNL     1       1.818   6.646  20.496  0.00  0.00    +0.000 HD
ATOM     18  H   UNL     1       2.968   5.384  19.362  0.00  0.00    +0.000 HD
BRANCH  16  19
ATOM     19  C   UNL     1       3.990   5.633  17.526  0.00  0.00    +0.000 C 
ATOM     20  C   UNL     1       3.890   4.138  17.208  0.00  0.00    +0.000 C 
BRANCH  19  21
ATOM     21  C   UNL     1       5.409   6.013  17.918  0.00  0.00    +0.000 A 
ATOM     22  C   UNL     1       6.061   5.337  18.960  0.00  0.00    +0.000 A 
ATOM     23  C   UNL     1       7.379   5.653  19.292  0.00  0.00    +0.000 A 
ATOM     24  C   UNL     1       8.063   6.641  18.585  0.00  0.00    +0.000 A 
ATOM     25  C   UNL     1       7.428   7.321  17.551  0.00  0.00    +0.000 A 
ATOM     26  C   UNL     1       6.110   7.013  17.221  0.00  0.00    +0.000 A 
ENDBRANCH  19  21
ENDBRANCH  16  19
ENDBRANCH   7  13
BRANCH   1  28
ATOM     27  C   UNL     1      -2.610  14.702  22.439  0.00  0.00    +0.000 C 
ATOM     28  C   UNL     1      -1.165  14.230  22.457  0.00  0.00    +0.000 C 
ENDBRANCH   1  28
BRANCH   9  29
ATOM     29  C   UNL     1       0.308  11.825  18.739  0.00  0.00    +0.000 C 
BRANCH  29  30
ATOM     30  O   UNL     1       0.887  13.088  19.086  0.00  0.00    +0.000 OA
ATOM     31  C   UNL     1       2.308  12.988  19.099  0.00  0.00    +0.000 C 
ENDBRANCH  29  30
ENDBRANCH   9  29
TORSDOF 6
ENDMDL
MODEL 4
REMARK VINA RESULT:      -7.3      0.466      1.038
REMARK  Name = 
REMARK  9 active torsions:
REMARK  status: ('A' for Active; 'I' for Inactive)
REMARK    1  A    between atoms: C_1  and  C_2
REMARK    2  A    between atoms: C_2  and  N_3
REMARK    3  A    between atoms: C_9  and  N_10
REMARK    4  A    between atoms: N_13  and  C_14
REMARK    5  A    between atoms: C_14  and  C_15
REMARK    6  A    between atoms: C_14  and  C_16
REMARK    7  A    between atoms: C_23  and  C_24
REMARK    8  A    between atoms: C_24  and  O_25
REMARK    9  A    between atoms: O_25  and  C_26
REMARK                            x       y       z     vdW  Elec       q    Type
REMARK                         _______ _______ _______ _____ _____    ______ ____
ROOT
ATOM      1  N   UNL     1       3.789   3.349  17.078  0.00  0.00    +0.000 N 
ATOM      2  C   UNL     1       4.656   3.742  18.045  0.00  0.00    +0.000 A 
ATOM      3  N   UNL     1       4.738   3.205  19.264  0.00  0.00    +0.000 NA
ATOM      4  N   UNL     1       5.681   3.927  19.882  0.00  0.00    +0.000 N 
ATOM      5  C   UNL     1       6.213   4.931  19.119  0.00  0.00    +0.000 A 
ATOM      6  C   UNL     1       7.180   5.901  19.393  0.00  0.00    +0.000 A 
ATOM      7  C   UNL     1       7.491   6.754  18.339  0.00  0.00    +0.000 A 
ATOM      8  N   UNL     1       6.914   6.650  17.135  0.00  0.00    +0.000 NA
ATOM      9  C   UNL     1       5.961   5.706  16.860  0.00  0.00    +0.000 A 
ATOM     10  C   UNL     1       5.581   4.821  17.886  0.00  0.00    +0.000 A 
ATOM     11  H   UNL     1       3.616   4.028  16.335  0.00  0.00    +0.000 HD
ATOM     12  H   UNL     1       5.914   3.681  20.835  0.00  0.00    +0.000 HD
ENDROOT
BRANCH   7  13
ATOM     13  N   UNL     1       8.463   7.742  18.558  0.00  0.00    +0.000 N 
ATOM     14  C   UNL     1       8.372   9.059  18.153  0.00  0.00    +0.000 C 
ATOM     15  O   UNL     1       7.456   9.597  17.549  0.00  0.00    +0.000 OA
ATOM     16  N   UNL     1       9.498   9.762  18.524  0.00  0.00    +0.000 N 
ATOM     17  H   UNL     1       9.283   7.470  19.069  0.00  0.00    +0.000 HD
ATOM     18  H   UNL     1      10.191   9.306  19.097  0.00  0.00    +0.000 HD
BRANCH  16  19
ATOM     19  C   UNL     1       9.623  11.202  18.346  0.00  0.00    +0.000 C 
ATOM     20  C   UNL     1      11.012  11.603  17.840  0.00  0.00    +0.000 C 
BRANCH  19  21
ATOM     21  C   UNL     1       9.304  11.888  19.664  0.00  0.00    +0.000 A 
ATOM     22  C   UNL     1       9.061  13.270  19.703  0.00  0.00    +0.000 A 
ATOM     23  C   UNL     1       8.724  13.894  20.905  0.00  0.00    +0.000 A 
ATOM     24  C   UNL     1       8.619  13.149  22.078  0.00  0.00    +0.000 A 
ATOM     25  C   UNL     1       8.859  11.779  22.055  0.00  0.00    +0.000 A 
ATOM     26  C   UNL     1       9.203  11.153  20.859  0.00  0.00    +0.000 A 
ENDBRANCH  19  21
ENDBRANCH  16  19
ENDBRANCH   7  13
BRANCH   1  28
ATOM     27  C   UNL     1       1.525   3.595  17.972  0.00  0.00    +0.000 C 
ATOM     28  C   UNL     1       2.587   2.626  17.479  0.00  0.00    +0.000 C 
ENDBRANCH   1  28
BRANCH   9  29
ATOM     29  C   UNL     1       5.485   5.659  15.434  0.00  0.00    +0.000 C 
BRANCH  29  30
ATOM     30  O   UNL     1       6.573   5.700  14.504  0.00  0.00    +0.000 OA
ATOM     31  C   UNL     1       6.616   4.494  13.747  0.00  0.00    +0.000 C 
ENDBRANCH  29  30
ENDBRANCH   9  29
TORSDOF 6
ENDMDL
MODEL 5
REMARK VINA RESULT:      -7.2      6.317      9.158
REMARK  Name = 
REMARK  9 active torsions:
REMARK  status: ('A' for Active; 'I' for Inactive)
REMARK    1  A    between atoms: C_1  and  C_2
REMARK    2  A    between atoms: C_2  and  N_3
REMARK    3  A    between atoms: C_9  and  N_10
REMARK    4  A    between atoms: N_13  and  C_14
REMARK    5  A    between atoms: C_14  and  C_15
REMARK    6  A    between atoms: C_14  and  C_16
REMARK    7  A    between atoms: C_23  and  C_24
REMARK    8  A    between atoms: C_24  and  O_25
REMARK    9  A    between atoms: O_25  and  C_26
REMARK                            x       y       z     vdW  Elec       q    Type
REMARK                         _______ _______ _______ _____ _____    ______ ____
ROOT
ATOM      1  N   UNL     1      -1.402  12.029  21.175  0.00  0.00    +0.000 N 
ATOM      2  C   UNL     1      -0.880  10.903  21.724  0.00  0.00    +0.000 A 
ATOM      3  N   UNL     1      -1.114  10.479  22.968  0.00  0.00    +0.000 NA
ATOM      4  N   UNL     1      -0.365   9.375  23.087  0.00  0.00    +0.000 N 
ATOM      5  C   UNL     1       0.365   9.065  21.973  0.00  0.00    +0.000 A 
ATOM      6  C   UNL     1       1.268   8.033  21.704  0.00  0.00    +0.000 A 
ATOM      7  C   UNL     1       1.806   8.025  20.421  0.00  0.00    +0.000 A 
ATOM      8  N   UNL     1       1.476   8.935  19.496  0.00  0.00    +0.000 NA
ATOM      9  C   UNL     1       0.597   9.953  19.754  0.00  0.00    +0.000 A 
ATOM     10  C   UNL     1       0.028  10.037  21.038  0.00  0.00    +0.000 A 
ATOM     11  H   UNL     1      -0.908  12.395  20.360  0.00  0.00    +0.000 HD
ATOM     12  H   UNL     1      -0.397   8.877  23.968  0.00  0.00    +0.000 HD
ENDROOT
BRANCH   7  13
ATOM     13  N   UNL     1       2.712   7.005  20.096  0.00  0.00    +0.000 N 
ATOM     14  C   UNL     1       2.482   5.987  19.192  0.00  0.00    +0.000 C 
ATOM     15  O   UNL     1       1.478   5.790  18.521  0.00  0.00    +0.000 OA
ATOM     16  N   UNL     1       3.575   5.151  19.109  0.00  0.00    +0.000 N 
ATOM     17  H   UNL     1       3.609   7.030  20.546  0.00  0.00    +0.000 HD
ATOM     18  H   UNL     1       4.415   5.395  19.610  0.00  0.00    +0.000 HD
BRANCH  16  19
ATOM     19  C   UNL     1       3.668   4.068  18.140  0.00  0.00    +0.000 C 
ATOM     20  C   UNL     1       3.638   2.690  18.808  0.00  0.00    +0.000 C 
BRANCH  19  21
ATOM     21  C   UNL     1       4.936   4.249  17.323  0.00  0.00    +0.000 A 
ATOM     22  C   UNL     1       4.879   4.273  15.921  0.00  0.00    +0.000 A 
ATOM     23  C   UNL     1       6.036   4.484  15.169  0.00  0.00    +0.000 A 
ATOM     24  C   UNL     1       7.260   4.682  15.806  0.00  0.00    +0.000 A 
ATOM     25  C   UNL     1       7.333   4.660  17.195  0.00  0.00    +0.000 A 
ATOM     26  C   UNL     1       6.181   4.442  17.948  0.00  0.00    +0.000 A 
ENDBRANCH  19  21
ENDBRANCH  16  19
ENDBRANCH   7  13
BRANCH   1  28
ATOM     27  C   UNL     1      -3.399  13.113  22.082  0.00  0.00    +0.000 C 
ATOM     28  C   UNL     1      -1.880  13.077  22.068  0.00  0.00    +0.000 C 
ENDBRANCH   1  28
BRANCH   9  29
ATOM     29  C   UNL     1       0.258  10.831  18.580  0.00  0.00    +0.000 C 
BRANCH  29  30
ATOM     30  O   UNL     1      -1.155  10.925  18.370  0.00  0.00    +0.000 OA
ATOM     31  C   UNL     1      -1.572   9.960  17.409  0.00  0.00    +0.000 C 
ENDBRANCH  29  30
ENDBRANCH   9  29
TORSDOF 6
ENDMDL
MODEL 6
REMARK VINA RESULT:      -7.1      5.496      6.216
REMARK  Name = 
REMARK  9 active torsions:
REMARK  status: ('A' for Active; 'I' for Inactive)
REMARK    1  A    between atoms: C_1  and  C_2
REMARK    2  A    between atoms: C_2  and  N_3
REMARK    3  A    between atoms: C_9  and  N_10
REMARK    4  A    between atoms: N_13  and  C_14
REMARK    5  A    between atoms: C_14  and  C_15
REMARK    6  A    between atoms: C_14  and  C_16
REMARK    7  A    between atoms: C_23  and  C_24
REMARK    8  A    between atoms: C_24  and  O_25
REMARK    9  A    between atoms: O_25  and  C_26
REMARK                            x       y       z     vdW  Elec       q    Type
REMARK                         _______ _______ _______ _____ _____    ______ ____
ROOT
ATOM      1  N   UNL     1       4.463   3.471  19.077  0.00  0.00    +0.000 N 
ATOM      2  C   UNL     1       3.648   4.435  19.574  0.00  0.00    +0.000 A 
ATOM      3  N   UNL     1       2.896   4.311  20.670  0.00  0.00    +0.000 NA
ATOM      4  N   UNL     1       2.233   5.472  20.750  0.00  0.00    +0.000 N 
ATOM      5  C   UNL     1       2.509   6.350  19.739  0.00  0.00    +0.000 A 
ATOM      6  C   UNL     1       2.022   7.628  19.451  0.00  0.00    +0.000 A 
ATOM      7  C   UNL     1       2.568   8.239  18.327  0.00  0.00    +0.000 A 
ATOM      8  N   UNL     1       3.508   7.655  17.574  0.00  0.00    +0.000 NA
ATOM      9  C   UNL     1       3.986   6.401  17.846  0.00  0.00    +0.000 A 
ATOM     10  C   UNL     1       3.465   5.712  18.956  0.00  0.00    +0.000 A 
ATOM     11  H   UNL     1       4.723   3.574  18.094  0.00  0.00    +0.000 HD
ATOM     12  H   UNL     1       1.598   5.599  21.528  0.00  0.00    +0.000 HD
ENDROOT
BRANCH   7  13
ATOM     13  N   UNL     1       2.119   9.527  17.998  0.00  0.00    +0.000 N 
ATOM     14  C   UNL     1       1.354  10.341  18.809  0.00  0.00    +0.000 C 
ATOM     15  O   UNL     1       0.938  10.103  19.934  0.00  0.00    +0.000 OA
ATOM     16  N   UNL     1       1.084  11.539  18.183  0.00  0.00    +0.000 N 
ATOM     17  H   UNL     1       2.395   9.892  17.104  0.00  0.00    +0.000 HD
ATOM     18  H   UNL     1       1.516  11.734  17.294  0.00  0.00    +0.000 HD
BRANCH  16  19
ATOM     19  C   UNL     1       0.408  12.643  18.851  0.00  0.00    +0.000 C 
ATOM     20  C   UNL     1      -1.055  12.772  18.418  0.00  0.00    +0.000 C 
BRANCH  19  21
ATOM     21  C   UNL     1       1.174  13.926  18.573  0.00  0.00    +0.000 A 
ATOM     22  C   UNL     1       0.603  15.172  18.875  0.00  0.00    +0.000 A 
ATOM     23  C   UNL     1       1.321  16.349  18.662  0.00  0.00    +0.000 A 
ATOM     24  C   UNL     1       2.618  16.298  18.154  0.00  0.00    +0.000 A 
ATOM     25  C   UNL     1       3.197  15.070  17.848  0.00  0.00    +0.000 A 
ATOM     26  C   UNL     1       2.480  13.893  18.053  0.00  0.00    +0.000 A 
ENDBRANCH  19  21
ENDBRANCH  16  19
ENDBRANCH   7  13
BRANCH   1  28
ATOM     27  C   UNL     1       3.418   1.376  18.367  0.00  0.00    +0.000 C 
ATOM     28  C   UNL     1       4.208   2.086  19.455  0.00  0.00    +0.000 C 
ENDBRANCH   1  28
BRANCH   9  29
ATOM     29  C   UNL     1       5.109   5.928  16.963  0.00  0.00    +0.000 C 
BRANCH  29  30
ATOM     30  O   UNL     1       4.804   4.681  16.329  0.00  0.00    +0.000 OA
ATOM     31  C   UNL     1       5.999   4.069  15.852  0.00  0.00    +0.000 C 
ENDBRANCH  29  30
ENDBRANCH   9  29
TORSDOF 6
ENDMDL
MODEL 7
REMARK VINA RESULT:      -7.0      6.900      9.532
REMARK  Name = 
REMARK  9 active torsions:
REMARK  status: ('A' for Active; 'I' for Inactive)
REMARK    1  A    between atoms: C_1  and  C_2
REMARK    2  A    between atoms: C_2  and  N_3
REMARK    3  A    between atoms: C_9  and  N_10
REMARK    4  A    between atoms: N_13  and  C_14
REMARK    5  A    between atoms: C_14  and  C_15
REMARK    6  A    between atoms: C_14  and  C_16
REMARK    7  A    between atoms: C_23  and  C_24
REMARK    8  A    between atoms: C_24  and  O_25
REMARK    9  A    between atoms: O_25  and  C_26
REMARK                            x       y       z     vdW  Elec       q    Type
REMARK                         _______ _______ _______ _____ _____    ______ ____
ROOT
ATOM      1  N   UNL     1      -2.073  12.088  22.219  0.00  0.00    +0.000 N 
ATOM      2  C   UNL     1      -1.162  11.090  22.350  0.00  0.00    +0.000 A 
ATOM      3  N   UNL     1      -0.786  10.545  23.510  0.00  0.00    +0.000 NA
ATOM      4  N   UNL     1       0.149   9.650  23.167  0.00  0.00    +0.000 N 
ATOM      5  C   UNL     1       0.414   9.596  21.826  0.00  0.00    +0.000 A 
ATOM      6  C   UNL     1       1.315   8.831  21.081  0.00  0.00    +0.000 A 
ATOM      7  C   UNL     1       1.280   9.033  19.705  0.00  0.00    +0.000 A 
ATOM      8  N   UNL     1       0.433   9.892  19.124  0.00  0.00    +0.000 NA
ATOM      9  C   UNL     1      -0.450  10.649  19.848  0.00  0.00    +0.000 A 
ATOM     10  C   UNL     1      -0.457  10.513  21.248  0.00  0.00    +0.000 A 
ATOM     11  H   UNL     1      -2.031  12.613  21.344  0.00  0.00    +0.000 HD
ATOM     12  H   UNL     1       0.573   9.106  23.907  0.00  0.00    +0.000 HD
ENDROOT
BRANCH   7  13
ATOM     13  N   UNL     1       2.160   8.284  18.910  0.00  0.00    +0.000 N 
ATOM     14  C   UNL     1       2.548   6.981  19.152  0.00  0.00    +0.000 C 
ATOM     15  O   UNL     1       2.207   6.255  20.076  0.00  0.00    +0.000 OA
ATOM     16  N   UNL     1       3.422   6.543  18.181  0.00  0.00    +0.000 N 
ATOM     17  H   UNL     1       2.521   8.729  18.085  0.00  0.00    +0.000 HD
ATOM     18  H   UNL     1       3.610   7.139  17.389  0.00  0.00    +0.000 HD
BRANCH  16  19
ATOM     19  C   UNL     1       3.894   5.167  18.106  0.00  0.00    +0.000 C 
ATOM     20  C   UNL     1       4.734   4.778  19.326  0.00  0.00    +0.000 C 
BRANCH  19  21
ATOM     21  C   UNL     1       4.684   4.989  16.820  0.00  0.00    +0.000 A 
ATOM     22  C   UNL     1       5.022   6.102  16.036  0.00  0.00    +0.000 A 
ATOM     23  C   UNL     1       5.786   5.946  14.879  0.00  0.00    +0.000 A 
ATOM     24  C   UNL     1       6.227   4.681  14.494  0.00  0.00    +0.000 A 
ATOM     25  C   UNL     1       5.898   3.568  15.261  0.00  0.00    +0.000 A 
ATOM     26  C   UNL     1       5.129   3.719  16.413  0.00  0.00    +0.000 A 
ENDBRANCH  19  21
ENDBRANCH  16  19
ENDBRANCH   7  13
BRANCH   1  28
ATOM     27  C   UNL     1      -3.782  12.752  23.837  0.00  0.00    +0.000 C 
ATOM     28  C   UNL     1      -2.346  12.932  23.376  0.00  0.00    +0.000 C 
ENDBRANCH   1  28
BRANCH   9  29
ATOM     29  C   UNL     1      -1.399  11.491  19.039  0.00  0.00    +0.000 C 
BRANCH  29  30
ATOM     30  O   UNL     1      -1.282  12.883  19.353  0.00  0.00    +0.000 OA
ATOM     31  C   UNL     1      -0.303  13.493  18.518  0.00  0.00    +0.000 C 
ENDBRANCH  29  30
ENDBRANCH   9  29
TORSDOF 6
ENDMDL
MODEL 8
REMARK VINA RESULT:      -7.0      7.923     10.779
REMARK  Name = 
REMARK  9 active torsions:
REMARK  status: ('A' for Active; 'I' for Inactive)
REMARK    1  A    between atoms: C_1  and  C_2
REMARK    2  A    between atoms: C_2  and  N_3
REMARK    3  A    between atoms: C_9  and  N_10
REMARK    4  A    between atoms: N_13  and  C_14
REMARK    5  A    between atoms: C_14  and  C_15
REMARK    6  A    between atoms: C_14  and  C_16
REMARK    7  A    between atoms: C_23  and  C_24
REMARK    8  A    between atoms: C_24  and  O_25
REMARK    9  A    between atoms: O_25  and  C_26
REMARK                            x       y       z     vdW  Elec       q    Type
REMARK                         _______ _______ _______ _____ _____    ______ ____
ROOT
ATOM      1  N   UNL     1      -3.950  13.477  20.193  0.00  0.00    +0.000 N 
ATOM      2  C   UNL     1      -3.728  12.502  19.277  0.00  0.00    +0.000 A 
ATOM      3  N   UNL     1      -4.663  11.965  18.489  0.00  0.00    +0.000 NA
ATOM      4  N   UNL     1      -4.010  11.026  17.793  0.00  0.00    +0.000 N 
ATOM      5  C   UNL     1      -2.683  10.913  18.104  0.00  0.00    +0.000 A 
ATOM      6  C   UNL     1      -1.682  10.061  17.633  0.00  0.00    +0.000 A 
ATOM      7  C   UNL     1      -0.416  10.264  18.174  0.00  0.00    +0.000 A 
ATOM      8  N   UNL     1      -0.164  11.220  19.077  0.00  0.00    +0.000 NA
ATOM      9  C   UNL     1      -1.141  12.056  19.548  0.00  0.00    +0.000 A 
ATOM     10  C   UNL     1      -2.451  11.895  19.060  0.00  0.00    +0.000 A 
ATOM     11  H   UNL     1      -3.242  13.567  20.925  0.00  0.00    +0.000 HD
ATOM     12  H   UNL     1      -4.538  10.489  17.117  0.00  0.00    +0.000 HD
ENDROOT
BRANCH   7  13
ATOM     13  N   UNL     1       0.628   9.439  17.730  0.00  0.00    +0.000 N 
ATOM     14  C   UNL     1       1.482   8.718  18.542  0.00  0.00    +0.000 C 
ATOM     15  O   UNL     1       1.486   8.661  19.764  0.00  0.00    +0.000 OA
ATOM     16  N   UNL     1       2.395   8.015  17.787  0.00  0.00    +0.000 N 
ATOM     17  H   UNL     1       0.751   9.353  16.737  0.00  0.00    +0.000 HD
ATOM     18  H   UNL     1       2.304   8.017  16.783  0.00  0.00    +0.000 HD
BRANCH  16  19
ATOM     19  C   UNL     1       3.334   7.065  18.369  0.00  0.00    +0.000 C 
ATOM     20  C   UNL     1       4.467   6.707  17.402  0.00  0.00    +0.000 C 
BRANCH  19  21
ATOM     21  C   UNL     1       2.571   5.823  18.797  0.00  0.00    +0.000 A 
ATOM     22  C   UNL     1       2.044   4.947  17.835  0.00  0.00    +0.000 A 
ATOM     23  C   UNL     1       1.382   3.783  18.226  0.00  0.00    +0.000 A 
ATOM     24  C   UNL     1       1.243   3.474  19.579  0.00  0.00    +0.000 A 
ATOM     25  C   UNL     1       1.759   4.334  20.544  0.00  0.00    +0.000 A 
ATOM     26  C   UNL     1       2.414   5.501  20.157  0.00  0.00    +0.000 A 
ENDBRANCH  19  21
ENDBRANCH  16  19
ENDBRANCH   7  13
BRANCH   1  28
ATOM     27  C   UNL     1      -5.873  14.989  20.204  0.00  0.00    +0.000 C 
ATOM     28  C   UNL     1      -5.308  13.665  20.690  0.00  0.00    +0.000 C 
ENDBRANCH   1  28
BRANCH   9  29
ATOM     29  C   UNL     1      -0.675  13.138  20.483  0.00  0.00    +0.000 C 
BRANCH  29  30
ATOM     30  O   UNL     1      -0.981  14.446  19.985  0.00  0.00    +0.000 OA
ATOM     31  C   UNL     1      -0.825  15.413  21.020  0.00  0.00    +0.000 C 
ENDBRANCH  29  30
ENDBRANCH   9  29
TORSDOF 6
ENDMDL
MODEL 9
REMARK VINA RESULT:      -6.9      7.213     10.347
REMARK  Name = 
REMARK  9 active torsions:
REMARK  status: ('A' for Active; 'I' for Inactive)
REMARK    1  A    between atoms: C_1  and  C_2
REMARK    2  A    between atoms: C_2  and  N_3
REMARK    3  A    between atoms: C_9  and  N_10
REMARK    4  A    between atoms: N_13  and  C_14
REMARK    5  A    between atoms: C_14  and  C_15
REMARK    6  A    between atoms: C_14  and  C_16
REMARK    7  A    between atoms: C_23  and  C_24
REMARK    8  A    between atoms: C_24  and  O_25
REMARK    9  A    between atoms: O_25  and  C_26
REMARK                            x       y       z     vdW  Elec       q    Type
REMARK                         _______ _______ _______ _____ _____    ______ ____
ROOT
ATOM      1  N   UNL     1      -2.710  13.405  20.215  0.00  0.00    +0.000 N 
ATOM      2  C   UNL     1      -2.507  12.393  19.335  0.00  0.00    +0.000 A 
ATOM      3  N   UNL     1      -3.411  11.946  18.460  0.00  0.00    +0.000 NA
ATOM      4  N   UNL     1      -2.801  10.926  17.844  0.00  0.00    +0.000 N 
ATOM      5  C   UNL     1      -1.533  10.674  18.292  0.00  0.00    +0.000 A 
ATOM      6  C   UNL     1      -0.591   9.706  17.935  0.00  0.00    +0.000 A 
ATOM      7  C   UNL     1       0.628   9.780  18.602  0.00  0.00    +0.000 A 
ATOM      8  N   UNL     1       0.892  10.721  19.518  0.00  0.00    +0.000 NA
ATOM      9  C   UNL     1      -0.028  11.669  19.877  0.00  0.00    +0.000 A 
ATOM     10  C   UNL     1      -1.291  11.644  19.258  0.00  0.00    +0.000 A 
ATOM     11  H   UNL     1      -2.076  13.431  21.015  0.00  0.00    +0.000 HD
ATOM     12  H   UNL     1      -3.313  10.437  17.122  0.00  0.00    +0.000 HD
ENDROOT
BRANCH   7  13
ATOM     13  N   UNL     1       1.613   8.836  18.276  0.00  0.00    +0.000 N 
ATOM     14  C   UNL     1       2.148   7.903  19.143  0.00  0.00    +0.000 C 
ATOM     15  O   UNL     1       1.871   7.727  20.321  0.00  0.00    +0.000 OA
ATOM     16  N   UNL     1       3.095   7.131  18.504  0.00  0.00    +0.000 N 
ATOM     17  H   UNL     1       1.941   8.828  17.327  0.00  0.00    +0.000 HD
ATOM     18  H   UNL     1       3.232   7.247  17.513  0.00  0.00    +0.000 HD
BRANCH  16  19
ATOM     19  C   UNL     1       3.730   5.981  19.135  0.00  0.00    +0.000 C 
ATOM     20  C   UNL     1       4.976   5.520  18.372  0.00  0.00    +0.000 C 
BRANCH  19  21
ATOM     21  C   UNL     1       2.712   4.858  19.245  0.00  0.00    +0.000 A 
ATOM     22  C   UNL     1       2.271   4.423  20.504  0.00  0.00    +0.000 A 
ATOM     23  C   UNL     1       1.303   3.423  20.607  0.00  0.00    +0.000 A 
ATOM     24  C   UNL     1       0.759   2.851  19.458  0.00  0.00    +0.000 A 
ATOM     25  C   UNL     1       1.188   3.272  18.203  0.00  0.00    +0.000 A 
ATOM     26  C   UNL     1       2.159   4.265  18.096  0.00  0.00    +0.000 A 
ENDBRANCH  19  21
ENDBRANCH  16  19
ENDBRANCH   7  13
BRANCH   1  28
ATOM     27  C   UNL     1      -4.214  13.940  22.069  0.00  0.00    +0.000 C 
ATOM     28  C   UNL     1      -4.082  13.751  20.567  0.00  0.00    +0.000 C 
ENDBRANCH   1  28
BRANCH   9  29
ATOM     29  C   UNL     1       0.459  12.712  20.846  0.00  0.00    +0.000 C 
BRANCH  29  30
ATOM     30  O   UNL     1       0.364  14.034  20.303  0.00  0.00    +0.000 OA
ATOM     31  C   UNL     1       1.094  14.950  21.114  0.00  0.00    +0.000 C 
ENDBRANCH  29  30
ENDBRANCH   9  29
TORSDOF 6
ENDMDL
