MODEL 1
REMARK VINA RESULT:      -6.5      0.000      0.000
REMARK  Name = 
REMARK  9 active torsions:
REMARK  status: ('A' for Active; 'I' for Inactive)
REMARK    1  A    between atoms: C_1  and  O_2
REMARK    2  A    between atoms: O_2  and  C_3
REMARK    3  A    between atoms: C_6  and  C_7
REMARK    4  A    between atoms: C_9  and  C_10
REMARK    5  A    between atoms: C_10  and  N_11
REMARK    6  A    between atoms: N_11  and  C_12
REMARK    7  A    between atoms: N_11  and  C_13
REMARK    8  A    between atoms: C_13  and  C_14
REMARK    9  A    between atoms: C_13  and  C_15
REMARK                            x       y       z     vdW  Elec       q    Type
REMARK                         _______ _______ _______ _____ _____    ______ ____
ROOT
ATOM      1  C   UNL     1       2.338   4.653  18.409  0.00  0.00    +0.000 C 
ENDROOT
BRANCH   1   8
ATOM      2  C   UNL     1       3.815   6.580  17.587  0.00  0.00    +0.000 A 
ATOM      3  C   UNL     1       4.872   7.048  16.795  0.00  0.00    +0.000 A 
ATOM      4  C   UNL     1       5.598   6.172  15.984  0.00  0.00    +0.000 A 
ATOM      5  C   UNL     1       5.281   4.811  15.957  0.00  0.00    +0.000 A 
ATOM      6  C   UNL     1       6.070   3.862  15.101  0.00  0.00    +0.000 C 
ATOM      7  C   UNL     1       4.228   4.341  16.749  0.00  0.00    +0.000 A 
ATOM      8  C   UNL     1       3.490   5.210  17.578  0.00  0.00    +0.000 A 
BRANCH   2  10
ATOM      9  C   UNL     1       2.346   8.438  17.812  0.00  0.00    +0.000 C 
ATOM     10  O   UNL     1       3.080   7.382  18.421  0.00  0.00    +0.000 OA
ENDBRANCH   2  10
ENDBRANCH   1   8
BRANCH   1  11
ATOM     11  N   UNL     1       2.739   4.174  19.755  0.00  0.00    +0.000 NA
ATOM     12  C   UNL     1       1.957   4.852  20.799  0.00  0.00    +0.000 C 
BRANCH  11  13
ATOM     13  C   UNL     1       2.612   2.689  19.894  0.00  0.00    +0.000 C 
ATOM     14  C   UNL     1       1.503   2.010  19.081  0.00  0.00    +0.000 C 
BRANCH  13  15
ATOM     15  C   UNL     1       3.971   2.007  19.604  0.00  0.00    +0.000 C 
ATOM     16  N   UNL     1       3.977   1.177  18.517  0.00  0.00    +0.000 N 
ATOM     17  O   UNL     1       4.990   2.177  20.264  0.00  0.00    +0.000 OA
ATOM     18  H   UNL     1       3.094   0.839  18.150  0.00  0.00    +0.000 HD
ATOM     19  H   UNL     1       4.815   0.638  18.354  0.00  0.00    +0.000 HD
ENDBRANCH  13  15
ENDBRANCH  11  13
ENDBRANCH   1  11
TORSDOF 5
ENDMDL
MODEL 2
REMARK VINA RESULT:      -6.3      1.842      3.492
REMARK  Name = 
REMARK  9 active torsions:
REMARK  status: ('A' for Active; 'I' for Inactive)
REMARK    1  A    between atoms: C_1  and  O_2
REMARK    2  A    between atoms: O_2  and  C_3
REMARK    3  A    between atoms: C_6  and  C_7
REMARK    4  A    between atoms: C_9  and  C_10
REMARK    5  A    between atoms: C_10  and  N_11
REMARK    6  A    between atoms: N_11  and  C_12
REMARK    7  A    between atoms: N_11  and  C_13
REMARK    8  A    between atoms: C_13  and  C_14
REMARK    9  A    between atoms: C_13  and  C_15
REMARK                            x       y       z     vdW  Elec       q    Type
REMARK                         _______ _______ _______ _____ _____    ______ ____
ROOT
ATOM      1  C   UNL     1       2.988   3.212  17.801  0.00  0.00    +0.000 C 
ENDROOT
BRANCH   1   8
ATOM      2  C   UNL     1       4.701   4.895  16.906  0.00  0.00    +0.000 A 
ATOM      3  C   UNL     1       5.116   6.219  16.710  0.00  0.00    +0.000 A 
ATOM      4  C   UNL     1       4.333   7.286  17.159  0.00  0.00    +0.000 A 
ATOM      5  C   UNL     1       3.118   7.044  17.808  0.00  0.00    +0.000 A 
ATOM      6  C   UNL     1       2.265   8.187  18.277  0.00  0.00    +0.000 C 
ATOM      7  C   UNL     1       2.701   5.723  18.002  0.00  0.00    +0.000 A 
ATOM      8  C   UNL     1       3.476   4.636  17.549  0.00  0.00    +0.000 A 
BRANCH   2  10
ATOM      9  C   UNL     1       6.025   3.912  15.191  0.00  0.00    +0.000 C 
ATOM     10  O   UNL     1       5.410   3.806  16.469  0.00  0.00    +0.000 OA
ENDBRANCH   2  10
ENDBRANCH   1   8
BRANCH   1  11
ATOM     11  N   UNL     1       2.048   3.088  18.943  0.00  0.00    +0.000 NA
ATOM     12  C   UNL     1       0.879   2.282  18.566  0.00  0.00    +0.000 C 
BRANCH  11  13
ATOM     13  C   UNL     1       2.703   2.515  20.162  0.00  0.00    +0.000 C 
ATOM     14  C   UNL     1       4.233   2.420  20.145  0.00  0.00    +0.000 C 
BRANCH  13  15
ATOM     15  C   UNL     1       2.235   3.273  21.427  0.00  0.00    +0.000 C 
ATOM     16  N   UNL     1       2.422   4.627  21.387  0.00  0.00    +0.000 N 
ATOM     17  O   UNL     1       1.722   2.743  22.406  0.00  0.00    +0.000 OA
ATOM     18  H   UNL     1       3.074   5.015  20.713  0.00  0.00    +0.000 HD
ATOM     19  H   UNL     1       2.223   5.144  22.231  0.00  0.00    +0.000 HD
ENDBRANCH  13  15
ENDBRANCH  11  13
ENDBRANCH   1  11
TORSDOF 5
ENDMDL
MODEL 3
REMARK VINA RESULT:      -6.2      2.142      3.055
REMARK  Name = 
REMARK  9 active torsions:
REMARK  status: ('A' for Active; 'I' for Inactive)
REMARK    1  A    between atoms: C_1  and  O_2
REMARK    2  A    between atoms: O_2  and  C_3
REMARK    3  A    between atoms: C_6  and  C_7
REMARK    4  A    between atoms: C_9  and  C_10
REMARK    5  A    between atoms: C_10  and  N_11
REMARK    6  A    between atoms: N_11  and  C_12
REMARK    7  A    between atoms: N_11  and  C_13
REMARK    8  A    between atoms: C_13  and  C_14
REMARK    9  A    between atoms: C_13  and  C_15
REMARK                            x       y       z     vdW  Elec       q    Type
REMARK                         _______ _______ _______ _____ _____    ______ ____
ROOT
ATOM      1  C   UNL     1       3.963   4.561  18.633  0.00  0.00    +0.000 C 
ENDROOT
BRANCH   1   8
ATOM      2  C   UNL     1       6.440   4.706  17.994  0.00  0.00    +0.000 A 
ATOM      3  C   UNL     1       7.448   4.670  17.021  0.00  0.00    +0.000 A 
ATOM      4  C   UNL     1       7.134   4.459  15.676  0.00  0.00    +0.000 A 
ATOM      5  C   UNL     1       5.805   4.275  15.283  0.00  0.00    +0.000 A 
ATOM      6  C   UNL     1       5.464   4.029  13.842  0.00  0.00    +0.000 C 
ATOM      7  C   UNL     1       4.798   4.309  16.253  0.00  0.00    +0.000 A 
ATOM      8  C   UNL     1       5.098   4.514  17.615  0.00  0.00    +0.000 A 
BRANCH   2  10
ATOM      9  C   UNL     1       7.792   5.708  19.675  0.00  0.00    +0.000 C 
ATOM     10  O   UNL     1       6.684   4.887  19.331  0.00  0.00    +0.000 OA
ENDBRANCH   2  10
ENDBRANCH   1   8
BRANCH   1  11
ATOM     11  N   UNL     1       3.214   3.287  18.765  0.00  0.00    +0.000 NA
ATOM     12  C   UNL     1       3.881   2.391  19.720  0.00  0.00    +0.000 C 
BRANCH  11  13
ATOM     13  C   UNL     1       1.787   3.502  19.165  0.00  0.00    +0.000 C 
ATOM     14  C   UNL     1       0.787   2.408  18.776  0.00  0.00    +0.000 C 
BRANCH  13  15
ATOM     15  C   UNL     1       1.695   3.785  20.684  0.00  0.00    +0.000 C 
ATOM     16  N   UNL     1       1.044   2.825  21.409  0.00  0.00    +0.000 N 
ATOM     17  O   UNL     1       2.162   4.774  21.237  0.00  0.00    +0.000 OA
ATOM     18  H   UNL     1       0.441   2.166  20.926  0.00  0.00    +0.000 HD
ATOM     19  H   UNL     1       0.875   3.020  22.384  0.00  0.00    +0.000 HD
ENDBRANCH  13  15
ENDBRANCH  11  13
ENDBRANCH   1  11
TORSDOF 5
ENDMDL
MODEL 4
REMARK VINA RESULT:      -6.2      1.388      1.559
REMARK  Name = 
REMARK  9 active torsions:
REMARK  status: ('A' for Active; 'I' for Inactive)
REMARK    1  A    between atoms: C_1  and  O_2
REMARK    2  A    between atoms: O_2  and  C_3
REMARK    3  A    between atoms: C_6  and  C_7
REMARK    4  A    between atoms: C_9  and  C_10
REMARK    5  A    between atoms: C_10  and  N_11
REMARK    6  A    between atoms: N_11  and  C_12
REMARK    7  A    between atoms: N_11  and  C_13
REMARK    8  A    between atoms: C_13  and  C_14
REMARK    9  A    between atoms: C_13  and  C_15
REMARK                            x       y       z     vdW  Elec       q    Type
REMARK                         _______ _______ _______ _____ _____    ______ ____
ROOT
ATOM      1  C   UNL     1       2.166   4.706  18.443  0.00  0.00    +0.000 C 
ENDROOT
BRANCH   1   8
ATOM      2  C   UNL     1       3.735   6.579  17.667  0.00  0.00    +0.000 A 
ATOM      3  C   UNL     1       4.843   7.005  16.923  0.00  0.00    +0.000 A 
ATOM      4  C   UNL     1       5.587   6.096  16.167  0.00  0.00    +0.000 A 
ATOM      5  C   UNL     1       5.237   4.743  16.147  0.00  0.00    +0.000 A 
ATOM      6  C   UNL     1       6.043   3.758  15.350  0.00  0.00    +0.000 C 
ATOM      7  C   UNL     1       4.132   4.315  16.890  0.00  0.00    +0.000 A 
ATOM      8  C   UNL     1       3.375   5.218  17.664  0.00  0.00    +0.000 A 
BRANCH   2  10
ATOM      9  C   UNL     1       2.298   8.472  17.780  0.00  0.00    +0.000 C 
ATOM     10  O   UNL     1       2.978   7.415  18.446  0.00  0.00    +0.000 OA
ENDBRANCH   2  10
ENDBRANCH   1   8
BRANCH   1  11
ATOM     11  N   UNL     1       2.453   4.384  19.863  0.00  0.00    +0.000 NA
ATOM     12  C   UNL     1       1.651   5.228  20.758  0.00  0.00    +0.000 C 
BRANCH  11  13
ATOM     13  C   UNL     1       2.230   2.936  20.176  0.00  0.00    +0.000 C 
ATOM     14  C   UNL     1       1.539   2.614  21.505  0.00  0.00    +0.000 C 
BRANCH  13  15
ATOM     15  C   UNL     1       1.480   2.248  19.011  0.00  0.00    +0.000 C 
ATOM     16  N   UNL     1       2.277   1.550  18.146  0.00  0.00    +0.000 N 
ATOM     17  O   UNL     1       0.266   2.289  18.843  0.00  0.00    +0.000 OA
ATOM     18  H   UNL     1       3.274   1.739  18.133  0.00  0.00    +0.000 HD
ATOM     19  H   UNL     1       1.839   1.171  17.320  0.00  0.00    +0.000 HD
ENDBRANCH  13  15
ENDBRANCH  11  13
ENDBRANCH   1  11
TORSDOF 5
ENDMDL
MODEL 5
REMARK VINA RESULT:      -6.2      2.408      3.074
REMARK  Name = 
REMARK  9 active torsions:
REMARK  status: ('A' for Active; 'I' for Inactive)
REMARK    1  A    between atoms: C_1  and  O_2
REMARK    2  A    between atoms: O_2  and  C_3
REMARK    3  A    between atoms: C_6  and  C_7
REMARK    4  A    between atoms: C_9  and  C_10
REMARK    5  A    between atoms: C_10  and  N_11
REMARK    6  A    between atoms: N_11  and  C_12
REMARK    7  A    between atoms: N_11  and  C_13
REMARK    8  A    between atoms: C_13  and  C_14
REMARK    9  A    between atoms: C_13  and  C_15
REMARK                            x       y       z     vdW  Elec       q    Type
REMARK                         _______ _______ _______ _____ _____    ______ ____
ROOT
ATOM      1  C   UNL     1       4.208   4.418  19.333  0.00  0.00    +0.000 C 
ENDROOT
BRANCH   1   8
ATOM      2  C   UNL     1       6.514   5.124  18.463  0.00  0.00    +0.000 A 
ATOM      3  C   UNL     1       7.403   5.317  17.398  0.00  0.00    +0.000 A 
ATOM      4  C   UNL     1       7.016   5.036  16.085  0.00  0.00    +0.000 A 
ATOM      5  C   UNL     1       5.732   4.552  15.817  0.00  0.00    +0.000 A 
ATOM      6  C   UNL     1       5.316   4.232  14.410  0.00  0.00    +0.000 C 
ATOM      7  C   UNL     1       4.843   4.357  16.879  0.00  0.00    +0.000 A 
ATOM      8  C   UNL     1       5.220   4.629  18.210  0.00  0.00    +0.000 A 
BRANCH   2  10
ATOM      9  C   UNL     1       8.219   5.532  20.070  0.00  0.00    +0.000 C 
ATOM     10  O   UNL     1       6.839   5.359  19.773  0.00  0.00    +0.000 OA
ENDBRANCH   2  10
ENDBRANCH   1   8
BRANCH   1  11
ATOM     11  N   UNL     1       3.691   3.030  19.429  0.00  0.00    +0.000 NA
ATOM     12  C   UNL     1       4.454   2.261  20.422  0.00  0.00    +0.000 C 
BRANCH  11  13
ATOM     13  C   UNL     1       2.229   2.987  19.750  0.00  0.00    +0.000 C 
ATOM     14  C   UNL     1       1.561   4.319  20.112  0.00  0.00    +0.000 C 
BRANCH  13  15
ATOM     15  C   UNL     1       1.450   2.301  18.603  0.00  0.00    +0.000 C 
ATOM     16  N   UNL     1       2.233   1.733  17.636  0.00  0.00    +0.000 N 
ATOM     17  O   UNL     1       0.228   2.238  18.532  0.00  0.00    +0.000 OA
ATOM     18  H   UNL     1       3.205   2.015  17.560  0.00  0.00    +0.000 HD
ATOM     19  H   UNL     1       1.764   1.363  16.823  0.00  0.00    +0.000 HD
ENDBRANCH  13  15
ENDBRANCH  11  13
ENDBRANCH   1  11
TORSDOF 5
ENDMDL
MODEL 6
REMARK VINA RESULT:      -6.1      1.755      2.336
REMARK  Name = 
REMARK  9 active torsions:
REMARK  status: ('A' for Active; 'I' for Inactive)
REMARK    1  A    between atoms: C_1  and  O_2
REMARK    2  A    between atoms: O_2  and  C_3
REMARK    3  A    between atoms: C_6  and  C_7
REMARK    4  A    between atoms: C_9  and  C_10
REMARK    5  A    between atoms: C_10  and  N_11
REMARK    6  A    between atoms: N_11  and  C_12
REMARK    7  A    between atoms: N_11  and  C_13
REMARK    8  A    between atoms: C_13  and  C_14
REMARK    9  A    between atoms: C_13  and  C_15
REMARK                            x       y       z     vdW  Elec       q    Type
REMARK                         _______ _______ _______ _____ _____    ______ ____
ROOT
ATOM      1  C   UNL     1       3.633   5.314  18.017  0.00  0.00    +0.000 C 
ENDROOT
BRANCH   1   8
ATOM      2  C   UNL     1       6.177   5.052  17.840  0.00  0.00    +0.000 A 
ATOM      3  C   UNL     1       7.316   4.736  17.089  0.00  0.00    +0.000 A 
ATOM      4  C   UNL     1       7.203   4.348  15.751  0.00  0.00    +0.000 A 
ATOM      5  C   UNL     1       5.946   4.265  15.145  0.00  0.00    +0.000 A 
ATOM      6  C   UNL     1       5.818   3.832  13.713  0.00  0.00    +0.000 C 
ATOM      7  C   UNL     1       4.807   4.578  15.894  0.00  0.00    +0.000 A 
ATOM      8  C   UNL     1       4.903   4.964  17.247  0.00  0.00    +0.000 A 
BRANCH   2  10
ATOM      9  C   UNL     1       7.503   5.640  19.725  0.00  0.00    +0.000 C 
ATOM     10  O   UNL     1       6.217   5.416  19.161  0.00  0.00    +0.000 OA
ENDBRANCH   2  10
ENDBRANCH   1   8
BRANCH   1  11
ATOM     11  N   UNL     1       3.478   4.575  19.295  0.00  0.00    +0.000 NA
ATOM     12  C   UNL     1       2.678   5.355  20.250  0.00  0.00    +0.000 C 
BRANCH  11  13
ATOM     13  C   UNL     1       2.875   3.218  19.100  0.00  0.00    +0.000 C 
ATOM     14  C   UNL     1       2.075   2.995  17.813  0.00  0.00    +0.000 C 
BRANCH  13  15
ATOM     15  C   UNL     1       3.962   2.126  19.242  0.00  0.00    +0.000 C 
ATOM     16  N   UNL     1       3.832   1.071  18.381  0.00  0.00    +0.000 N 
ATOM     17  O   UNL     1       4.891   2.167  20.041  0.00  0.00    +0.000 OA
ATOM     18  H   UNL     1       2.939   0.913  17.926  0.00  0.00    +0.000 HD
ATOM     19  H   UNL     1       4.461   0.292  18.510  0.00  0.00    +0.000 HD
ENDBRANCH  13  15
ENDBRANCH  11  13
ENDBRANCH   1  11
TORSDOF 5
ENDMDL
MODEL 7
REMARK VINA RESULT:      -6.1      2.002      3.732
REMARK  Name = 
REMARK  9 active torsions:
REMARK  status: ('A' for Active; 'I' for Inactive)
REMARK    1  A    between atoms: C_1  and  O_2
REMARK    2  A    between atoms: O_2  and  C_3
REMARK    3  A    between atoms: C_6  and  C_7
REMARK    4  A    between atoms: C_9  and  C_10
REMARK    5  A    between atoms: C_10  and  N_11
REMARK    6  A    between atoms: N_11  and  C_12
REMARK    7  A    between atoms: N_11  and  C_13
REMARK    8  A    between atoms: C_13  and  C_14
REMARK    9  A    between atoms: C_13  and  C_15
REMARK                            x       y       z     vdW  Elec       q    Type
REMARK                         _______ _______ _______ _____ _____    ______ ____
ROOT
ATOM      1  C   UNL     1       4.302   3.495  19.208  0.00  0.00    +0.000 C 
ENDROOT
BRANCH   1   8
ATOM      2  C   UNL     1       5.072   5.120  17.381  0.00  0.00    +0.000 A 
ATOM      3  C   UNL     1       4.965   6.356  16.730  0.00  0.00    +0.000 A 
ATOM      4  C   UNL     1       4.023   7.301  17.145  0.00  0.00    +0.000 A 
ATOM      5  C   UNL     1       3.169   7.021  18.216  0.00  0.00    +0.000 A 
ATOM      6  C   UNL     1       2.143   8.026  18.655  0.00  0.00    +0.000 C 
ATOM      7  C   UNL     1       3.273   5.787  18.866  0.00  0.00    +0.000 A 
ATOM      8  C   UNL     1       4.213   4.820  18.455  0.00  0.00    +0.000 A 
BRANCH   2  10
ATOM      9  C   UNL     1       7.042   4.541  16.179  0.00  0.00    +0.000 C 
ATOM     10  O   UNL     1       5.958   4.142  17.009  0.00  0.00    +0.000 OA
ENDBRANCH   2  10
ENDBRANCH   1   8
BRANCH   1  11
ATOM     11  N   UNL     1       3.266   2.507  18.817  0.00  0.00    +0.000 NA
ATOM     12  C   UNL     1       3.889   1.243  18.399  0.00  0.00    +0.000 C 
BRANCH  11  13
ATOM     13  C   UNL     1       2.272   2.259  19.910  0.00  0.00    +0.000 C 
ATOM     14  C   UNL     1       2.634   2.779  21.305  0.00  0.00    +0.000 C 
BRANCH  13  15
ATOM     15  C   UNL     1       0.879   2.788  19.494  0.00  0.00    +0.000 C 
ATOM     16  N   UNL     1       0.424   3.848  20.231  0.00  0.00    +0.000 N 
ATOM     17  O   UNL     1       0.206   2.331  18.577  0.00  0.00    +0.000 OA
ATOM     18  H   UNL     1       0.848   4.040  21.132  0.00  0.00    +0.000 HD
ATOM     19  H   UNL     1      -0.521   4.156  20.057  0.00  0.00    +0.000 HD
ENDBRANCH  13  15
ENDBRANCH  11  13
ENDBRANCH   1  11
TORSDOF 5
ENDMDL
MODEL 8
REMARK VINA RESULT:      -6.1      2.264      3.183
REMARK  Name = 
REMARK  9 active torsions:
REMARK  status: ('A' for Active; 'I' for Inactive)
REMARK    1  A    between atoms: C_1  and  O_2
REMARK    2  A    between atoms: O_2  and  C_3
REMARK    3  A    between atoms: C_6  and  C_7
REMARK    4  A    between atoms: C_9  and  C_10
REMARK    5  A    between atoms: C_10  and  N_11
REMARK    6  A    between atoms: N_11  and  C_12
REMARK    7  A    between atoms: N_11  and  C_13
REMARK    8  A    between atoms: C_13  and  C_14
REMARK    9  A    between atoms: C_13  and  C_15
REMARK                            x       y       z     vdW  Elec       q    Type
REMARK                         _______ _______ _______ _____ _____    ______ ____
ROOT
ATOM      1  C   UNL     1       4.162   5.407  18.893  0.00  0.00    +0.000 C 
ENDROOT
BRANCH   1   8
ATOM      2  C   UNL     1       6.568   4.898  18.171  0.00  0.00    +0.000 A 
ATOM      3  C   UNL     1       7.489   4.550  17.174  0.00  0.00    +0.000 A 
ATOM      4  C   UNL     1       7.069   4.332  15.859  0.00  0.00    +0.000 A 
ATOM      5  C   UNL     1       5.718   4.453  15.522  0.00  0.00    +0.000 A 
ATOM      6  C   UNL     1       5.259   4.202  14.114  0.00  0.00    +0.000 C 
ATOM      7  C   UNL     1       4.796   4.797  16.515  0.00  0.00    +0.000 A 
ATOM      8  C   UNL     1       5.202   5.014  17.848  0.00  0.00    +0.000 A 
BRANCH   2  10
ATOM      9  C   UNL     1       8.108   5.830  19.725  0.00  0.00    +0.000 C 
ATOM     10  O   UNL     1       6.911   5.102  19.482  0.00  0.00    +0.000 OA
ENDBRANCH   2  10
ENDBRANCH   1   8
BRANCH   1  11
ATOM     11  N   UNL     1       3.363   4.267  19.410  0.00  0.00    +0.000 NA
ATOM     12  C   UNL     1       4.217   3.091  19.621  0.00  0.00    +0.000 C 
BRANCH  11  13
ATOM     13  C   UNL     1       2.630   4.610  20.670  0.00  0.00    +0.000 C 
ATOM     14  C   UNL     1       1.624   5.764  20.594  0.00  0.00    +0.000 C 
BRANCH  13  15
ATOM     15  C   UNL     1       1.944   3.349  21.249  0.00  0.00    +0.000 C 
ATOM     16  N   UNL     1       0.791   2.980  20.613  0.00  0.00    +0.000 N 
ATOM     17  O   UNL     1       2.371   2.697  22.195  0.00  0.00    +0.000 OA
ATOM     18  H   UNL     1       0.313   3.656  20.027  0.00  0.00    +0.000 HD
ATOM     19  H   UNL     1       0.262   2.224  21.022  0.00  0.00    +0.000 HD
ENDBRANCH  13  15
ENDBRANCH  11  13
ENDBRANCH   1  11
TORSDOF 5
ENDMDL
MODEL 9
REMARK VINA RESULT:      -6.1      2.381      3.235
REMARK  Name = 
REMARK  9 active torsions:
REMARK  status: ('A' for Active; 'I' for Inactive)
REMARK    1  A    between atoms: C_1  and  O_2
REMARK    2  A    between atoms: O_2  and  C_3
REMARK    3  A    between atoms: C_6  and  C_7
REMARK    4  A    between atoms: C_9  and  C_10
REMARK    5  A    between atoms: C_10  and  N_11
REMARK    6  A    between atoms: N_11  and  C_12
REMARK    7  A    between atoms: N_11  and  C_13
REMARK    8  A    between atoms: C_13  and  C_14
REMARK    9  A    between atoms: C_13  and  C_15
REMARK                            x       y       z     vdW  Elec       q    Type
REMARK                         _______ _______ _______ _____ _____    ______ ____
ROOT
ATOM      1  C   UNL     1       4.038   4.063  19.068  0.00  0.00    +0.000 C 
ENDROOT
BRANCH   1   8
ATOM      2  C   UNL     1       6.367   4.820  18.311  0.00  0.00    +0.000 A 
ATOM      3  C   UNL     1       7.300   5.039  17.290  0.00  0.00    +0.000 A 
ATOM      4  C   UNL     1       6.979   4.764  15.958  0.00  0.00    +0.000 A 
ATOM      5  C   UNL     1       5.718   4.259  15.627  0.00  0.00    +0.000 A 
ATOM      6  C   UNL     1       5.374   3.945  14.200  0.00  0.00    +0.000 C 
ATOM      7  C   UNL     1       4.785   4.038  16.645  0.00  0.00    +0.000 A 
ATOM      8  C   UNL     1       5.096   4.303  17.995  0.00  0.00    +0.000 A 
BRANCH   2  10
ATOM      9  C   UNL     1       7.904   5.587  19.957  0.00  0.00    +0.000 C 
ATOM     10  O   UNL     1       6.627   5.047  19.637  0.00  0.00    +0.000 OA
ENDBRANCH   2  10
ENDBRANCH   1   8
BRANCH   1  11
ATOM     11  N   UNL     1       3.688   2.634  19.264  0.00  0.00    +0.000 NA
ATOM     12  C   UNL     1       4.777   1.924  19.948  0.00  0.00    +0.000 C 
BRANCH  11  13
ATOM     13  C   UNL     1       2.403   2.459  20.013  0.00  0.00    +0.000 C 
ATOM     14  C   UNL     1       2.407   2.848  21.496  0.00  0.00    +0.000 C 
BRANCH  13  15
ATOM     15  C   UNL     1       1.253   3.191  19.279  0.00  0.00    +0.000 C 
ATOM     16  N   UNL     1       0.456   3.959  20.083  0.00  0.00    +0.000 N 
ATOM     17  O   UNL     1       1.043   3.124  18.073  0.00  0.00    +0.000 OA
ATOM     18  H   UNL     1       0.466   3.800  21.085  0.00  0.00    +0.000 HD
ATOM     19  H   UNL     1      -0.363   4.371  19.660  0.00  0.00    +0.000 HD
ENDBRANCH  13  15
ENDBRANCH  11  13
ENDBRANCH   1  11
TORSDOF 5
ENDMDL
