MODEL 1
REMARK VINA RESULT:      -7.5      0.000      0.000
REMARK  Name = 
REMARK  4 active torsions:
REMARK  status: ('A' for Active; 'I' for Inactive)
REMARK    1  A    between atoms: C_2  and  O_3
REMARK    2  A    between atoms: C_2  and  C_4
REMARK    3  A    between atoms: C_7  and  S_8
REMARK    4  A    between atoms: S_8  and  C_11
REMARK                            x       y       z     vdW  Elec       q    Type
REMARK                         _______ _______ _______ _____ _____    ______ ____
ROOT
ATOM      1  S   UNL     1       6.667   5.349  17.962  0.00  0.00    +0.000 S 
ATOM      2  O   UNL     1       7.641   4.479  18.598  0.00  0.00    +0.000 OA
ATOM      3  O   UNL     1       6.830   6.786  17.915  0.00  0.00    +0.000 OA
ENDROOT
BRANCH   1   4
ATOM      4  C   UNL     1       5.062   4.982  18.627  0.00  0.00    +0.000 A 
ATOM      5  C   UNL     1       4.040   5.928  18.504  0.00  0.00    +0.000 A 
ATOM      6  C   UNL     1       2.790   5.672  19.073  0.00  0.00    +0.000 A 
ATOM      7  C   UNL     1       2.560   4.462  19.730  0.00  0.00    +0.000 A 
ATOM      8 CL   UNL     1       1.030   4.166  20.457  0.00  0.00    +0.000 Cl
ATOM      9  C   UNL     1       3.564   3.497  19.806  0.00  0.00    +0.000 A 
ATOM     10  C   UNL     1       4.822   3.750  19.248  0.00  0.00    +0.000 A 
ENDBRANCH   1   4
BRANCH   1  14
ATOM     11  C   UNL     1       7.126   4.774  14.061  0.00  0.00    +0.000 A 
ATOM     12  C   UNL     1       6.056   3.925  14.231  0.00  0.00    +0.000 A 
ATOM     13  C   UNL     1       5.731   3.951  15.602  0.00  0.00    +0.000 A 
ATOM     14  C   UNL     1       6.611   4.821  16.237  0.00  0.00    +0.000 A 
ATOM     15  O   UNL     1       7.499   5.295  15.276  0.00  0.00    +0.000 OA
BRANCH  11  17
ATOM     16  O   UNL     1       7.551   4.744  11.726  0.00  0.00    +0.000 OA
ATOM     17  C   UNL     1       7.814   5.158  12.848  0.00  0.00    +0.000 C 
BRANCH  17  18
ATOM     18  O   UNL     1       8.813   6.044  13.080  0.00  0.00    +0.000 OA
ATOM     19  H   UNL     1       8.711   6.465  13.959  0.00  0.00    +0.000 HD
ENDBRANCH  17  18
ENDBRANCH  11  17
ENDBRANCH   1  14
TORSDOF 4
ENDMDL
MODEL 2
REMARK VINA RESULT:      -7.4      2.013      2.817
REMARK  Name = 
REMARK  4 active torsions:
REMARK  status: ('A' for Active; 'I' for Inactive)
REMARK    1  A    between atoms: C_2  and  O_3
REMARK    2  A    between atoms: C_2  and  C_4
REMARK    3  A    between atoms: C_7  and  S_8
REMARK    4  A    between atoms: S_8  and  C_11
REMARK                            x       y       z     vdW  Elec       q    Type
REMARK                         _______ _______ _______ _____ _____    ______ ____
ROOT
ATOM      1  S   UNL     1       7.073   5.143  16.189  0.00  0.00    +0.000 S 
ATOM      2  O   UNL     1       7.973   4.155  16.759  0.00  0.00    +0.000 OA
ATOM      3  O   UNL     1       7.363   6.560  16.220  0.00  0.00    +0.000 OA
ENDROOT
BRANCH   1   4
ATOM      4  C   UNL     1       5.449   4.882  16.859  0.00  0.00    +0.000 A 
ATOM      5  C   UNL     1       4.956   3.578  16.964  0.00  0.00    +0.000 A 
ATOM      6  C   UNL     1       3.659   3.366  17.438  0.00  0.00    +0.000 A 
ATOM      7  C   UNL     1       2.878   4.453  17.833  0.00  0.00    +0.000 A 
ATOM      8 CL   UNL     1       1.270   4.189  18.384  0.00  0.00    +0.000 Cl
ATOM      9  C   UNL     1       3.389   5.750  17.777  0.00  0.00    +0.000 A 
ATOM     10  C   UNL     1       4.684   5.971  17.294  0.00  0.00    +0.000 A 
ENDBRANCH   1   4
BRANCH   1  14
ATOM     11  C   UNL     1       6.233   3.670  12.600  0.00  0.00    +0.000 A 
ATOM     12  C   UNL     1       7.287   4.467  12.212  0.00  0.00    +0.000 A 
ATOM     13  C   UNL     1       7.739   5.134  13.369  0.00  0.00    +0.000 A 
ATOM     14  C   UNL     1       6.950   4.723  14.438  0.00  0.00    +0.000 A 
ATOM     15  O   UNL     1       5.993   3.844  13.941  0.00  0.00    +0.000 OA
BRANCH  11  17
ATOM     16  O   UNL     1       4.323   2.953  11.386  0.00  0.00    +0.000 OA
ATOM     17  C   UNL     1       5.448   2.738  11.821  0.00  0.00    +0.000 C 
BRANCH  17  18
ATOM     18  O   UNL     1       6.094   1.565  11.615  0.00  0.00    +0.000 OA
ATOM     19  H   UNL     1       5.574   0.812  11.966  0.00  0.00    +0.000 HD
ENDBRANCH  17  18
ENDBRANCH  11  17
ENDBRANCH   1  14
TORSDOF 4
ENDMDL
MODEL 3
REMARK VINA RESULT:      -7.4      1.989      2.584
REMARK  Name = 
REMARK  4 active torsions:
REMARK  status: ('A' for Active; 'I' for Inactive)
REMARK    1  A    between atoms: C_2  and  O_3
REMARK    2  A    between atoms: C_2  and  C_4
REMARK    3  A    between atoms: C_7  and  S_8
REMARK    4  A    between atoms: S_8  and  C_11
REMARK                            x       y       z     vdW  Elec       q    Type
REMARK                         _______ _______ _______ _____ _____    ______ ____
ROOT
ATOM      1  S   UNL     1       7.059   5.147  16.187  0.00  0.00    +0.000 S 
ATOM      2  O   UNL     1       7.945   4.148  16.762  0.00  0.00    +0.000 OA
ATOM      3  O   UNL     1       7.368   6.561  16.217  0.00  0.00    +0.000 OA
ENDROOT
BRANCH   1   4
ATOM      4  C   UNL     1       5.430   4.908  16.852  0.00  0.00    +0.000 A 
ATOM      5  C   UNL     1       4.667   6.025  17.206  0.00  0.00    +0.000 A 
ATOM      6  C   UNL     1       3.407   5.846  17.781  0.00  0.00    +0.000 A 
ATOM      7  C   UNL     1       2.905   4.557  17.969  0.00  0.00    +0.000 A 
ATOM      8 CL   UNL     1       1.368   4.342  18.708  0.00  0.00    +0.000 Cl
ATOM      9  C   UNL     1       3.646   3.445  17.567  0.00  0.00    +0.000 A 
ATOM     10  C   UNL     1       4.913   3.616  16.999  0.00  0.00    +0.000 A 
ENDBRANCH   1   4
BRANCH   1  14
ATOM     11  C   UNL     1       6.220   3.672  12.599  0.00  0.00    +0.000 A 
ATOM     12  C   UNL     1       7.274   4.468  12.211  0.00  0.00    +0.000 A 
ATOM     13  C   UNL     1       7.726   5.136  13.367  0.00  0.00    +0.000 A 
ATOM     14  C   UNL     1       6.937   4.726  14.437  0.00  0.00    +0.000 A 
ATOM     15  O   UNL     1       5.979   3.847  13.939  0.00  0.00    +0.000 OA
BRANCH  11  17
ATOM     16  O   UNL     1       4.312   2.957  11.380  0.00  0.00    +0.000 OA
ATOM     17  C   UNL     1       5.435   2.740  11.820  0.00  0.00    +0.000 C 
BRANCH  17  18
ATOM     18  O   UNL     1       6.078   1.564  11.621  0.00  0.00    +0.000 OA
ATOM     19  H   UNL     1       5.634   1.035  10.926  0.00  0.00    +0.000 HD
ENDBRANCH  17  18
ENDBRANCH  11  17
ENDBRANCH   1  14
TORSDOF 4
ENDMDL
MODEL 4
REMARK VINA RESULT:      -7.4      0.377      1.417
REMARK  Name = 
REMARK  4 active torsions:
REMARK  status: ('A' for Active; 'I' for Inactive)
REMARK    1  A    between atoms: C_2  and  O_3
REMARK    2  A    between atoms: C_2  and  C_4
REMARK    3  A    between atoms: C_7  and  S_8
REMARK    4  A    between atoms: S_8  and  C_11
REMARK                            x       y       z     vdW  Elec       q    Type
REMARK                         _______ _______ _______ _____ _____    ______ ____
ROOT
ATOM      1  S   UNL     1       6.418   5.307  17.984  0.00  0.00    +0.000 S 
ATOM      2  O   UNL     1       7.436   4.478  18.608  0.00  0.00    +0.000 OA
ATOM      3  O   UNL     1       6.482   6.753  18.003  0.00  0.00    +0.000 OA
ENDROOT
BRANCH   1   4
ATOM      4  C   UNL     1       4.828   4.801  18.590  0.00  0.00    +0.000 A 
ATOM      5  C   UNL     1       4.707   3.573  19.247  0.00  0.00    +0.000 A 
ATOM      6  C   UNL     1       3.451   3.141  19.678  0.00  0.00    +0.000 A 
ATOM      7  C   UNL     1       2.332   3.951  19.481  0.00  0.00    +0.000 A 
ATOM      8 CL   UNL     1       0.783   3.400  19.984  0.00  0.00    +0.000 Cl
ATOM      9  C   UNL     1       2.462   5.201  18.873  0.00  0.00    +0.000 A 
ATOM     10  C   UNL     1       3.716   5.636  18.429  0.00  0.00    +0.000 A 
ENDBRANCH   1   4
BRANCH   1  14
ATOM     11  C   UNL     1       7.097   4.853  14.099  0.00  0.00    +0.000 A 
ATOM     12  C   UNL     1       5.955   4.086  14.161  0.00  0.00    +0.000 A 
ATOM     13  C   UNL     1       5.540   4.083  15.508  0.00  0.00    +0.000 A 
ATOM     14  C   UNL     1       6.440   4.854  16.237  0.00  0.00    +0.000 A 
ATOM     15  O   UNL     1       7.425   5.294  15.358  0.00  0.00    +0.000 OA
BRANCH  11  17
ATOM     16  O   UNL     1       8.831   6.016  12.970  0.00  0.00    +0.000 OA
ATOM     17  C   UNL     1       7.893   5.229  12.952  0.00  0.00    +0.000 C 
BRANCH  17  18
ATOM     18  O   UNL     1       7.487   4.608  11.817  0.00  0.00    +0.000 OA
ATOM     19  H   UNL     1       6.967   3.805  12.024  0.00  0.00    +0.000 HD
ENDBRANCH  17  18
ENDBRANCH  11  17
ENDBRANCH   1  14
TORSDOF 4
ENDMDL
MODEL 5
REMARK VINA RESULT:      -6.9      2.690      4.165
REMARK  Name = 
REMARK  4 active torsions:
REMARK  status: ('A' for Active; 'I' for Inactive)
REMARK    1  A    between atoms: C_2  and  O_3
REMARK    2  A    between atoms: C_2  and  C_4
REMARK    3  A    between atoms: C_7  and  S_8
REMARK    4  A    between atoms: S_8  and  C_11
REMARK                            x       y       z     vdW  Elec       q    Type
REMARK                         _______ _______ _______ _____ _____    ______ ____
ROOT
ATOM      1  S   UNL     1       5.720   5.538  15.996  0.00  0.00    +0.000 S 
ATOM      2  O   UNL     1       5.255   6.580  15.096  0.00  0.00    +0.000 OA
ATOM      3  O   UNL     1       6.485   4.402  15.531  0.00  0.00    +0.000 OA
ENDROOT
BRANCH   1   4
ATOM      4  C   UNL     1       4.335   4.944  16.935  0.00  0.00    +0.000 A 
ATOM      5  C   UNL     1       3.602   5.845  17.714  0.00  0.00    +0.000 A 
ATOM      6  C   UNL     1       2.546   5.378  18.500  0.00  0.00    +0.000 A 
ATOM      7  C   UNL     1       2.209   4.024  18.477  0.00  0.00    +0.000 A 
ATOM      8 CL   UNL     1       0.929   3.449  19.472  0.00  0.00    +0.000 Cl
ATOM      9  C   UNL     1       2.908   3.135  17.660  0.00  0.00    +0.000 A 
ATOM     10  C   UNL     1       3.973   3.593  16.878  0.00  0.00    +0.000 A 
ENDBRANCH   1   4
BRANCH   1  14
ATOM     11  C   UNL     1       7.948   8.046  18.119  0.00  0.00    +0.000 A 
ATOM     12  C   UNL     1       8.268   6.903  18.818  0.00  0.00    +0.000 A 
ATOM     13  C   UNL     1       7.537   5.850  18.231  0.00  0.00    +0.000 A 
ATOM     14  C   UNL     1       6.790   6.377  17.183  0.00  0.00    +0.000 A 
ATOM     15  O   UNL     1       7.022   7.748  17.149  0.00  0.00    +0.000 OA
BRANCH  11  17
ATOM     16  O   UNL     1       8.175  10.338  17.546  0.00  0.00    +0.000 OA
ATOM     17  C   UNL     1       8.457   9.391  18.270  0.00  0.00    +0.000 C 
BRANCH  17  18
ATOM     18  O   UNL     1       9.307   9.506  19.319  0.00  0.00    +0.000 OA
ATOM     19  H   UNL     1       9.408   8.650  19.784  0.00  0.00    +0.000 HD
ENDBRANCH  17  18
ENDBRANCH  11  17
ENDBRANCH   1  14
TORSDOF 4
ENDMDL
MODEL 6
REMARK VINA RESULT:      -6.9      2.316      2.984
REMARK  Name = 
REMARK  4 active torsions:
REMARK  status: ('A' for Active; 'I' for Inactive)
REMARK    1  A    between atoms: C_2  and  O_3
REMARK    2  A    between atoms: C_2  and  C_4
REMARK    3  A    between atoms: C_7  and  S_8
REMARK    4  A    between atoms: S_8  and  C_11
REMARK                            x       y       z     vdW  Elec       q    Type
REMARK                         _______ _______ _______ _____ _____    ______ ____
ROOT
ATOM      1  S   UNL     1       4.134   3.434  18.669  0.00  0.00    +0.000 S 
ATOM      2  O   UNL     1       3.313   2.702  17.719  0.00  0.00    +0.000 OA
ATOM      3  O   UNL     1       4.779   2.787  19.791  0.00  0.00    +0.000 OA
ENDROOT
BRANCH   1   4
ATOM      4  C   UNL     1       3.200   4.819  19.272  0.00  0.00    +0.000 A 
ATOM      5  C   UNL     1       3.259   6.034  18.583  0.00  0.00    +0.000 A 
ATOM      6  C   UNL     1       2.573   7.144  19.081  0.00  0.00    +0.000 A 
ATOM      7  C   UNL     1       1.809   7.025  20.242  0.00  0.00    +0.000 A 
ATOM      8 CL   UNL     1       0.993   8.403  20.869  0.00  0.00    +0.000 Cl
ATOM      9  C   UNL     1       1.708   5.799  20.901  0.00  0.00    +0.000 A 
ATOM     10  C   UNL     1       2.400   4.685  20.413  0.00  0.00    +0.000 A 
ENDBRANCH   1   4
BRANCH   1  14
ATOM     11  C   UNL     1       6.670   4.667  15.876  0.00  0.00    +0.000 A 
ATOM     12  C   UNL     1       7.421   5.049  16.965  0.00  0.00    +0.000 A 
ATOM     13  C   UNL     1       6.670   4.720  18.111  0.00  0.00    +0.000 A 
ATOM     14  C   UNL     1       5.477   4.141  17.692  0.00  0.00    +0.000 A 
ATOM     15  O   UNL     1       5.471   4.150  16.301  0.00  0.00    +0.000 OA
BRANCH  11  17
ATOM     16  O   UNL     1       7.787   5.507  13.956  0.00  0.00    +0.000 OA
ATOM     17  C   UNL     1       6.995   4.725  14.467  0.00  0.00    +0.000 C 
BRANCH  17  18
ATOM     18  O   UNL     1       6.313   3.804  13.743  0.00  0.00    +0.000 OA
ATOM     19  H   UNL     1       5.778   4.233  13.044  0.00  0.00    +0.000 HD
ENDBRANCH  17  18
ENDBRANCH  11  17
ENDBRANCH   1  14
TORSDOF 4
ENDMDL
MODEL 7
REMARK VINA RESULT:      -6.8      0.907      1.449
REMARK  Name = 
REMARK  4 active torsions:
REMARK  status: ('A' for Active; 'I' for Inactive)
REMARK    1  A    between atoms: C_2  and  O_3
REMARK    2  A    between atoms: C_2  and  C_4
REMARK    3  A    between atoms: C_7  and  S_8
REMARK    4  A    between atoms: S_8  and  C_11
REMARK                            x       y       z     vdW  Elec       q    Type
REMARK                         _______ _______ _______ _____ _____    ______ ____
ROOT
ATOM      1  S   UNL     1       5.609   6.096  17.593  0.00  0.00    +0.000 S 
ATOM      2  O   UNL     1       6.768   5.902  18.448  0.00  0.00    +0.000 OA
ATOM      3  O   UNL     1       5.160   7.410  17.189  0.00  0.00    +0.000 OA
ENDROOT
BRANCH   1   4
ATOM      4  C   UNL     1       4.235   5.217  18.295  0.00  0.00    +0.000 A 
ATOM      5  C   UNL     1       4.479   4.184  19.205  0.00  0.00    +0.000 A 
ATOM      6  C   UNL     1       3.408   3.450  19.720  0.00  0.00    +0.000 A 
ATOM      7  C   UNL     1       2.102   3.774  19.350  0.00  0.00    +0.000 A 
ATOM      8 CL   UNL     1       0.790   2.847  19.962  0.00  0.00    +0.000 Cl
ATOM      9  C   UNL     1       1.856   4.839  18.483  0.00  0.00    +0.000 A 
ATOM     10  C   UNL     1       2.925   5.572  17.955  0.00  0.00    +0.000 A 
ENDBRANCH   1   4
BRANCH   1  14
ATOM     11  C   UNL     1       6.940   4.877  14.057  0.00  0.00    +0.000 A 
ATOM     12  C   UNL     1       6.042   3.853  14.260  0.00  0.00    +0.000 A 
ATOM     13  C   UNL     1       5.452   4.076  15.521  0.00  0.00    +0.000 A 
ATOM     14  C   UNL     1       6.002   5.236  16.055  0.00  0.00    +0.000 A 
ATOM     15  O   UNL     1       6.955   5.702  15.155  0.00  0.00    +0.000 OA
BRANCH  11  17
ATOM     16  O   UNL     1       7.582   4.725  11.777  0.00  0.00    +0.000 OA
ATOM     17  C   UNL     1       7.769   5.160  12.906  0.00  0.00    +0.000 C 
BRANCH  17  18
ATOM     18  O   UNL     1       8.808   5.976  13.207  0.00  0.00    +0.000 OA
ATOM     19  H   UNL     1       9.452   5.524  13.791  0.00  0.00    +0.000 HD
ENDBRANCH  17  18
ENDBRANCH  11  17
ENDBRANCH   1  14
TORSDOF 4
ENDMDL
MODEL 8
REMARK VINA RESULT:      -6.8      1.093      1.487
REMARK  Name = 
REMARK  4 active torsions:
REMARK  status: ('A' for Active; 'I' for Inactive)
REMARK    1  A    between atoms: C_2  and  O_3
REMARK    2  A    between atoms: C_2  and  C_4
REMARK    3  A    between atoms: C_7  and  S_8
REMARK    4  A    between atoms: S_8  and  C_11
REMARK                            x       y       z     vdW  Elec       q    Type
REMARK                         _______ _______ _______ _____ _____    ______ ____
ROOT
ATOM      1  S   UNL     1       5.167   6.192  17.430  0.00  0.00    +0.000 S 
ATOM      2  O   UNL     1       6.347   6.423  18.246  0.00  0.00    +0.000 OA
ATOM      3  O   UNL     1       4.366   7.278  16.906  0.00  0.00    +0.000 OA
ENDROOT
BRANCH   1   4
ATOM      4  C   UNL     1       4.099   5.062  18.287  0.00  0.00    +0.000 A 
ATOM      5  C   UNL     1       2.715   5.176  18.126  0.00  0.00    +0.000 A 
ATOM      6  C   UNL     1       1.864   4.328  18.839  0.00  0.00    +0.000 A 
ATOM      7  C   UNL     1       2.401   3.353  19.681  0.00  0.00    +0.000 A 
ATOM      8 CL   UNL     1       1.350   2.333  20.582  0.00  0.00    +0.000 Cl
ATOM      9  C   UNL     1       3.784   3.206  19.801  0.00  0.00    +0.000 A 
ATOM     10  C   UNL     1       4.642   4.058  19.097  0.00  0.00    +0.000 A 
ENDBRANCH   1   4
BRANCH   1  14
ATOM     11  C   UNL     1       6.912   4.914  14.101  0.00  0.00    +0.000 A 
ATOM     12  C   UNL     1       6.054   3.850  14.260  0.00  0.00    +0.000 A 
ATOM     13  C   UNL     1       5.327   4.087  15.445  0.00  0.00    +0.000 A 
ATOM     14  C   UNL     1       5.758   5.297  15.979  0.00  0.00    +0.000 A 
ATOM     15  O   UNL     1       6.771   5.782  15.157  0.00  0.00    +0.000 OA
BRANCH  11  17
ATOM     16  O   UNL     1       8.821   5.923  13.115  0.00  0.00    +0.000 OA
ATOM     17  C   UNL     1       7.837   5.200  13.026  0.00  0.00    +0.000 C 
BRANCH  17  18
ATOM     18  O   UNL     1       7.496   4.574  11.873  0.00  0.00    +0.000 OA
ATOM     19  H   UNL     1       6.725   3.985  12.008  0.00  0.00    +0.000 HD
ENDBRANCH  17  18
ENDBRANCH  11  17
ENDBRANCH   1  14
TORSDOF 4
ENDMDL
MODEL 9
REMARK VINA RESULT:      -6.7      2.921      3.826
REMARK  Name = 
REMARK  4 active torsions:
REMARK  status: ('A' for Active; 'I' for Inactive)
REMARK    1  A    between atoms: C_2  and  O_3
REMARK    2  A    between atoms: C_2  and  C_4
REMARK    3  A    between atoms: C_7  and  S_8
REMARK    4  A    between atoms: S_8  and  C_11
REMARK                            x       y       z     vdW  Elec       q    Type
REMARK                         _______ _______ _______ _____ _____    ______ ____
ROOT
ATOM      1  S   UNL     1       3.186   4.507  18.718  0.00  0.00    +0.000 S 
ATOM      2  O   UNL     1       2.346   3.875  17.714  0.00  0.00    +0.000 OA
ATOM      3  O   UNL     1       3.424   3.909  20.013  0.00  0.00    +0.000 OA
ENDROOT
BRANCH   1   4
ATOM      4  C   UNL     1       2.621   6.174  18.957  0.00  0.00    +0.000 A 
ATOM      5  C   UNL     1       2.135   6.556  20.211  0.00  0.00    +0.000 A 
ATOM      6  C   UNL     1       1.637   7.848  20.395  0.00  0.00    +0.000 A 
ATOM      7  C   UNL     1       1.659   8.757  19.337  0.00  0.00    +0.000 A 
ATOM      8 CL   UNL     1       1.014  10.336  19.558  0.00  0.00    +0.000 Cl
ATOM      9  C   UNL     1       2.192   8.392  18.100  0.00  0.00    +0.000 A 
ATOM     10  C   UNL     1       2.684   7.096  17.906  0.00  0.00    +0.000 A 
ENDBRANCH   1   4
BRANCH   1  14
ATOM     11  C   UNL     1       6.355   4.673  16.333  0.00  0.00    +0.000 A 
ATOM     12  C   UNL     1       7.038   4.759  17.525  0.00  0.00    +0.000 A 
ATOM     13  C   UNL     1       6.069   4.748  18.549  0.00  0.00    +0.000 A 
ATOM     14  C   UNL     1       4.815   4.650  17.955  0.00  0.00    +0.000 A 
ATOM     15  O   UNL     1       5.003   4.646  16.576  0.00  0.00    +0.000 OA
BRANCH  11  17
ATOM     16  O   UNL     1       7.637   5.390  14.468  0.00  0.00    +0.000 OA
ATOM     17  C   UNL     1       6.867   4.589  14.982  0.00  0.00    +0.000 C 
BRANCH  17  18
ATOM     18  O   UNL     1       6.393   3.507  14.318  0.00  0.00    +0.000 OA
ATOM     19  H   UNL     1       7.063   2.794  14.287  0.00  0.00    +0.000 HD
ENDBRANCH  17  18
ENDBRANCH  11  17
ENDBRANCH   1  14
TORSDOF 4
ENDMDL
