MODEL 1
REMARK VINA RESULT:      -7.4      0.000      0.000
REMARK  Name = 
REMARK  3 active torsions:
REMARK  status: ('A' for Active; 'I' for Inactive)
REMARK    1  A    between atoms: C_1  and  N_2
REMARK    2  A    between atoms: N_2  and  N_3
REMARK    3  A    between atoms: C_8  and  C_9
REMARK                            x       y       z     vdW  Elec       q    Type
REMARK                         _______ _______ _______ _____ _____    ______ ____
ROOT
ATOM      1  N   UNL     1       6.485   3.702  13.165  0.00  0.00    +0.000 N 
ATOM      2  C   UNL     1       6.422   4.418  14.381  0.00  0.00    +0.000 A 
ATOM      3  N   UNL     1       7.464   5.227  14.677  0.00  0.00    +0.000 NA
ATOM      4  N   UNL     1       7.465   5.942  15.829  0.00  0.00    +0.000 NA
ATOM      5  C   UNL     1       6.418   5.802  16.659  0.00  0.00    +0.000 A 
ATOM      6  C   UNL     1       5.370   4.952  16.356  0.00  0.00    +0.000 A 
ATOM      7  N   UNL     1       5.356   4.259  15.194  0.00  0.00    +0.000 NA
ATOM      8  H   UNL     1       7.198   4.156  12.592  0.00  0.00    +0.000 HD
ENDROOT
BRANCH   6   9
ATOM      9  C   UNL     1       4.227   4.731  17.266  0.00  0.00    +0.000 A 
ATOM     10  C   UNL     1       3.412   3.589  17.141  0.00  0.00    +0.000 A 
ATOM     11  C   UNL     1       2.340   3.356  18.012  0.00  0.00    +0.000 A 
ATOM     12  C   UNL     1       2.065   4.263  19.028  0.00  0.00    +0.000 A 
ATOM     13 CL   UNL     1       0.762   3.973  20.113  0.00  0.00    +0.000 Cl
ATOM     14  C   UNL     1       2.847   5.403  19.177  0.00  0.00    +0.000 A 
ATOM     15  C   UNL     1       3.918   5.633  18.305  0.00  0.00    +0.000 A 
ENDBRANCH   6   9
BRANCH   1  17
ATOM     16  C   UNL     1       5.541   2.279  11.578  0.00  0.00    +0.000 C 
ATOM     17  N   UNL     1       5.267   3.363  12.518  0.00  0.00    +0.000 NA
ATOM     18  H   UNL     1       4.608   3.021  13.227  0.00  0.00    +0.000 HD
ENDBRANCH   1  17
TORSDOF 2
ENDMDL
MODEL 2
REMARK VINA RESULT:      -7.4      0.232      1.196
REMARK  Name = 
REMARK  3 active torsions:
REMARK  status: ('A' for Active; 'I' for Inactive)
REMARK    1  A    between atoms: C_1  and  N_2
REMARK    2  A    between atoms: N_2  and  N_3
REMARK    3  A    between atoms: C_8  and  C_9
REMARK                            x       y       z     vdW  Elec       q    Type
REMARK                         _______ _______ _______ _____ _____    ______ ____
ROOT
ATOM      1  N   UNL     1       6.512   3.762  13.223  0.00  0.00    +0.000 N 
ATOM      2  C   UNL     1       6.458   4.439  14.462  0.00  0.00    +0.000 A 
ATOM      3  N   UNL     1       7.495   5.252  14.767  0.00  0.00    +0.000 NA
ATOM      4  N   UNL     1       7.504   5.930  15.941  0.00  0.00    +0.000 NA
ATOM      5  C   UNL     1       6.472   5.750  16.782  0.00  0.00    +0.000 A 
ATOM      6  C   UNL     1       5.429   4.897  16.468  0.00  0.00    +0.000 A 
ATOM      7  N   UNL     1       5.407   4.240  15.284  0.00  0.00    +0.000 NA
ATOM      8  H   UNL     1       7.211   4.243  12.654  0.00  0.00    +0.000 HD
ENDROOT
BRANCH   6   9
ATOM      9  C   UNL     1       4.303   4.632  17.387  0.00  0.00    +0.000 A 
ATOM     10  C   UNL     1       4.207   5.296  18.626  0.00  0.00    +0.000 A 
ATOM     11  C   UNL     1       3.132   5.071  19.494  0.00  0.00    +0.000 A 
ATOM     12  C   UNL     1       2.129   4.176  19.137  0.00  0.00    +0.000 A 
ATOM     13 CL   UNL     1       0.797   3.910  20.192  0.00  0.00    +0.000 Cl
ATOM     14  C   UNL     1       2.195   3.502  17.923  0.00  0.00    +0.000 A 
ATOM     15  C   UNL     1       3.272   3.729  17.057  0.00  0.00    +0.000 A 
ENDBRANCH   6   9
BRANCH   1  17
ATOM     16  C   UNL     1       5.545   2.316  11.671  0.00  0.00    +0.000 C 
ATOM     17  N   UNL     1       5.289   3.429  12.583  0.00  0.00    +0.000 NA
ATOM     18  H   UNL     1       4.624   3.116  13.300  0.00  0.00    +0.000 HD
ENDBRANCH   1  17
TORSDOF 2
ENDMDL
MODEL 3
REMARK VINA RESULT:      -7.2      0.929      1.006
REMARK  Name = 
REMARK  3 active torsions:
REMARK  status: ('A' for Active; 'I' for Inactive)
REMARK    1  A    between atoms: C_1  and  N_2
REMARK    2  A    between atoms: N_2  and  N_3
REMARK    3  A    between atoms: C_8  and  C_9
REMARK                            x       y       z     vdW  Elec       q    Type
REMARK                         _______ _______ _______ _____ _____    ______ ____
ROOT
ATOM      1  N   UNL     1       6.538   3.848  13.440  0.00  0.00    +0.000 N 
ATOM      2  C   UNL     1       6.474   4.442  14.721  0.00  0.00    +0.000 A 
ATOM      3  N   UNL     1       7.460   5.306  15.051  0.00  0.00    +0.000 NA
ATOM      4  N   UNL     1       7.457   5.910  16.265  0.00  0.00    +0.000 NA
ATOM      5  C   UNL     1       6.466   5.604  17.118  0.00  0.00    +0.000 A 
ATOM      6  C   UNL     1       5.476   4.700  16.778  0.00  0.00    +0.000 A 
ATOM      7  N   UNL     1       5.464   4.118  15.556  0.00  0.00    +0.000 NA
ATOM      8  H   UNL     1       7.184   4.412  12.886  0.00  0.00    +0.000 HD
ENDROOT
BRANCH   6   9
ATOM      9  C   UNL     1       4.400   4.299  17.707  0.00  0.00    +0.000 A 
ATOM     10  C   UNL     1       3.046   4.522  17.386  0.00  0.00    +0.000 A 
ATOM     11  C   UNL     1       2.016   4.125  18.248  0.00  0.00    +0.000 A 
ATOM     12  C   UNL     1       2.322   3.493  19.448  0.00  0.00    +0.000 A 
ATOM     13 CL   UNL     1       1.060   2.986  20.500  0.00  0.00    +0.000 Cl
ATOM     14  C   UNL     1       3.648   3.261  19.796  0.00  0.00    +0.000 A 
ATOM     15  C   UNL     1       4.675   3.659  18.932  0.00  0.00    +0.000 A 
ENDBRANCH   6   9
BRANCH   1  17
ATOM     16  C   UNL     1       5.645   2.546  11.726  0.00  0.00    +0.000 C 
ATOM     17  N   UNL     1       5.323   3.468  12.812  0.00  0.00    +0.000 NA
ATOM     18  H   UNL     1       4.744   2.971  13.500  0.00  0.00    +0.000 HD
ENDBRANCH   1  17
TORSDOF 2
ENDMDL
MODEL 4
REMARK VINA RESULT:      -7.1      1.823      3.762
REMARK  Name = 
REMARK  3 active torsions:
REMARK  status: ('A' for Active; 'I' for Inactive)
REMARK    1  A    between atoms: C_1  and  N_2
REMARK    2  A    between atoms: N_2  and  N_3
REMARK    3  A    between atoms: C_8  and  C_9
REMARK                            x       y       z     vdW  Elec       q    Type
REMARK                         _______ _______ _______ _____ _____    ______ ____
ROOT
ATOM      1  N   UNL     1       7.732   7.280  16.740  0.00  0.00    +0.000 N 
ATOM      2  C   UNL     1       7.003   6.090  16.519  0.00  0.00    +0.000 A 
ATOM      3  N   UNL     1       7.289   5.388  15.400  0.00  0.00    +0.000 NA
ATOM      4  N   UNL     1       6.625   4.238  15.129  0.00  0.00    +0.000 NA
ATOM      5  C   UNL     1       5.674   3.842  15.991  0.00  0.00    +0.000 A 
ATOM      6  C   UNL     1       5.373   4.581  17.121  0.00  0.00    +0.000 A 
ATOM      7  N   UNL     1       6.055   5.716  17.404  0.00  0.00    +0.000 NA
ATOM      8  H   UNL     1       8.555   7.237  16.136  0.00  0.00    +0.000 HD
ENDROOT
BRANCH   6   9
ATOM      9  C   UNL     1       4.300   4.208  18.065  0.00  0.00    +0.000 A 
ATOM     10  C   UNL     1       2.984   4.677  17.888  0.00  0.00    +0.000 A 
ATOM     11  C   UNL     1       1.953   4.311  18.763  0.00  0.00    +0.000 A 
ATOM     12  C   UNL     1       2.221   3.463  19.831  0.00  0.00    +0.000 A 
ATOM     13 CL   UNL     1       0.955   2.995  20.897  0.00  0.00    +0.000 Cl
ATOM     14  C   UNL     1       3.510   2.985  20.036  0.00  0.00    +0.000 A 
ATOM     15  C   UNL     1       4.538   3.353  19.160  0.00  0.00    +0.000 A 
ENDBRANCH   6   9
BRANCH   1  17
ATOM     16  C   UNL     1       8.254   9.129  18.059  0.00  0.00    +0.000 C 
ATOM     17  N   UNL     1       7.945   7.702  18.079  0.00  0.00    +0.000 NA
ATOM     18  H   UNL     1       7.074   7.564  18.604  0.00  0.00    +0.000 HD
ENDBRANCH   1  17
TORSDOF 2
ENDMDL
MODEL 5
REMARK VINA RESULT:      -7.1      1.590      3.554
REMARK  Name = 
REMARK  3 active torsions:
REMARK  status: ('A' for Active; 'I' for Inactive)
REMARK    1  A    between atoms: C_1  and  N_2
REMARK    2  A    between atoms: N_2  and  N_3
REMARK    3  A    between atoms: C_8  and  C_9
REMARK                            x       y       z     vdW  Elec       q    Type
REMARK                         _______ _______ _______ _____ _____    ______ ____
ROOT
ATOM      1  N   UNL     1       7.747   7.079  16.647  0.00  0.00    +0.000 N 
ATOM      2  C   UNL     1       7.008   5.939  16.258  0.00  0.00    +0.000 A 
ATOM      3  N   UNL     1       7.410   5.296  15.139  0.00  0.00    +0.000 NA
ATOM      4  N   UNL     1       6.744   4.195  14.710  0.00  0.00    +0.000 NA
ATOM      5  C   UNL     1       5.677   3.789  15.417  0.00  0.00    +0.000 A 
ATOM      6  C   UNL     1       5.261   4.470  16.547  0.00  0.00    +0.000 A 
ATOM      7  N   UNL     1       5.942   5.553  16.990  0.00  0.00    +0.000 NA
ATOM      8  H   UNL     1       8.638   7.037  16.151  0.00  0.00    +0.000 HD
ENDROOT
BRANCH   6   9
ATOM      9  C   UNL     1       4.063   4.087  17.321  0.00  0.00    +0.000 A 
ATOM     10  C   UNL     1       3.824   2.743  17.670  0.00  0.00    +0.000 A 
ATOM     11  C   UNL     1       2.705   2.370  18.424  0.00  0.00    +0.000 A 
ATOM     12  C   UNL     1       1.801   3.339  18.846  0.00  0.00    +0.000 A 
ATOM     13 CL   UNL     1       0.434   2.889  19.788  0.00  0.00    +0.000 Cl
ATOM     14  C   UNL     1       2.004   4.674  18.516  0.00  0.00    +0.000 A 
ATOM     15  C   UNL     1       3.125   5.043  17.762  0.00  0.00    +0.000 A 
ENDBRANCH   6   9
BRANCH   1  17
ATOM     16  C   UNL     1       8.218   8.802  18.144  0.00  0.00    +0.000 C 
ATOM     17  N   UNL     1       7.801   7.407  18.028  0.00  0.00    +0.000 NA
ATOM     18  H   UNL     1       6.856   7.315  18.420  0.00  0.00    +0.000 HD
ENDBRANCH   1  17
TORSDOF 2
ENDMDL
MODEL 6
REMARK VINA RESULT:      -6.9      1.234      1.352
REMARK  Name = 
REMARK  3 active torsions:
REMARK  status: ('A' for Active; 'I' for Inactive)
REMARK    1  A    between atoms: C_1  and  N_2
REMARK    2  A    between atoms: N_2  and  N_3
REMARK    3  A    between atoms: C_8  and  C_9
REMARK                            x       y       z     vdW  Elec       q    Type
REMARK                         _______ _______ _______ _____ _____    ______ ____
ROOT
ATOM      1  N   UNL     1       7.062   4.243  14.401  0.00  0.00    +0.000 N 
ATOM      2  C   UNL     1       6.707   4.946  15.574  0.00  0.00    +0.000 A 
ATOM      3  N   UNL     1       7.406   6.067  15.858  0.00  0.00    +0.000 NA
ATOM      4  N   UNL     1       7.116   6.787  16.969  0.00  0.00    +0.000 NA
ATOM      5  C   UNL     1       6.136   6.339  17.772  0.00  0.00    +0.000 A 
ATOM      6  C   UNL     1       5.444   5.177  17.483  0.00  0.00    +0.000 A 
ATOM      7  N   UNL     1       5.717   4.473  16.360  0.00  0.00    +0.000 NA
ATOM      8  H   UNL     1       7.610   4.886  13.826  0.00  0.00    +0.000 HD
ENDROOT
BRANCH   6   9
ATOM      9  C   UNL     1       4.398   4.624  18.367  0.00  0.00    +0.000 A 
ATOM     10  C   UNL     1       3.985   3.282  18.250  0.00  0.00    +0.000 A 
ATOM     11  C   UNL     1       3.011   2.740  19.097  0.00  0.00    +0.000 A 
ATOM     12  C   UNL     1       2.432   3.532  20.082  0.00  0.00    +0.000 A 
ATOM     13 CL   UNL     1       1.249   2.866  21.138  0.00  0.00    +0.000 Cl
ATOM     14  C   UNL     1       2.814   4.861  20.223  0.00  0.00    +0.000 A 
ATOM     15  C   UNL     1       3.788   5.400  19.374  0.00  0.00    +0.000 A 
ENDBRANCH   6   9
BRANCH   1  17
ATOM     16  C   UNL     1       6.369   3.487  12.308  0.00  0.00    +0.000 C 
ATOM     17  N   UNL     1       6.057   3.492  13.734  0.00  0.00    +0.000 NA
ATOM     18  H   UNL     1       6.093   2.526  14.079  0.00  0.00    +0.000 HD
ENDBRANCH   1  17
TORSDOF 2
ENDMDL
MODEL 7
REMARK VINA RESULT:      -6.8      3.959      5.506
REMARK  Name = 
REMARK  3 active torsions:
REMARK  status: ('A' for Active; 'I' for Inactive)
REMARK    1  A    between atoms: C_1  and  N_2
REMARK    2  A    between atoms: N_2  and  N_3
REMARK    3  A    between atoms: C_8  and  C_9
REMARK                            x       y       z     vdW  Elec       q    Type
REMARK                         _______ _______ _______ _____ _____    ______ ____
ROOT
ATOM      1  N   UNL     1       5.836   3.685  18.849  0.00  0.00    +0.000 N 
ATOM      2  C   UNL     1       4.572   4.031  19.376  0.00  0.00    +0.000 A 
ATOM      3  N   UNL     1       3.884   3.061  20.019  0.00  0.00    +0.000 NA
ATOM      4  N   UNL     1       2.664   3.327  20.548  0.00  0.00    +0.000 NA
ATOM      5  C   UNL     1       2.167   4.566  20.393  0.00  0.00    +0.000 A 
ATOM      6  C   UNL     1       2.870   5.543  19.712  0.00  0.00    +0.000 A 
ATOM      7  N   UNL     1       4.099   5.284  19.207  0.00  0.00    +0.000 NA
ATOM      8  H   UNL     1       6.120   2.818  19.308  0.00  0.00    +0.000 HD
ENDROOT
BRANCH   6   9
ATOM      9  C   UNL     1       2.336   6.900  19.475  0.00  0.00    +0.000 A 
ATOM     10  C   UNL     1       2.422   7.501  18.203  0.00  0.00    +0.000 A 
ATOM     11  C   UNL     1       1.898   8.776  17.961  0.00  0.00    +0.000 A 
ATOM     12  C   UNL     1       1.275   9.476  18.988  0.00  0.00    +0.000 A 
ATOM     13 CL   UNL     1       0.613  11.035  18.690  0.00  0.00    +0.000 Cl
ATOM     14  C   UNL     1       1.176   8.913  20.255  0.00  0.00    +0.000 A 
ATOM     15  C   UNL     1       1.701   7.637  20.495  0.00  0.00    +0.000 A 
ENDBRANCH   6   9
BRANCH   1  17
ATOM     16  C   UNL     1       7.364   4.660  17.384  0.00  0.00    +0.000 C 
ATOM     17  N   UNL     1       6.822   4.701  18.740  0.00  0.00    +0.000 NA
ATOM     18  H   UNL     1       6.366   5.611  18.881  0.00  0.00    +0.000 HD
ENDBRANCH   1  17
TORSDOF 2
ENDMDL
MODEL 8
REMARK VINA RESULT:      -6.7      3.894      5.599
REMARK  Name = 
REMARK  3 active torsions:
REMARK  status: ('A' for Active; 'I' for Inactive)
REMARK    1  A    between atoms: C_1  and  N_2
REMARK    2  A    between atoms: N_2  and  N_3
REMARK    3  A    between atoms: C_8  and  C_9
REMARK                            x       y       z     vdW  Elec       q    Type
REMARK                         _______ _______ _______ _____ _____    ______ ____
ROOT
ATOM      1  N   UNL     1       5.510   3.437  18.817  0.00  0.00    +0.000 N 
ATOM      2  C   UNL     1       4.332   3.891  19.450  0.00  0.00    +0.000 A 
ATOM      3  N   UNL     1       3.682   3.014  20.249  0.00  0.00    +0.000 NA
ATOM      4  N   UNL     1       2.545   3.387  20.886  0.00  0.00    +0.000 NA
ATOM      5  C   UNL     1       2.087   4.633  20.680  0.00  0.00    +0.000 A 
ATOM      6  C   UNL     1       2.747   5.513  19.842  0.00  0.00    +0.000 A 
ATOM      7  N   UNL     1       3.897   5.149  19.226  0.00  0.00    +0.000 NA
ATOM      8  H   UNL     1       5.808   2.597  19.315  0.00  0.00    +0.000 HD
ENDROOT
BRANCH   6   9
ATOM      9  C   UNL     1       2.248   6.872  19.548  0.00  0.00    +0.000 A 
ATOM     10  C   UNL     1       1.631   7.649  20.548  0.00  0.00    +0.000 A 
ATOM     11  C   UNL     1       1.175   8.947  20.289  0.00  0.00    +0.000 A 
ATOM     12  C   UNL     1       1.331   9.495  19.021  0.00  0.00    +0.000 A 
ATOM     13 CL   UNL     1       0.790  11.096  18.701  0.00  0.00    +0.000 Cl
ATOM     14  C   UNL     1       1.933   8.754  18.010  0.00  0.00    +0.000 A 
ATOM     15  C   UNL     1       2.387   7.456  18.273  0.00  0.00    +0.000 A 
ENDBRANCH   6   9
BRANCH   1  17
ATOM     16  C   UNL     1       6.706   4.395  17.060  0.00  0.00    +0.000 C 
ATOM     17  N   UNL     1       6.519   4.387  18.509  0.00  0.00    +0.000 NA
ATOM     18  H   UNL     1       6.190   5.315  18.800  0.00  0.00    +0.000 HD
ENDBRANCH   1  17
TORSDOF 2
ENDMDL
MODEL 9
REMARK VINA RESULT:      -6.6      3.916      5.357
REMARK  Name = 
REMARK  3 active torsions:
REMARK  status: ('A' for Active; 'I' for Inactive)
REMARK    1  A    between atoms: C_1  and  N_2
REMARK    2  A    between atoms: N_2  and  N_3
REMARK    3  A    between atoms: C_8  and  C_9
REMARK                            x       y       z     vdW  Elec       q    Type
REMARK                         _______ _______ _______ _____ _____    ______ ____
ROOT
ATOM      1  N   UNL     1       6.328   4.316  18.691  0.00  0.00    +0.000 N 
ATOM      2  C   UNL     1       4.936   4.478  18.505  0.00  0.00    +0.000 A 
ATOM      3  N   UNL     1       4.252   3.423  18.009  0.00  0.00    +0.000 NA
ATOM      4  N   UNL     1       2.915   3.514  17.806  0.00  0.00    +0.000 NA
ATOM      5  C   UNL     1       2.311   4.679  18.094  0.00  0.00    +0.000 A 
ATOM      6  C   UNL     1       3.027   5.759  18.578  0.00  0.00    +0.000 A 
ATOM      7  N   UNL     1       4.358   5.660  18.805  0.00  0.00    +0.000 NA
ATOM      8  H   UNL     1       6.512   3.312  18.677  0.00  0.00    +0.000 HD
ENDROOT
BRANCH   6   9
ATOM      9  C   UNL     1       2.410   7.073  18.856  0.00  0.00    +0.000 A 
ATOM     10  C   UNL     1       2.285   8.044  17.843  0.00  0.00    +0.000 A 
ATOM     11  C   UNL     1       1.681   9.283  18.088  0.00  0.00    +0.000 A 
ATOM     12  C   UNL     1       1.187   9.574  19.355  0.00  0.00    +0.000 A 
ATOM     13 CL   UNL     1       0.427  11.087  19.657  0.00  0.00    +0.000 Cl
ATOM     14  C   UNL     1       1.297   8.639  20.378  0.00  0.00    +0.000 A 
ATOM     15  C   UNL     1       1.902   7.401  20.129  0.00  0.00    +0.000 A 
ENDBRANCH   6   9
BRANCH   1  17
ATOM     16  C   UNL     1       7.902   5.989  19.084  0.00  0.00    +0.000 C 
ATOM     17  N   UNL     1       6.963   5.066  19.716  0.00  0.00    +0.000 NA
ATOM     18  H   UNL     1       6.247   5.614  20.207  0.00  0.00    +0.000 HD
ENDBRANCH   1  17
TORSDOF 2
ENDMDL
