MODEL 1
REMARK VINA RESULT:      -7.6      0.000      0.000
REMARK  Name = 
REMARK  4 active torsions:
REMARK  status: ('A' for Active; 'I' for Inactive)
REMARK    1  A    between atoms: C_2  and  N_3
REMARK    2  A    between atoms: C_2  and  N_10
REMARK    3  A    between atoms: N_3  and  C_4
REMARK    4  A    between atoms: N_14  and  C_15
REMARK                            x       y       z     vdW  Elec       q    Type
REMARK                         _______ _______ _______ _____ _____    ______ ____
ROOT
ATOM      1  N   UNL     1       3.539   4.098  19.166  0.00  0.00    +0.000 N 
ATOM      2  C   UNL     1       3.452   2.638  19.215  0.00  0.00    +0.000 C 
ATOM      3  C   UNL     1       3.542   2.179  17.780  0.00  0.00    +0.000 C 
ATOM      4  C   UNL     1       4.299   3.289  17.081  0.00  0.00    +0.000 C 
ATOM      5  N   UNL     1       4.120   4.506  17.910  0.00  0.00    +0.000 N 
ENDROOT
BRANCH   5   6
ATOM      6  C   UNL     1       5.321   5.283  18.023  0.00  0.00    +0.000 A 
ATOM      7  C   UNL     1       5.550   6.392  17.177  0.00  0.00    +0.000 A 
ATOM      8  C   UNL     1       6.721   7.152  17.250  0.00  0.00    +0.000 A 
ATOM      9  C   UNL     1       7.675   6.866  18.218  0.00  0.00    +0.000 A 
ATOM     10  C   UNL     1       7.453   5.822  19.109  0.00  0.00    +0.000 A 
ATOM     11  C   UNL     1       6.296   5.040  19.003  0.00  0.00    +0.000 A 
ENDBRANCH   5   6
BRANCH   1  13
ATOM     12  S   UNL     1       1.255   4.247  20.591  0.00  0.00    +0.000 S 
ATOM     13  C   UNL     1       2.628   4.912  19.862  0.00  0.00    +0.000 C 
BRANCH  13  14
ATOM     14  N   UNL     1       3.023   6.239  19.950  0.00  0.00    +0.000 N 
ATOM     15  H   UNL     1       3.889   6.364  20.460  0.00  0.00    +0.000 HD
BRANCH  14  16
ATOM     16  C   UNL     1       2.325   7.395  19.543  0.00  0.00    +0.000 A 
ATOM     17  C   UNL     1       1.591   8.111  20.491  0.00  0.00    +0.000 A 
ATOM     18  C   UNL     1       0.911   9.276  20.116  0.00  0.00    +0.000 A 
ATOM     19  C   UNL     1       0.999   9.754  18.803  0.00  0.00    +0.000 A 
ATOM     20  C   UNL     1       1.760   9.064  17.871  0.00  0.00    +0.000 A 
ATOM     21  C   UNL     1       2.417   7.894  18.242  0.00  0.00    +0.000 A 
ENDBRANCH  14  16
ENDBRANCH  13  14
ENDBRANCH   1  13
TORSDOF 4
ENDMDL
MODEL 2
REMARK VINA RESULT:      -7.6      0.056      1.078
REMARK  Name = 
REMARK  4 active torsions:
REMARK  status: ('A' for Active; 'I' for Inactive)
REMARK    1  A    between atoms: C_2  and  N_3
REMARK    2  A    between atoms: C_2  and  N_10
REMARK    3  A    between atoms: N_3  and  C_4
REMARK    4  A    between atoms: N_14  and  C_15
REMARK                            x       y       z     vdW  Elec       q    Type
REMARK                         _______ _______ _______ _____ _____    ______ ____
ROOT
ATOM      1  N   UNL     1       3.542   4.112  19.177  0.00  0.00    +0.000 N 
ATOM      2  C   UNL     1       3.446   2.654  19.248  0.00  0.00    +0.000 C 
ATOM      3  C   UNL     1       3.557   2.170  17.822  0.00  0.00    +0.000 C 
ATOM      4  C   UNL     1       4.332   3.265  17.118  0.00  0.00    +0.000 C 
ATOM      5  N   UNL     1       4.147   4.497  17.925  0.00  0.00    +0.000 N 
ENDROOT
BRANCH   5   6
ATOM      6  C   UNL     1       5.350   5.269  18.044  0.00  0.00    +0.000 A 
ATOM      7  C   UNL     1       5.579   6.389  17.214  0.00  0.00    +0.000 A 
ATOM      8  C   UNL     1       6.753   7.145  17.294  0.00  0.00    +0.000 A 
ATOM      9  C   UNL     1       7.708   6.843  18.255  0.00  0.00    +0.000 A 
ATOM     10  C   UNL     1       7.486   5.787  19.131  0.00  0.00    +0.000 A 
ATOM     11  C   UNL     1       6.327   5.009  19.017  0.00  0.00    +0.000 A 
ENDBRANCH   5   6
BRANCH   1  13
ATOM     12  S   UNL     1       1.213   4.303  20.521  0.00  0.00    +0.000 S 
ATOM     13  C   UNL     1       2.624   4.943  19.844  0.00  0.00    +0.000 C 
BRANCH  13  14
ATOM     14  N   UNL     1       3.044   6.260  19.953  0.00  0.00    +0.000 N 
ATOM     15  H   UNL     1       3.920   6.360  20.452  0.00  0.00    +0.000 HD
BRANCH  14  16
ATOM     16  C   UNL     1       2.360   7.436  19.579  0.00  0.00    +0.000 A 
ATOM     17  C   UNL     1       2.394   7.842  18.242  0.00  0.00    +0.000 A 
ATOM     18  C   UNL     1       1.702   8.992  17.843  0.00  0.00    +0.000 A 
ATOM     19  C   UNL     1       0.937   9.713  18.767  0.00  0.00    +0.000 A 
ATOM     20  C   UNL     1       0.871   9.287  20.085  0.00  0.00    +0.000 A 
ATOM     21  C   UNL     1       1.578   8.156  20.484  0.00  0.00    +0.000 A 
ENDBRANCH  14  16
ENDBRANCH  13  14
ENDBRANCH   1  13
TORSDOF 4
ENDMDL
MODEL 3
REMARK VINA RESULT:      -7.6      0.088      1.075
REMARK  Name = 
REMARK  4 active torsions:
REMARK  status: ('A' for Active; 'I' for Inactive)
REMARK    1  A    between atoms: C_2  and  N_3
REMARK    2  A    between atoms: C_2  and  N_10
REMARK    3  A    between atoms: N_3  and  C_4
REMARK    4  A    between atoms: N_14  and  C_15
REMARK                            x       y       z     vdW  Elec       q    Type
REMARK                         _______ _______ _______ _____ _____    ______ ____
ROOT
ATOM      1  N   UNL     1       3.591   4.105  19.209  0.00  0.00    +0.000 N 
ATOM      2  C   UNL     1       3.567   2.647  19.333  0.00  0.00    +0.000 C 
ATOM      3  C   UNL     1       3.668   2.118  17.922  0.00  0.00    +0.000 C 
ATOM      4  C   UNL     1       4.373   3.223  17.162  0.00  0.00    +0.000 C 
ATOM      5  N   UNL     1       4.147   4.472  17.930  0.00  0.00    +0.000 N 
ENDROOT
BRANCH   5   6
ATOM      6  C   UNL     1       5.314   5.304  17.993  0.00  0.00    +0.000 A 
ATOM      7  C   UNL     1       6.354   5.028  18.910  0.00  0.00    +0.000 A 
ATOM      8  C   UNL     1       7.491   5.836  19.007  0.00  0.00    +0.000 A 
ATOM      9  C   UNL     1       7.655   6.910  18.144  0.00  0.00    +0.000 A 
ATOM     10  C   UNL     1       6.682   7.173  17.186  0.00  0.00    +0.000 A 
ATOM     11  C   UNL     1       5.526   6.384  17.122  0.00  0.00    +0.000 A 
ENDBRANCH   5   6
BRANCH   1  13
ATOM     12  S   UNL     1       1.249   4.242  20.537  0.00  0.00    +0.000 S 
ATOM     13  C   UNL     1       2.649   4.914  19.869  0.00  0.00    +0.000 C 
BRANCH  13  14
ATOM     14  N   UNL     1       3.038   6.241  19.980  0.00  0.00    +0.000 N 
ATOM     15  H   UNL     1       3.886   6.364  20.520  0.00  0.00    +0.000 HD
BRANCH  14  16
ATOM     16  C   UNL     1       2.351   7.398  19.557  0.00  0.00    +0.000 A 
ATOM     17  C   UNL     1       1.579   8.103  20.484  0.00  0.00    +0.000 A 
ATOM     18  C   UNL     1       0.909   9.269  20.093  0.00  0.00    +0.000 A 
ATOM     19  C   UNL     1       1.045   9.759  18.788  0.00  0.00    +0.000 A 
ATOM     20  C   UNL     1       1.843   9.080  17.880  0.00  0.00    +0.000 A 
ATOM     21  C   UNL     1       2.490   7.909  18.265  0.00  0.00    +0.000 A 
ENDBRANCH  14  16
ENDBRANCH  13  14
ENDBRANCH   1  13
TORSDOF 4
ENDMDL
MODEL 4
REMARK VINA RESULT:      -7.6      0.138      1.522
REMARK  Name = 
REMARK  4 active torsions:
REMARK  status: ('A' for Active; 'I' for Inactive)
REMARK    1  A    between atoms: C_2  and  N_3
REMARK    2  A    between atoms: C_2  and  N_10
REMARK    3  A    between atoms: N_3  and  C_4
REMARK    4  A    between atoms: N_14  and  C_15
REMARK                            x       y       z     vdW  Elec       q    Type
REMARK                         _______ _______ _______ _____ _____    ______ ____
ROOT
ATOM      1  N   UNL     1       3.484   4.123  19.237  0.00  0.00    +0.000 N 
ATOM      2  C   UNL     1       3.452   2.666  19.374  0.00  0.00    +0.000 C 
ATOM      3  C   UNL     1       3.548   2.125  17.968  0.00  0.00    +0.000 C 
ATOM      4  C   UNL     1       4.256   3.219  17.197  0.00  0.00    +0.000 C 
ATOM      5  N   UNL     1       4.038   4.476  17.953  0.00  0.00    +0.000 N 
ENDROOT
BRANCH   5   6
ATOM      6  C   UNL     1       5.210   5.303  18.006  0.00  0.00    +0.000 A 
ATOM      7  C   UNL     1       6.279   4.992  18.877  0.00  0.00    +0.000 A 
ATOM      8  C   UNL     1       7.421   5.794  18.965  0.00  0.00    +0.000 A 
ATOM      9  C   UNL     1       7.559   6.898  18.135  0.00  0.00    +0.000 A 
ATOM     10  C   UNL     1       6.556   7.196  17.220  0.00  0.00    +0.000 A 
ATOM     11  C   UNL     1       5.396   6.412  17.168  0.00  0.00    +0.000 A 
ENDBRANCH   5   6
BRANCH   1  13
ATOM     12  S   UNL     1       1.119   4.293  20.521  0.00  0.00    +0.000 S 
ATOM     13  C   UNL     1       2.548   4.943  19.892  0.00  0.00    +0.000 C 
BRANCH  13  14
ATOM     14  N   UNL     1       2.964   6.258  20.034  0.00  0.00    +0.000 N 
ATOM     15  H   UNL     1       3.810   6.352  20.582  0.00  0.00    +0.000 HD
BRANCH  14  16
ATOM     16  C   UNL     1       2.305   7.438  19.631  0.00  0.00    +0.000 A 
ATOM     17  C   UNL     1       2.300   7.780  18.276  0.00  0.00    +0.000 A 
ATOM     18  C   UNL     1       1.631   8.934  17.848  0.00  0.00    +0.000 A 
ATOM     19  C   UNL     1       0.927   9.724  18.765  0.00  0.00    +0.000 A 
ATOM     20  C   UNL     1       0.899   9.362  20.104  0.00  0.00    +0.000 A 
ATOM     21  C   UNL     1       1.583   8.227  20.529  0.00  0.00    +0.000 A 
ENDBRANCH  14  16
ENDBRANCH  13  14
ENDBRANCH   1  13
TORSDOF 4
ENDMDL
MODEL 5
REMARK VINA RESULT:      -7.5      2.323      5.129
REMARK  Name = 
REMARK  4 active torsions:
REMARK  status: ('A' for Active; 'I' for Inactive)
REMARK    1  A    between atoms: C_2  and  N_3
REMARK    2  A    between atoms: C_2  and  N_10
REMARK    3  A    between atoms: N_3  and  C_4
REMARK    4  A    between atoms: N_14  and  C_15
REMARK                            x       y       z     vdW  Elec       q    Type
REMARK                         _______ _______ _______ _____ _____    ______ ____
ROOT
ATOM      1  N   UNL     1       5.900   5.074  17.272  0.00  0.00    +0.000 N 
ATOM      2  C   UNL     1       7.257   5.058  17.820  0.00  0.00    +0.000 C 
ATOM      3  C   UNL     1       7.791   6.456  17.618  0.00  0.00    +0.000 C 
ATOM      4  C   UNL     1       6.551   7.324  17.573  0.00  0.00    +0.000 C 
ATOM      5  N   UNL     1       5.429   6.434  17.187  0.00  0.00    +0.000 N 
ENDROOT
BRANCH   5   6
ATOM      6  C   UNL     1       4.226   6.706  17.921  0.00  0.00    +0.000 A 
ATOM      7  C   UNL     1       3.971   6.070  19.157  0.00  0.00    +0.000 A 
ATOM      8  C   UNL     1       2.797   6.300  19.881  0.00  0.00    +0.000 A 
ATOM      9  C   UNL     1       1.869   7.225  19.424  0.00  0.00    +0.000 A 
ATOM     10  C   UNL     1       2.118   7.917  18.244  0.00  0.00    +0.000 A 
ATOM     11  C   UNL     1       3.277   7.651  17.503  0.00  0.00    +0.000 A 
ENDBRANCH   5   6
BRANCH   1  13
ATOM     12  S   UNL     1       5.738   4.204  14.725  0.00  0.00    +0.000 S 
ATOM     13  C   UNL     1       5.453   4.076  16.387  0.00  0.00    +0.000 C 
BRANCH  13  14
ATOM     14  N   UNL     1       4.868   2.992  17.022  0.00  0.00    +0.000 N 
ATOM     15  H   UNL     1       5.341   2.116  16.835  0.00  0.00    +0.000 HD
BRANCH  14  16
ATOM     16  C   UNL     1       3.668   2.947  17.763  0.00  0.00    +0.000 A 
ATOM     17  C   UNL     1       3.696   2.441  19.065  0.00  0.00    +0.000 A 
ATOM     18  C   UNL     1       2.522   2.411  19.829  0.00  0.00    +0.000 A 
ATOM     19  C   UNL     1       1.329   2.927  19.311  0.00  0.00    +0.000 A 
ATOM     20  C   UNL     1       1.310   3.466  18.033  0.00  0.00    +0.000 A 
ATOM     21  C   UNL     1       2.473   3.474  17.268  0.00  0.00    +0.000 A 
ENDBRANCH  14  16
ENDBRANCH  13  14
ENDBRANCH   1  13
TORSDOF 4
ENDMDL
MODEL 6
REMARK VINA RESULT:      -7.4      2.324      5.164
REMARK  Name = 
REMARK  4 active torsions:
REMARK  status: ('A' for Active; 'I' for Inactive)
REMARK    1  A    between atoms: C_2  and  N_3
REMARK    2  A    between atoms: C_2  and  N_10
REMARK    3  A    between atoms: N_3  and  C_4
REMARK    4  A    between atoms: N_14  and  C_15
REMARK                            x       y       z     vdW  Elec       q    Type
REMARK                         _______ _______ _______ _____ _____    ______ ____
ROOT
ATOM      1  N   UNL     1       5.924   4.919  17.381  0.00  0.00    +0.000 N 
ATOM      2  C   UNL     1       7.257   4.868  17.982  0.00  0.00    +0.000 C 
ATOM      3  C   UNL     1       7.833   6.253  17.809  0.00  0.00    +0.000 C 
ATOM      4  C   UNL     1       6.617   7.151  17.717  0.00  0.00    +0.000 C 
ATOM      5  N   UNL     1       5.489   6.290  17.283  0.00  0.00    +0.000 N 
ENDROOT
BRANCH   5   6
ATOM      6  C   UNL     1       4.265   6.589  17.970  0.00  0.00    +0.000 A 
ATOM      7  C   UNL     1       3.958   5.974  19.205  0.00  0.00    +0.000 A 
ATOM      8  C   UNL     1       2.762   6.230  19.883  0.00  0.00    +0.000 A 
ATOM      9  C   UNL     1       1.864   7.160  19.379  0.00  0.00    +0.000 A 
ATOM     10  C   UNL     1       2.164   7.831  18.199  0.00  0.00    +0.000 A 
ATOM     11  C   UNL     1       3.345   7.539  17.504  0.00  0.00    +0.000 A 
ENDBRANCH   5   6
BRANCH   1  13
ATOM     12  S   UNL     1       5.890   4.033  14.834  0.00  0.00    +0.000 S 
ATOM     13  C   UNL     1       5.489   3.935  16.474  0.00  0.00    +0.000 C 
BRANCH  13  14
ATOM     14  N   UNL     1       4.811   2.886  17.075  0.00  0.00    +0.000 N 
ATOM     15  H   UNL     1       5.239   1.984  16.905  0.00  0.00    +0.000 HD
BRANCH  14  16
ATOM     16  C   UNL     1       3.578   2.912  17.760  0.00  0.00    +0.000 A 
ATOM     17  C   UNL     1       2.498   3.584  17.183  0.00  0.00    +0.000 A 
ATOM     18  C   UNL     1       1.257   3.602  17.833  0.00  0.00    +0.000 A 
ATOM     19  C   UNL     1       1.080   2.910  19.036  0.00  0.00    +0.000 A 
ATOM     20  C   UNL     1       2.142   2.209  19.589  0.00  0.00    +0.000 A 
ATOM     21  C   UNL     1       3.380   2.212  18.952  0.00  0.00    +0.000 A 
ENDBRANCH  14  16
ENDBRANCH  13  14
ENDBRANCH   1  13
TORSDOF 4
ENDMDL
MODEL 7
REMARK VINA RESULT:      -7.4      2.282      4.986
REMARK  Name = 
REMARK  4 active torsions:
REMARK  status: ('A' for Active; 'I' for Inactive)
REMARK    1  A    between atoms: C_2  and  N_3
REMARK    2  A    between atoms: C_2  and  N_10
REMARK    3  A    between atoms: N_3  and  C_4
REMARK    4  A    between atoms: N_14  and  C_15
REMARK                            x       y       z     vdW  Elec       q    Type
REMARK                         _______ _______ _______ _____ _____    ______ ____
ROOT
ATOM      1  N   UNL     1       5.859   5.069  17.334  0.00  0.00    +0.000 N 
ATOM      2  C   UNL     1       7.216   5.044  17.881  0.00  0.00    +0.000 C 
ATOM      3  C   UNL     1       7.776   6.425  17.639  0.00  0.00    +0.000 C 
ATOM      4  C   UNL     1       6.553   7.315  17.568  0.00  0.00    +0.000 C 
ATOM      5  N   UNL     1       5.413   6.435  17.209  0.00  0.00    +0.000 N 
ENDROOT
BRANCH   5   6
ATOM      6  C   UNL     1       4.217   6.751  17.936  0.00  0.00    +0.000 A 
ATOM      7  C   UNL     1       3.284   7.684  17.428  0.00  0.00    +0.000 A 
ATOM      8  C   UNL     1       2.123   8.027  18.127  0.00  0.00    +0.000 A 
ATOM      9  C   UNL     1       1.823   7.396  19.327  0.00  0.00    +0.000 A 
ATOM     10  C   UNL     1       2.686   6.426  19.823  0.00  0.00    +0.000 A 
ATOM     11  C   UNL     1       3.869   6.118  19.139  0.00  0.00    +0.000 A 
ENDBRANCH   5   6
BRANCH   1  13
ATOM     12  S   UNL     1       5.653   4.143  14.810  0.00  0.00    +0.000 S 
ATOM     13  C   UNL     1       5.393   4.055  16.478  0.00  0.00    +0.000 C 
BRANCH  13  14
ATOM     14  N   UNL     1       4.811   2.988  17.147  0.00  0.00    +0.000 N 
ATOM     15  H   UNL     1       5.299   2.113  17.003  0.00  0.00    +0.000 HD
BRANCH  14  16
ATOM     16  C   UNL     1       3.599   2.957  17.868  0.00  0.00    +0.000 A 
ATOM     17  C   UNL     1       3.603   2.461  19.175  0.00  0.00    +0.000 A 
ATOM     18  C   UNL     1       2.417   2.443  19.920  0.00  0.00    +0.000 A 
ATOM     19  C   UNL     1       1.235   2.963  19.379  0.00  0.00    +0.000 A 
ATOM     20  C   UNL     1       1.240   3.492  18.097  0.00  0.00    +0.000 A 
ATOM     21  C   UNL     1       2.416   3.488  17.350  0.00  0.00    +0.000 A 
ENDBRANCH  14  16
ENDBRANCH  13  14
ENDBRANCH   1  13
TORSDOF 4
ENDMDL
MODEL 8
REMARK VINA RESULT:      -7.4      2.285      5.025
REMARK  Name = 
REMARK  4 active torsions:
REMARK  status: ('A' for Active; 'I' for Inactive)
REMARK    1  A    between atoms: C_2  and  N_3
REMARK    2  A    between atoms: C_2  and  N_10
REMARK    3  A    between atoms: N_3  and  C_4
REMARK    4  A    between atoms: N_14  and  C_15
REMARK                            x       y       z     vdW  Elec       q    Type
REMARK                         _______ _______ _______ _____ _____    ______ ____
ROOT
ATOM      1  N   UNL     1       5.831   5.044  17.353  0.00  0.00    +0.000 N 
ATOM      2  C   UNL     1       7.169   4.960  17.940  0.00  0.00    +0.000 C 
ATOM      3  C   UNL     1       7.779   6.329  17.756  0.00  0.00    +0.000 C 
ATOM      4  C   UNL     1       6.585   7.258  17.676  0.00  0.00    +0.000 C 
ATOM      5  N   UNL     1       5.431   6.426  17.257  0.00  0.00    +0.000 N 
ENDROOT
BRANCH   5   6
ATOM      6  C   UNL     1       4.223   6.758  17.957  0.00  0.00    +0.000 A 
ATOM      7  C   UNL     1       3.302   7.683  17.415  0.00  0.00    +0.000 A 
ATOM      8  C   UNL     1       2.129   8.041  18.087  0.00  0.00    +0.000 A 
ATOM      9  C   UNL     1       1.808   7.434  19.294  0.00  0.00    +0.000 A 
ATOM     10  C   UNL     1       2.660   6.472  19.824  0.00  0.00    +0.000 A 
ATOM     11  C   UNL     1       3.853   6.149  19.165  0.00  0.00    +0.000 A 
ENDBRANCH   5   6
BRANCH   1  13
ATOM     12  S   UNL     1       5.678   4.197  14.798  0.00  0.00    +0.000 S 
ATOM     13  C   UNL     1       5.360   4.070  16.454  0.00  0.00    +0.000 C 
BRANCH  13  14
ATOM     14  N   UNL     1       4.722   3.005  17.072  0.00  0.00    +0.000 N 
ATOM     15  H   UNL     1       5.095   2.104  16.800  0.00  0.00    +0.000 HD
BRANCH  14  16
ATOM     16  C   UNL     1       3.581   3.024  17.901  0.00  0.00    +0.000 A 
ATOM     17  C   UNL     1       2.375   3.501  17.382  0.00  0.00    +0.000 A 
ATOM     18  C   UNL     1       1.223   3.505  18.178  0.00  0.00    +0.000 A 
ATOM     19  C   UNL     1       1.262   2.991  19.479  0.00  0.00    +0.000 A 
ATOM     20  C   UNL     1       2.450   2.480  19.981  0.00  0.00    +0.000 A 
ATOM     21  C   UNL     1       3.598   2.498  19.195  0.00  0.00    +0.000 A 
ENDBRANCH  14  16
ENDBRANCH  13  14
ENDBRANCH   1  13
TORSDOF 4
ENDMDL
MODEL 9
REMARK VINA RESULT:      -7.2      1.687      4.500
REMARK  Name = 
REMARK  4 active torsions:
REMARK  status: ('A' for Active; 'I' for Inactive)
REMARK    1  A    between atoms: C_2  and  N_3
REMARK    2  A    between atoms: C_2  and  N_10
REMARK    3  A    between atoms: N_3  and  C_4
REMARK    4  A    between atoms: N_14  and  C_15
REMARK                            x       y       z     vdW  Elec       q    Type
REMARK                         _______ _______ _______ _____ _____    ______ ____
ROOT
ATOM      1  N   UNL     1       3.128   3.070  18.887  0.00  0.00    +0.000 N 
ATOM      2  C   UNL     1       2.529   2.087  17.984  0.00  0.00    +0.000 C 
ATOM      3  C   UNL     1       1.122   1.876  18.488  0.00  0.00    +0.000 C 
ATOM      4  C   UNL     1       0.790   3.166  19.210  0.00  0.00    +0.000 C 
ATOM      5  N   UNL     1       2.086   3.786  19.582  0.00  0.00    +0.000 N 
ENDROOT
BRANCH   5   6
ATOM      6  C   UNL     1       2.097   5.208  19.391  0.00  0.00    +0.000 A 
ATOM      7  C   UNL     1       2.005   6.088  20.494  0.00  0.00    +0.000 A 
ATOM      8  C   UNL     1       1.990   7.477  20.334  0.00  0.00    +0.000 A 
ATOM      9  C   UNL     1       2.133   8.032  19.070  0.00  0.00    +0.000 A 
ATOM     10  C   UNL     1       2.291   7.197  17.970  0.00  0.00    +0.000 A 
ATOM     11  C   UNL     1       2.263   5.805  18.133  0.00  0.00    +0.000 A 
ENDBRANCH   5   6
BRANCH   1  13
ATOM     12  S   UNL     1       4.568   1.995  20.896  0.00  0.00    +0.000 S 
ATOM     13  C   UNL     1       4.397   2.867  19.458  0.00  0.00    +0.000 C 
BRANCH  13  14
ATOM     14  N   UNL     1       5.438   3.361  18.687  0.00  0.00    +0.000 N 
ATOM     15  H   UNL     1       6.333   2.940  18.908  0.00  0.00    +0.000 HD
BRANCH  14  16
ATOM     16  C   UNL     1       5.421   4.425  17.762  0.00  0.00    +0.000 A 
ATOM     17  C   UNL     1       5.767   5.707  18.198  0.00  0.00    +0.000 A 
ATOM     18  C   UNL     1       5.782   6.774  17.291  0.00  0.00    +0.000 A 
ATOM     19  C   UNL     1       5.495   6.557  15.939  0.00  0.00    +0.000 A 
ATOM     20  C   UNL     1       5.191   5.277  15.498  0.00  0.00    +0.000 A 
ATOM     21  C   UNL     1       5.155   4.222  16.406  0.00  0.00    +0.000 A 
ENDBRANCH  14  16
ENDBRANCH  13  14
ENDBRANCH   1  13
TORSDOF 4
ENDMDL
