MODEL 1
REMARK VINA RESULT:      -7.3      0.000      0.000
REMARK  Name = 
REMARK  16 active torsions:
REMARK  status: ('A' for Active; 'I' for Inactive)
REMARK    1  A    between atoms: C_1  and  C_2
REMARK    2  A    between atoms: C_2  and  C_3
REMARK    3  A    between atoms: C_2  and  C_4
REMARK    4  A    between atoms: C_4  and  P_5
REMARK    5  A    between atoms: P_5  and  C_6
REMARK    6  A    between atoms: P_5  and  C_21
REMARK    7  A    between atoms: P_5  and  C_25
REMARK    8  A    between atoms: C_6  and  C_7
REMARK    9  A    between atoms: C_10  and  C_11
REMARK   10  A    between atoms: C_11  and  C_13
REMARK   11  A    between atoms: C_21  and  C_22
REMARK   12  A    between atoms: C_22  and  C_23
REMARK   13  A    between atoms: C_22  and  C_24
REMARK   14  A    between atoms: C_25  and  C_26
REMARK   15  A    between atoms: C_26  and  C_27
REMARK   16  A    between atoms: C_26  and  C_28
REMARK                            x       y       z     vdW  Elec       q    Type
REMARK                         _______ _______ _______ _____ _____    ______ ____
ROOT
ATOM      1  C   UNL     1       2.978   5.195  17.613  0.00  0.00    +0.000 C 
ENDROOT
BRANCH   1   2
ATOM      2  C   UNL     1       2.490   6.368  18.424  0.00  0.00    +0.000 A 
ATOM      3  C   UNL     1       2.291   7.617  17.823  0.00  0.00    +0.000 A 
ATOM      4  C   UNL     1       1.857   8.711  18.573  0.00  0.00    +0.000 A 
ATOM      5  C   UNL     1       1.604   8.576  19.943  0.00  0.00    +0.000 A 
ATOM      6  C   UNL     1       1.775   7.328  20.547  0.00  0.00    +0.000 A 
ATOM      7  C   UNL     1       2.225   6.235  19.793  0.00  0.00    +0.000 A 
BRANCH   5   8
ATOM      8  C   UNL     1       1.113   9.767  20.682  0.00  0.00    +0.000 C 
ATOM      9  O   UNL     1       1.268   9.799  21.906  0.00  0.00    +0.000 OA
BRANCH   8  10
ATOM     10  C   UNL     1       0.465  10.919  20.000  0.00  0.00    +0.000 A 
ATOM     11  C   UNL     1      -0.882  10.804  19.643  0.00  0.00    +0.000 A 
ATOM     12  C   UNL     1      -1.536  11.858  18.991  0.00  0.00    +0.000 A 
ATOM     13  C   UNL     1      -0.839  13.026  18.689  0.00  0.00    +0.000 A 
ATOM     14  C   UNL     1       0.509  13.141  19.026  0.00  0.00    +0.000 A 
ATOM     15  C   UNL     1       1.165  12.085  19.665  0.00  0.00    +0.000 A 
ENDBRANCH   8  10
ENDBRANCH   5   8
ENDBRANCH   1   2
BRANCH   1  16
ATOM     16  P   UNL     1       4.728   4.841  17.589  0.00  0.00    +0.000 P 
BRANCH  16  17
ATOM     17  C   UNL     1       5.614   6.323  18.034  0.00  0.00    +0.000 C 
BRANCH  17  19
ATOM     18  C   UNL     1       7.684   7.769  17.582  0.00  0.00    +0.000 C 
ATOM     19  C   UNL     1       7.143   6.377  17.879  0.00  0.00    +0.000 C 
ATOM     20  C   UNL     1       7.825   5.874  19.155  0.00  0.00    +0.000 C 
ENDBRANCH  17  19
ENDBRANCH  16  17
BRANCH  16  21
ATOM     21  C   UNL     1       5.213   4.072  16.080  0.00  0.00    +0.000 C 
BRANCH  21  22
ATOM     22  C   UNL     1       5.744   4.730  14.804  0.00  0.00    +0.000 C 
ATOM     23  C   UNL     1       7.245   4.948  14.709  0.00  0.00    +0.000 C 
ATOM     24  C   UNL     1       5.308   3.857  13.612  0.00  0.00    +0.000 C 
ENDBRANCH  21  22
ENDBRANCH  16  21
BRANCH  16  25
ATOM     25  C   UNL     1       5.015   3.680  18.943  0.00  0.00    +0.000 C 
BRANCH  25  26
ATOM     26  C   UNL     1       3.915   2.712  19.421  0.00  0.00    +0.000 C 
ATOM     27  C   UNL     1       3.539   1.652  18.385  0.00  0.00    +0.000 C 
ATOM     28  C   UNL     1       4.384   1.977  20.688  0.00  0.00    +0.000 C 
ENDBRANCH  25  26
ENDBRANCH  16  25
ENDBRANCH   1  16
TORSDOF 10
ENDMDL
MODEL 2
REMARK VINA RESULT:      -7.3      2.964      8.365
REMARK  Name = 
REMARK  16 active torsions:
REMARK  status: ('A' for Active; 'I' for Inactive)
REMARK    1  A    between atoms: C_1  and  C_2
REMARK    2  A    between atoms: C_2  and  C_3
REMARK    3  A    between atoms: C_2  and  C_4
REMARK    4  A    between atoms: C_4  and  P_5
REMARK    5  A    between atoms: P_5  and  C_6
REMARK    6  A    between atoms: P_5  and  C_21
REMARK    7  A    between atoms: P_5  and  C_25
REMARK    8  A    between atoms: C_6  and  C_7
REMARK    9  A    between atoms: C_10  and  C_11
REMARK   10  A    between atoms: C_11  and  C_13
REMARK   11  A    between atoms: C_21  and  C_22
REMARK   12  A    between atoms: C_22  and  C_23
REMARK   13  A    between atoms: C_22  and  C_24
REMARK   14  A    between atoms: C_25  and  C_26
REMARK   15  A    between atoms: C_26  and  C_27
REMARK   16  A    between atoms: C_26  and  C_28
REMARK                            x       y       z     vdW  Elec       q    Type
REMARK                         _______ _______ _______ _____ _____    ______ ____
ROOT
ATOM      1  C   UNL     1       4.661   5.528  19.304  0.00  0.00    +0.000 C 
ENDROOT
BRANCH   1   2
ATOM      2  C   UNL     1       5.241   5.391  17.919  0.00  0.00    +0.000 A 
ATOM      3  C   UNL     1       6.264   4.470  17.663  0.00  0.00    +0.000 A 
ATOM      4  C   UNL     1       6.818   4.352  16.387  0.00  0.00    +0.000 A 
ATOM      5  C   UNL     1       6.351   5.149  15.335  0.00  0.00    +0.000 A 
ATOM      6  C   UNL     1       5.314   6.054  15.575  0.00  0.00    +0.000 A 
ATOM      7  C   UNL     1       4.771   6.179  16.861  0.00  0.00    +0.000 A 
BRANCH   5   8
ATOM      8  C   UNL     1       6.957   4.956  13.993  0.00  0.00    +0.000 C 
ATOM      9  O   UNL     1       7.953   5.624  13.701  0.00  0.00    +0.000 OA
BRANCH   8  10
ATOM     10  C   UNL     1       6.420   3.980  13.008  0.00  0.00    +0.000 A 
ATOM     11  C   UNL     1       7.328   3.214  12.271  0.00  0.00    +0.000 A 
ATOM     12  C   UNL     1       6.873   2.287  11.325  0.00  0.00    +0.000 A 
ATOM     13  C   UNL     1       5.505   2.130  11.110  0.00  0.00    +0.000 A 
ATOM     14  C   UNL     1       4.593   2.903  11.828  0.00  0.00    +0.000 A 
ATOM     15  C   UNL     1       5.048   3.837  12.763  0.00  0.00    +0.000 A 
ENDBRANCH   8  10
ENDBRANCH   5   8
ENDBRANCH   1   2
BRANCH   1  16
ATOM     16  P   UNL     1       2.885   5.567  19.486  0.00  0.00    +0.000 P 
BRANCH  16  17
ATOM     17  C   UNL     1       2.442   4.633  20.939  0.00  0.00    +0.000 C 
BRANCH  17  19
ATOM     18  C   UNL     1       3.694   2.395  20.964  0.00  0.00    +0.000 C 
ATOM     19  C   UNL     1       2.349   3.099  20.864  0.00  0.00    +0.000 C 
ATOM     20  C   UNL     1       1.459   2.566  21.991  0.00  0.00    +0.000 C 
ENDBRANCH  17  19
ENDBRANCH  16  17
BRANCH  16  21
ATOM     21  C   UNL     1       2.070   5.110  17.992  0.00  0.00    +0.000 C 
BRANCH  21  22
ATOM     22  C   UNL     1       1.850   3.709  17.418  0.00  0.00    +0.000 C 
ATOM     23  C   UNL     1       3.061   2.795  17.333  0.00  0.00    +0.000 C 
ATOM     24  C   UNL     1       0.782   3.012  18.283  0.00  0.00    +0.000 C 
ENDBRANCH  21  22
ENDBRANCH  16  21
BRANCH  16  25
ATOM     25  C   UNL     1       2.465   7.283  19.867  0.00  0.00    +0.000 C 
BRANCH  25  26
ATOM     26  C   UNL     1       1.615   8.136  18.905  0.00  0.00    +0.000 C 
ATOM     27  C   UNL     1       0.941   9.332  19.579  0.00  0.00    +0.000 C 
ATOM     28  C   UNL     1       2.501   8.680  17.772  0.00  0.00    +0.000 C 
ENDBRANCH  25  26
ENDBRANCH  16  25
ENDBRANCH   1  16
TORSDOF 10
ENDMDL
MODEL 3
REMARK VINA RESULT:      -7.2      0.463      1.140
REMARK  Name = 
REMARK  16 active torsions:
REMARK  status: ('A' for Active; 'I' for Inactive)
REMARK    1  A    between atoms: C_1  and  C_2
REMARK    2  A    between atoms: C_2  and  C_3
REMARK    3  A    between atoms: C_2  and  C_4
REMARK    4  A    between atoms: C_4  and  P_5
REMARK    5  A    between atoms: P_5  and  C_6
REMARK    6  A    between atoms: P_5  and  C_21
REMARK    7  A    between atoms: P_5  and  C_25
REMARK    8  A    between atoms: C_6  and  C_7
REMARK    9  A    between atoms: C_10  and  C_11
REMARK   10  A    between atoms: C_11  and  C_13
REMARK   11  A    between atoms: C_21  and  C_22
REMARK   12  A    between atoms: C_22  and  C_23
REMARK   13  A    between atoms: C_22  and  C_24
REMARK   14  A    between atoms: C_25  and  C_26
REMARK   15  A    between atoms: C_26  and  C_27
REMARK   16  A    between atoms: C_26  and  C_28
REMARK                            x       y       z     vdW  Elec       q    Type
REMARK                         _______ _______ _______ _____ _____    ______ ____
ROOT
ATOM      1  C   UNL     1       3.171   5.254  17.502  0.00  0.00    +0.000 C 
ENDROOT
BRANCH   1   2
ATOM      2  C   UNL     1       2.611   6.372  18.344  0.00  0.00    +0.000 A 
ATOM      3  C   UNL     1       2.405   7.644  17.794  0.00  0.00    +0.000 A 
ATOM      4  C   UNL     1       1.903   8.687  18.574  0.00  0.00    +0.000 A 
ATOM      5  C   UNL     1       1.588   8.477  19.922  0.00  0.00    +0.000 A 
ATOM      6  C   UNL     1       1.766   7.206  20.473  0.00  0.00    +0.000 A 
ATOM      7  C   UNL     1       2.284   6.165  19.690  0.00  0.00    +0.000 A 
BRANCH   5   8
ATOM      8  C   UNL     1       1.027   9.617  20.692  0.00  0.00    +0.000 C 
ATOM      9  O   UNL     1       1.121   9.592  21.922  0.00  0.00    +0.000 OA
BRANCH   8  10
ATOM     10  C   UNL     1       0.381  10.784  20.035  0.00  0.00    +0.000 A 
ATOM     11  C   UNL     1       1.092  11.986  19.970  0.00  0.00    +0.000 A 
ATOM     12  C   UNL     1       0.524  13.116  19.368  0.00  0.00    +0.000 A 
ATOM     13  C   UNL     1      -0.761  13.046  18.836  0.00  0.00    +0.000 A 
ATOM     14  C   UNL     1      -1.484  11.856  18.912  0.00  0.00    +0.000 A 
ATOM     15  C   UNL     1      -0.922  10.731  19.523  0.00  0.00    +0.000 A 
ENDBRANCH   8  10
ENDBRANCH   5   8
ENDBRANCH   1   2
BRANCH   1  16
ATOM     16  P   UNL     1       4.846   4.715  17.803  0.00  0.00    +0.000 P 
BRANCH  16  17
ATOM     17  C   UNL     1       5.772   6.083  18.476  0.00  0.00    +0.000 C 
BRANCH  17  19
ATOM     18  C   UNL     1       7.668   7.630  17.706  0.00  0.00    +0.000 C 
ATOM     19  C   UNL     1       7.268   6.229  18.149  0.00  0.00    +0.000 C 
ATOM     20  C   UNL     1       8.116   5.868  19.373  0.00  0.00    +0.000 C 
ENDBRANCH  17  19
ENDBRANCH  16  17
BRANCH  16  21
ATOM     21  C   UNL     1       5.540   3.932  16.386  0.00  0.00    +0.000 C 
BRANCH  21  22
ATOM     22  C   UNL     1       6.146   4.583  15.140  0.00  0.00    +0.000 C 
ATOM     23  C   UNL     1       6.056   3.807  13.837  0.00  0.00    +0.000 C 
ATOM     24  C   UNL     1       5.451   5.943  14.938  0.00  0.00    +0.000 C 
ENDBRANCH  21  22
ENDBRANCH  16  21
BRANCH  16  25
ATOM     25  C   UNL     1       4.742   3.499  19.136  0.00  0.00    +0.000 C 
BRANCH  25  26
ATOM     26  C   UNL     1       3.469   2.659  19.361  0.00  0.00    +0.000 C 
ATOM     27  C   UNL     1       3.517   1.283  18.697  0.00  0.00    +0.000 C 
ATOM     28  C   UNL     1       3.251   2.441  20.868  0.00  0.00    +0.000 C 
ENDBRANCH  25  26
ENDBRANCH  16  25
ENDBRANCH   1  16
TORSDOF 10
ENDMDL
MODEL 4
REMARK VINA RESULT:      -7.2      0.630      3.619
REMARK  Name = 
REMARK  16 active torsions:
REMARK  status: ('A' for Active; 'I' for Inactive)
REMARK    1  A    between atoms: C_1  and  C_2
REMARK    2  A    between atoms: C_2  and  C_3
REMARK    3  A    between atoms: C_2  and  C_4
REMARK    4  A    between atoms: C_4  and  P_5
REMARK    5  A    between atoms: P_5  and  C_6
REMARK    6  A    between atoms: P_5  and  C_21
REMARK    7  A    between atoms: P_5  and  C_25
REMARK    8  A    between atoms: C_6  and  C_7
REMARK    9  A    between atoms: C_10  and  C_11
REMARK   10  A    between atoms: C_11  and  C_13
REMARK   11  A    between atoms: C_21  and  C_22
REMARK   12  A    between atoms: C_22  and  C_23
REMARK   13  A    between atoms: C_22  and  C_24
REMARK   14  A    between atoms: C_25  and  C_26
REMARK   15  A    between atoms: C_26  and  C_27
REMARK   16  A    between atoms: C_26  and  C_28
REMARK                            x       y       z     vdW  Elec       q    Type
REMARK                         _______ _______ _______ _____ _____    ______ ____
ROOT
ATOM      1  C   UNL     1       3.051   5.087  17.674  0.00  0.00    +0.000 C 
ENDROOT
BRANCH   1   2
ATOM      2  C   UNL     1       2.545   6.338  18.348  0.00  0.00    +0.000 A 
ATOM      3  C   UNL     1       2.261   6.343  19.719  0.00  0.00    +0.000 A 
ATOM      4  C   UNL     1       1.776   7.493  20.344  0.00  0.00    +0.000 A 
ATOM      5  C   UNL     1       1.573   8.667  19.610  0.00  0.00    +0.000 A 
ATOM      6  C   UNL     1       1.878   8.680  18.247  0.00  0.00    +0.000 A 
ATOM      7  C   UNL     1       2.351   7.519  17.620  0.00  0.00    +0.000 A 
BRANCH   5   8
ATOM      8  C   UNL     1       1.085   9.868  20.337  0.00  0.00    +0.000 C 
ATOM      9  O   UNL     1       1.150   9.869  21.569  0.00  0.00    +0.000 OA
BRANCH   8  10
ATOM     10  C   UNL     1       0.545  11.062  19.634  0.00  0.00    +0.000 A 
ATOM     11  C   UNL     1       1.393  12.158  19.443  0.00  0.00    +0.000 A 
ATOM     12  C   UNL     1       0.929  13.309  18.794  0.00  0.00    +0.000 A 
ATOM     13  C   UNL     1      -0.387  13.368  18.341  0.00  0.00    +0.000 A 
ATOM     14  C   UNL     1      -1.244  12.287  18.544  0.00  0.00    +0.000 A 
ATOM     15  C   UNL     1      -0.785  11.142  19.203  0.00  0.00    +0.000 A 
ENDBRANCH   8  10
ENDBRANCH   5   8
ENDBRANCH   1   2
BRANCH   1  16
ATOM     16  P   UNL     1       4.724   4.558  18.001  0.00  0.00    +0.000 P 
BRANCH  16  17
ATOM     17  C   UNL     1       5.406   3.871  16.503  0.00  0.00    +0.000 C 
BRANCH  17  19
ATOM     18  C   UNL     1       6.388   4.116  14.146  0.00  0.00    +0.000 C 
ATOM     19  C   UNL     1       6.075   4.796  15.471  0.00  0.00    +0.000 C 
ATOM     20  C   UNL     1       5.175   6.001  15.176  0.00  0.00    +0.000 C 
ENDBRANCH  17  19
ENDBRANCH  16  17
BRANCH  16  21
ATOM     21  C   UNL     1       4.812   3.534  19.432  0.00  0.00    +0.000 C 
BRANCH  21  22
ATOM     22  C   UNL     1       3.865   2.411  19.859  0.00  0.00    +0.000 C 
ATOM     23  C   UNL     1       2.608   2.812  20.614  0.00  0.00    +0.000 C 
ATOM     24  C   UNL     1       3.440   1.650  18.589  0.00  0.00    +0.000 C 
ENDBRANCH  21  22
ENDBRANCH  16  21
BRANCH  16  25
ATOM     25  C   UNL     1       5.667   6.067  18.315  0.00  0.00    +0.000 C 
BRANCH  25  26
ATOM     26  C   UNL     1       7.200   6.106  18.156  0.00  0.00    +0.000 C 
ATOM     27  C   UNL     1       7.737   7.470  17.723  0.00  0.00    +0.000 C 
ATOM     28  C   UNL     1       7.870   5.746  19.492  0.00  0.00    +0.000 C 
ENDBRANCH  25  26
ENDBRANCH  16  25
ENDBRANCH   1  16
TORSDOF 10
ENDMDL
MODEL 5
REMARK VINA RESULT:      -7.2      3.580      9.109
REMARK  Name = 
REMARK  16 active torsions:
REMARK  status: ('A' for Active; 'I' for Inactive)
REMARK    1  A    between atoms: C_1  and  C_2
REMARK    2  A    between atoms: C_2  and  C_3
REMARK    3  A    between atoms: C_2  and  C_4
REMARK    4  A    between atoms: C_4  and  P_5
REMARK    5  A    between atoms: P_5  and  C_6
REMARK    6  A    between atoms: P_5  and  C_21
REMARK    7  A    between atoms: P_5  and  C_25
REMARK    8  A    between atoms: C_6  and  C_7
REMARK    9  A    between atoms: C_10  and  C_11
REMARK   10  A    between atoms: C_11  and  C_13
REMARK   11  A    between atoms: C_21  and  C_22
REMARK   12  A    between atoms: C_22  and  C_23
REMARK   13  A    between atoms: C_22  and  C_24
REMARK   14  A    between atoms: C_25  and  C_26
REMARK   15  A    between atoms: C_26  and  C_27
REMARK   16  A    between atoms: C_26  and  C_28
REMARK                            x       y       z     vdW  Elec       q    Type
REMARK                         _______ _______ _______ _____ _____    ______ ____
ROOT
ATOM      1  C   UNL     1       0.925  11.354  19.346  0.00  0.00    +0.000 C 
ENDROOT
BRANCH   1   2
ATOM      2  C   UNL     1       1.441   9.950  19.151  0.00  0.00    +0.000 A 
ATOM      3  C   UNL     1       1.385   9.019  20.196  0.00  0.00    +0.000 A 
ATOM      4  C   UNL     1       1.878   7.724  20.027  0.00  0.00    +0.000 A 
ATOM      5  C   UNL     1       2.430   7.330  18.802  0.00  0.00    +0.000 A 
ATOM      6  C   UNL     1       2.467   8.243  17.746  0.00  0.00    +0.000 A 
ATOM      7  C   UNL     1       1.984   9.547  17.925  0.00  0.00    +0.000 A 
BRANCH   5   8
ATOM      8  C   UNL     1       2.908   5.929  18.673  0.00  0.00    +0.000 C 
ATOM      9  O   UNL     1       3.823   5.697  17.877  0.00  0.00    +0.000 OA
BRANCH   8  10
ATOM     10  C   UNL     1       2.340   4.814  19.475  0.00  0.00    +0.000 A 
ATOM     11  C   UNL     1       1.330   4.034  18.904  0.00  0.00    +0.000 A 
ATOM     12  C   UNL     1       0.756   2.978  19.622  0.00  0.00    +0.000 A 
ATOM     13  C   UNL     1       1.189   2.704  20.918  0.00  0.00    +0.000 A 
ATOM     14  C   UNL     1       2.183   3.487  21.501  0.00  0.00    +0.000 A 
ATOM     15  C   UNL     1       2.748   4.550  20.789  0.00  0.00    +0.000 A 
ENDBRANCH   8  10
ENDBRANCH   5   8
ENDBRANCH   1   2
BRANCH   1  16
ATOM     16  P   UNL     1      -0.834  11.638  19.247  0.00  0.00    +0.000 P 
BRANCH  16  17
ATOM     17  C   UNL     1      -1.550  11.337  20.853  0.00  0.00    +0.000 C 
BRANCH  17  19
ATOM     18  C   UNL     1      -1.140  12.794  22.924  0.00  0.00    +0.000 C 
ATOM     19  C   UNL     1      -0.713  11.573  22.121  0.00  0.00    +0.000 C 
ATOM     20  C   UNL     1      -0.796  10.355  23.047  0.00  0.00    +0.000 C 
ENDBRANCH  17  19
ENDBRANCH  16  17
BRANCH  16  21
ATOM     21  C   UNL     1      -1.558  10.763  17.900  0.00  0.00    +0.000 C 
BRANCH  21  22
ATOM     22  C   UNL     1      -3.019  10.348  17.710  0.00  0.00    +0.000 C 
ATOM     23  C   UNL     1      -4.082  11.395  18.000  0.00  0.00    +0.000 C 
ATOM     24  C   UNL     1      -3.187   9.884  16.251  0.00  0.00    +0.000 C 
ENDBRANCH  21  22
ENDBRANCH  16  21
BRANCH  16  25
ATOM     25  C   UNL     1      -1.033  13.410  18.954  0.00  0.00    +0.000 C 
BRANCH  25  26
ATOM     26  C   UNL     1      -0.182  14.451  19.708  0.00  0.00    +0.000 C 
ATOM     27  C   UNL     1       0.892  15.109  18.841  0.00  0.00    +0.000 C 
ATOM     28  C   UNL     1      -1.089  15.568  20.250  0.00  0.00    +0.000 C 
ENDBRANCH  25  26
ENDBRANCH  16  25
ENDBRANCH   1  16
TORSDOF 10
ENDMDL
MODEL 6
REMARK VINA RESULT:      -7.2      0.872      1.638
REMARK  Name = 
REMARK  16 active torsions:
REMARK  status: ('A' for Active; 'I' for Inactive)
REMARK    1  A    between atoms: C_1  and  C_2
REMARK    2  A    between atoms: C_2  and  C_3
REMARK    3  A    between atoms: C_2  and  C_4
REMARK    4  A    between atoms: C_4  and  P_5
REMARK    5  A    between atoms: P_5  and  C_6
REMARK    6  A    between atoms: P_5  and  C_21
REMARK    7  A    between atoms: P_5  and  C_25
REMARK    8  A    between atoms: C_6  and  C_7
REMARK    9  A    between atoms: C_10  and  C_11
REMARK   10  A    between atoms: C_11  and  C_13
REMARK   11  A    between atoms: C_21  and  C_22
REMARK   12  A    between atoms: C_22  and  C_23
REMARK   13  A    between atoms: C_22  and  C_24
REMARK   14  A    between atoms: C_25  and  C_26
REMARK   15  A    between atoms: C_26  and  C_27
REMARK   16  A    between atoms: C_26  and  C_28
REMARK                            x       y       z     vdW  Elec       q    Type
REMARK                         _______ _______ _______ _____ _____    ______ ____
ROOT
ATOM      1  C   UNL     1       2.735   5.360  17.788  0.00  0.00    +0.000 C 
ENDROOT
BRANCH   1   2
ATOM      2  C   UNL     1       2.313   6.547  18.616  0.00  0.00    +0.000 A 
ATOM      3  C   UNL     1       2.026   6.399  19.979  0.00  0.00    +0.000 A 
ATOM      4  C   UNL     1       1.617   7.491  20.746  0.00  0.00    +0.000 A 
ATOM      5  C   UNL     1       1.496   8.759  20.166  0.00  0.00    +0.000 A 
ATOM      6  C   UNL     1       1.806   8.923  18.814  0.00  0.00    +0.000 A 
ATOM      7  C   UNL     1       2.202   7.820  18.044  0.00  0.00    +0.000 A 
BRANCH   5   8
ATOM      8  C   UNL     1       1.089   9.889  21.041  0.00  0.00    +0.000 C 
ATOM      9  O   UNL     1       1.324   9.805  22.250  0.00  0.00    +0.000 OA
BRANCH   8  10
ATOM     10  C   UNL     1       0.431  11.113  20.511  0.00  0.00    +0.000 A 
ATOM     11  C   UNL     1       1.191  12.283  20.411  0.00  0.00    +0.000 A 
ATOM     12  C   UNL     1       0.615  13.464  19.926  0.00  0.00    +0.000 A 
ATOM     13  C   UNL     1      -0.725  13.477  19.544  0.00  0.00    +0.000 A 
ATOM     14  C   UNL     1      -1.493  12.319  19.656  0.00  0.00    +0.000 A 
ATOM     15  C   UNL     1      -0.923  11.143  20.153  0.00  0.00    +0.000 A 
ENDBRANCH   8  10
ENDBRANCH   5   8
ENDBRANCH   1   2
BRANCH   1  16
ATOM     16  P   UNL     1       4.332   4.626  18.099  0.00  0.00    +0.000 P 
BRANCH  16  17
ATOM     17  C   UNL     1       5.407   5.871  18.788  0.00  0.00    +0.000 C 
BRANCH  17  19
ATOM     18  C   UNL     1       7.352   7.180  17.747  0.00  0.00    +0.000 C 
ATOM     19  C   UNL     1       6.898   5.888  18.413  0.00  0.00    +0.000 C 
ATOM     20  C   UNL     1       7.762   5.680  19.661  0.00  0.00    +0.000 C 
ENDBRANCH  17  19
ENDBRANCH  16  17
BRANCH  16  21
ATOM     21  C   UNL     1       4.942   3.774  16.683  0.00  0.00    +0.000 C 
BRANCH  21  22
ATOM     22  C   UNL     1       5.426   4.361  15.355  0.00  0.00    +0.000 C 
ATOM     23  C   UNL     1       5.200   5.847  15.128  0.00  0.00    +0.000 C 
ATOM     24  C   UNL     1       6.937   4.082  15.244  0.00  0.00    +0.000 C 
ENDBRANCH  21  22
ENDBRANCH  16  21
BRANCH  16  25
ATOM     25  C   UNL     1       4.074   3.424  19.424  0.00  0.00    +0.000 C 
BRANCH  25  26
ATOM     26  C   UNL     1       2.659   3.061  19.916  0.00  0.00    +0.000 C 
ATOM     27  C   UNL     1       2.009   1.923  19.129  0.00  0.00    +0.000 C 
ATOM     28  C   UNL     1       2.718   2.631  21.392  0.00  0.00    +0.000 C 
ENDBRANCH  25  26
ENDBRANCH  16  25
ENDBRANCH   1  16
TORSDOF 10
ENDMDL
MODEL 7
REMARK VINA RESULT:      -7.1      0.536      1.183
REMARK  Name = 
REMARK  16 active torsions:
REMARK  status: ('A' for Active; 'I' for Inactive)
REMARK    1  A    between atoms: C_1  and  C_2
REMARK    2  A    between atoms: C_2  and  C_3
REMARK    3  A    between atoms: C_2  and  C_4
REMARK    4  A    between atoms: C_4  and  P_5
REMARK    5  A    between atoms: P_5  and  C_6
REMARK    6  A    between atoms: P_5  and  C_21
REMARK    7  A    between atoms: P_5  and  C_25
REMARK    8  A    between atoms: C_6  and  C_7
REMARK    9  A    between atoms: C_10  and  C_11
REMARK   10  A    between atoms: C_11  and  C_13
REMARK   11  A    between atoms: C_21  and  C_22
REMARK   12  A    between atoms: C_22  and  C_23
REMARK   13  A    between atoms: C_22  and  C_24
REMARK   14  A    between atoms: C_25  and  C_26
REMARK   15  A    between atoms: C_26  and  C_27
REMARK   16  A    between atoms: C_26  and  C_28
REMARK                            x       y       z     vdW  Elec       q    Type
REMARK                         _______ _______ _______ _____ _____    ______ ____
ROOT
ATOM      1  C   UNL     1       3.216   5.329  17.513  0.00  0.00    +0.000 C 
ENDROOT
BRANCH   1   2
ATOM      2  C   UNL     1       2.654   6.436  18.368  0.00  0.00    +0.000 A 
ATOM      3  C   UNL     1       2.312   6.199  19.706  0.00  0.00    +0.000 A 
ATOM      4  C   UNL     1       1.775   7.216  20.497  0.00  0.00    +0.000 A 
ATOM      5  C   UNL     1       1.577   8.497  19.968  0.00  0.00    +0.000 A 
ATOM      6  C   UNL     1       1.939   8.750  18.643  0.00  0.00    +0.000 A 
ATOM      7  C   UNL     1       2.465   7.722  17.847  0.00  0.00    +0.000 A 
BRANCH   5   8
ATOM      8  C   UNL     1       1.033   9.546  20.868  0.00  0.00    +0.000 C 
ATOM      9  O   UNL     1       1.100   9.361  22.087  0.00  0.00    +0.000 OA
BRANCH   8  10
ATOM     10  C   UNL     1       0.433  10.806  20.355  0.00  0.00    +0.000 A 
ATOM     11  C   UNL     1      -0.880  10.767  19.874  0.00  0.00    +0.000 A 
ATOM     12  C   UNL     1      -1.487  11.925  19.372  0.00  0.00    +0.000 A 
ATOM     13  C   UNL     1      -0.778  13.124  19.345  0.00  0.00    +0.000 A 
ATOM     14  C   UNL     1       0.537  13.168  19.807  0.00  0.00    +0.000 A 
ATOM     15  C   UNL     1       1.148  12.009  20.296  0.00  0.00    +0.000 A 
ENDBRANCH   8  10
ENDBRANCH   5   8
ENDBRANCH   1   2
BRANCH   1  16
ATOM     16  P   UNL     1       4.882   4.769  17.825  0.00  0.00    +0.000 P 
BRANCH  16  17
ATOM     17  C   UNL     1       5.817   6.122  18.515  0.00  0.00    +0.000 C 
BRANCH  17  19
ATOM     18  C   UNL     1       7.703   7.693  17.773  0.00  0.00    +0.000 C 
ATOM     19  C   UNL     1       7.307   6.278  18.169  0.00  0.00    +0.000 C 
ATOM     20  C   UNL     1       8.175   5.867  19.362  0.00  0.00    +0.000 C 
ENDBRANCH  17  19
ENDBRANCH  16  17
BRANCH  16  21
ATOM     21  C   UNL     1       5.579   3.987  16.409  0.00  0.00    +0.000 C 
BRANCH  21  22
ATOM     22  C   UNL     1       6.112   4.636  15.130  0.00  0.00    +0.000 C 
ATOM     23  C   UNL     1       5.929   3.867  13.832  0.00  0.00    +0.000 C 
ATOM     24  C   UNL     1       5.422   6.005  14.978  0.00  0.00    +0.000 C 
ENDBRANCH  21  22
ENDBRANCH  16  21
BRANCH  16  25
ATOM     25  C   UNL     1       4.752   3.546  19.149  0.00  0.00    +0.000 C 
BRANCH  25  26
ATOM     26  C   UNL     1       3.477   2.700  19.342  0.00  0.00    +0.000 C 
ATOM     27  C   UNL     1       3.563   1.310  18.712  0.00  0.00    +0.000 C 
ATOM     28  C   UNL     1       3.200   2.514  20.843  0.00  0.00    +0.000 C 
ENDBRANCH  25  26
ENDBRANCH  16  25
ENDBRANCH   1  16
TORSDOF 10
ENDMDL
MODEL 8
REMARK VINA RESULT:      -7.1      0.705      3.437
REMARK  Name = 
REMARK  16 active torsions:
REMARK  status: ('A' for Active; 'I' for Inactive)
REMARK    1  A    between atoms: C_1  and  C_2
REMARK    2  A    between atoms: C_2  and  C_3
REMARK    3  A    between atoms: C_2  and  C_4
REMARK    4  A    between atoms: C_4  and  P_5
REMARK    5  A    between atoms: P_5  and  C_6
REMARK    6  A    between atoms: P_5  and  C_21
REMARK    7  A    between atoms: P_5  and  C_25
REMARK    8  A    between atoms: C_6  and  C_7
REMARK    9  A    between atoms: C_10  and  C_11
REMARK   10  A    between atoms: C_11  and  C_13
REMARK   11  A    between atoms: C_21  and  C_22
REMARK   12  A    between atoms: C_22  and  C_23
REMARK   13  A    between atoms: C_22  and  C_24
REMARK   14  A    between atoms: C_25  and  C_26
REMARK   15  A    between atoms: C_26  and  C_27
REMARK   16  A    between atoms: C_26  and  C_28
REMARK                            x       y       z     vdW  Elec       q    Type
REMARK                         _______ _______ _______ _____ _____    ______ ____
ROOT
ATOM      1  C   UNL     1       3.148   5.110  17.708  0.00  0.00    +0.000 C 
ENDROOT
BRANCH   1   2
ATOM      2  C   UNL     1       2.587   6.299  18.446  0.00  0.00    +0.000 A 
ATOM      3  C   UNL     1       2.414   7.526  17.794  0.00  0.00    +0.000 A 
ATOM      4  C   UNL     1       1.912   8.635  18.478  0.00  0.00    +0.000 A 
ATOM      5  C   UNL     1       1.563   8.536  19.830  0.00  0.00    +0.000 A 
ATOM      6  C   UNL     1       1.708   7.309  20.483  0.00  0.00    +0.000 A 
ATOM      7  C   UNL     1       2.226   6.202  19.796  0.00  0.00    +0.000 A 
BRANCH   5   8
ATOM      8  C   UNL     1       1.004   9.741  20.496  0.00  0.00    +0.000 C 
ATOM      9  O   UNL     1       1.024   9.788  21.729  0.00  0.00    +0.000 OA
BRANCH   8  10
ATOM     10  C   UNL     1       0.445  10.887  19.732  0.00  0.00    +0.000 A 
ATOM     11  C   UNL     1       1.250  12.016  19.547  0.00  0.00    +0.000 A 
ATOM     12  C   UNL     1       0.767  13.125  18.841  0.00  0.00    +0.000 A 
ATOM     13  C   UNL     1      -0.527  13.109  18.325  0.00  0.00    +0.000 A 
ATOM     14  C   UNL     1      -1.342  11.995  18.521  0.00  0.00    +0.000 A 
ATOM     15  C   UNL     1      -0.865  10.893  19.235  0.00  0.00    +0.000 A 
ENDBRANCH   8  10
ENDBRANCH   5   8
ENDBRANCH   1   2
BRANCH   1  16
ATOM     16  P   UNL     1       4.767   4.510  18.160  0.00  0.00    +0.000 P 
BRANCH  16  17
ATOM     17  C   UNL     1       5.613   3.987  16.680  0.00  0.00    +0.000 C 
BRANCH  17  19
ATOM     18  C   UNL     1       5.365   6.090  15.233  0.00  0.00    +0.000 C 
ATOM     19  C   UNL     1       5.212   4.578  15.318  0.00  0.00    +0.000 C 
ATOM     20  C   UNL     1       6.059   3.961  14.200  0.00  0.00    +0.000 C 
ENDBRANCH  17  19
ENDBRANCH  16  17
BRANCH  16  21
ATOM     21  C   UNL     1       4.679   3.326  19.461  0.00  0.00    +0.000 C 
BRANCH  21  22
ATOM     22  C   UNL     1       3.666   2.196  19.653  0.00  0.00    +0.000 C 
ATOM     23  C   UNL     1       2.320   2.564  20.255  0.00  0.00    +0.000 C 
ATOM     24  C   UNL     1       3.417   1.552  18.276  0.00  0.00    +0.000 C 
ENDBRANCH  21  22
ENDBRANCH  16  21
BRANCH  16  25
ATOM     25  C   UNL     1       5.680   5.951  18.755  0.00  0.00    +0.000 C 
BRANCH  25  26
ATOM     26  C   UNL     1       7.218   6.017  18.681  0.00  0.00    +0.000 C 
ATOM     27  C   UNL     1       7.864   4.723  18.186  0.00  0.00    +0.000 C 
ATOM     28  C   UNL     1       7.643   7.143  17.724  0.00  0.00    +0.000 C 
ENDBRANCH  25  26
ENDBRANCH  16  25
ENDBRANCH   1  16
TORSDOF 10
ENDMDL
MODEL 9
REMARK VINA RESULT:      -7.1      3.279      8.644
REMARK  Name = 
REMARK  16 active torsions:
REMARK  status: ('A' for Active; 'I' for Inactive)
REMARK    1  A    between atoms: C_1  and  C_2
REMARK    2  A    between atoms: C_2  and  C_3
REMARK    3  A    between atoms: C_2  and  C_4
REMARK    4  A    between atoms: C_4  and  P_5
REMARK    5  A    between atoms: P_5  and  C_6
REMARK    6  A    between atoms: P_5  and  C_21
REMARK    7  A    between atoms: P_5  and  C_25
REMARK    8  A    between atoms: C_6  and  C_7
REMARK    9  A    between atoms: C_10  and  C_11
REMARK   10  A    between atoms: C_11  and  C_13
REMARK   11  A    between atoms: C_21  and  C_22
REMARK   12  A    between atoms: C_22  and  C_23
REMARK   13  A    between atoms: C_22  and  C_24
REMARK   14  A    between atoms: C_25  and  C_26
REMARK   15  A    between atoms: C_26  and  C_27
REMARK   16  A    between atoms: C_26  and  C_28
REMARK                            x       y       z     vdW  Elec       q    Type
REMARK                         _______ _______ _______ _____ _____    ______ ____
ROOT
ATOM      1  C   UNL     1       4.803   5.695  18.640  0.00  0.00    +0.000 C 
ENDROOT
BRANCH   1   2
ATOM      2  C   UNL     1       5.415   5.446  17.284  0.00  0.00    +0.000 A 
ATOM      3  C   UNL     1       4.910   6.088  16.147  0.00  0.00    +0.000 A 
ATOM      4  C   UNL     1       5.461   5.848  14.887  0.00  0.00    +0.000 A 
ATOM      5  C   UNL     1       6.537   4.964  14.740  0.00  0.00    +0.000 A 
ATOM      6  C   UNL     1       7.064   4.339  15.873  0.00  0.00    +0.000 A 
ATOM      7  C   UNL     1       6.498   4.572  17.134  0.00  0.00    +0.000 A 
BRANCH   5   8
ATOM      8  C   UNL     1       7.101   4.774  13.379  0.00  0.00    +0.000 C 
ATOM      9  O   UNL     1       7.952   5.576  12.983  0.00  0.00    +0.000 OA
BRANCH   8  10
ATOM     10  C   UNL     1       6.693   3.650  12.496  0.00  0.00    +0.000 A 
ATOM     11  C   UNL     1       7.694   2.920  11.847  0.00  0.00    +0.000 A 
ATOM     12  C   UNL     1       7.361   1.857  10.998  0.00  0.00    +0.000 A 
ATOM     13  C   UNL     1       6.023   1.527  10.792  0.00  0.00    +0.000 A 
ATOM     14  C   UNL     1       5.019   2.260  11.421  0.00  0.00    +0.000 A 
ATOM     15  C   UNL     1       5.350   3.330  12.259  0.00  0.00    +0.000 A 
ENDBRANCH   8  10
ENDBRANCH   5   8
ENDBRANCH   1   2
BRANCH   1  16
ATOM     16  P   UNL     1       3.168   5.059  18.969  0.00  0.00    +0.000 P 
BRANCH  16  17
ATOM     17  C   UNL     1       3.015   4.761  20.720  0.00  0.00    +0.000 C 
BRANCH  17  19
ATOM     18  C   UNL     1       0.625   3.952  20.255  0.00  0.00    +0.000 C 
ATOM     19  C   UNL     1       1.747   4.091  21.275  0.00  0.00    +0.000 C 
ATOM     20  C   UNL     1       2.074   2.689  21.802  0.00  0.00    +0.000 C 
ENDBRANCH  17  19
ENDBRANCH  16  17
BRANCH  16  21
ATOM     21  C   UNL     1       2.776   3.702  17.915  0.00  0.00    +0.000 C 
BRANCH  21  22
ATOM     22  C   UNL     1       3.196   2.238  18.054  0.00  0.00    +0.000 C 
ATOM     23  C   UNL     1       4.288   1.920  19.062  0.00  0.00    +0.000 C 
ATOM     24  C   UNL     1       1.943   1.425  18.431  0.00  0.00    +0.000 C 
ENDBRANCH  21  22
ENDBRANCH  16  21
BRANCH  16  25
ATOM     25  C   UNL     1       2.028   6.414  18.607  0.00  0.00    +0.000 C 
BRANCH  25  26
ATOM     26  C   UNL     1       2.379   7.875  18.953  0.00  0.00    +0.000 C 
ATOM     27  C   UNL     1       2.168   8.848  17.793  0.00  0.00    +0.000 C 
ATOM     28  C   UNL     1       1.506   8.354  20.125  0.00  0.00    +0.000 C 
ENDBRANCH  25  26
ENDBRANCH  16  25
ENDBRANCH   1  16
TORSDOF 10
ENDMDL
