MODEL 1
REMARK VINA RESULT:      -7.1      0.000      0.000
REMARK  Name = 
REMARK  11 active torsions:
REMARK  status: ('A' for Active; 'I' for Inactive)
REMARK    1  A    between atoms: C_1  and  C_2
REMARK    2  A    between atoms: C_2  and  C_3
REMARK    3  A    between atoms: C_9  and  C_10
REMARK    4  A    between atoms: C_10  and  C_11
REMARK    5  A    between atoms: C_11  and  O_12
REMARK    6  A    between atoms: C_11  and  C_13
REMARK    7  A    between atoms: C_13  and  N_14
REMARK    8  A    between atoms: N_14  and  C_15
REMARK    9  A    between atoms: C_15  and  C_16
REMARK   10  A    between atoms: C_15  and  C_17
REMARK   11  A    between atoms: C_15  and  C_18
REMARK                            x       y       z     vdW  Elec       q    Type
REMARK                         _______ _______ _______ _____ _____    ______ ____
ROOT
ATOM      1  C   UNL     1       2.335   3.583  18.683  0.00  0.00    +0.000 A 
ATOM      2  C   UNL     1       1.603   3.898  19.843  0.00  0.00    +0.000 A 
ATOM      3  C   UNL     1       1.665   5.168  20.428  0.00  0.00    +0.000 A 
ATOM      4  C   UNL     1       2.454   6.183  19.874  0.00  0.00    +0.000 A 
ATOM      5  C   UNL     1       3.187   5.902  18.711  0.00  0.00    +0.000 A 
ATOM      6  C   UNL     1       4.064   6.629  17.864  0.00  0.00    +0.000 A 
ATOM      7  C   UNL     1       4.452   5.767  16.859  0.00  0.00    +0.000 A 
ATOM      8  O   UNL     1       3.871   4.549  17.044  0.00  0.00    +0.000 OA
ATOM      9  C   UNL     1       3.103   4.628  18.164  0.00  0.00    +0.000 A 
ENDROOT
BRANCH   1  11
ATOM     10  C   UNL     1       3.427   1.354  18.406  0.00  0.00    +0.000 C 
ATOM     11  C   UNL     1       2.243   2.231  18.034  0.00  0.00    +0.000 C 
ENDBRANCH   1  11
BRANCH   7  12
ATOM     12  C   UNL     1       5.336   5.862  15.669  0.00  0.00    +0.000 C 
BRANCH  12  13
ATOM     13  C   UNL     1       6.560   4.939  15.725  0.00  0.00    +0.000 C 
BRANCH  13  14
ATOM     14  O   UNL     1       6.276   3.751  16.483  0.00  0.00    +0.000 OA
ATOM     15  H   UNL     1       7.101   3.472  16.919  0.00  0.00    +0.000 HD
ENDBRANCH  13  14
BRANCH  13  16
ATOM     16  C   UNL     1       7.002   4.499  14.313  0.00  0.00    +0.000 C 
BRANCH  16  17
ATOM     17  N   UNL     1       6.165   3.430  13.764  0.00  0.00    +0.000 NA
ATOM     18  H   UNL     1       5.215   3.534  14.127  0.00  0.00    +0.000 HD
BRANCH  17  19
ATOM     19  C   UNL     1       6.114   3.350  12.292  0.00  0.00    +0.000 C 
ATOM     20  C   UNL     1       4.706   3.660  11.756  0.00  0.00    +0.000 C 
ATOM     21  C   UNL     1       7.076   4.431  11.760  0.00  0.00    +0.000 C 
ATOM     22  C   UNL     1       6.591   1.980  11.779  0.00  0.00    +0.000 C 
ENDBRANCH  17  19
ENDBRANCH  16  17
ENDBRANCH  13  16
ENDBRANCH  12  13
ENDBRANCH   7  12
TORSDOF 7
ENDMDL
MODEL 2
REMARK VINA RESULT:      -6.8      2.296      4.324
REMARK  Name = 
REMARK  11 active torsions:
REMARK  status: ('A' for Active; 'I' for Inactive)
REMARK    1  A    between atoms: C_1  and  C_2
REMARK    2  A    between atoms: C_2  and  C_3
REMARK    3  A    between atoms: C_9  and  C_10
REMARK    4  A    between atoms: C_10  and  C_11
REMARK    5  A    between atoms: C_11  and  O_12
REMARK    6  A    between atoms: C_11  and  C_13
REMARK    7  A    between atoms: C_13  and  N_14
REMARK    8  A    between atoms: N_14  and  C_15
REMARK    9  A    between atoms: C_15  and  C_16
REMARK   10  A    between atoms: C_15  and  C_17
REMARK   11  A    between atoms: C_15  and  C_18
REMARK                            x       y       z     vdW  Elec       q    Type
REMARK                         _______ _______ _______ _____ _____    ______ ____
ROOT
ATOM      1  C   UNL     1       2.363   5.390  19.708  0.00  0.00    +0.000 A 
ATOM      2  C   UNL     1       1.822   4.664  20.785  0.00  0.00    +0.000 A 
ATOM      3  C   UNL     1       1.899   3.268  20.843  0.00  0.00    +0.000 A 
ATOM      4  C   UNL     1       2.529   2.535  19.830  0.00  0.00    +0.000 A 
ATOM      5  C   UNL     1       3.087   3.232  18.747  0.00  0.00    +0.000 A 
ATOM      6  C   UNL     1       3.794   2.877  17.568  0.00  0.00    +0.000 A 
ATOM      7  C   UNL     1       4.082   4.054  16.909  0.00  0.00    +0.000 A 
ATOM      8  O   UNL     1       3.587   5.112  17.609  0.00  0.00    +0.000 OA
ATOM      9  C   UNL     1       2.985   4.617  18.724  0.00  0.00    +0.000 A 
ENDROOT
BRANCH   1  11
ATOM     10  C   UNL     1       1.552   7.459  20.849  0.00  0.00    +0.000 C 
ATOM     11  C   UNL     1       2.312   6.891  19.661  0.00  0.00    +0.000 C 
ENDBRANCH   1  11
BRANCH   7  12
ATOM     12  C   UNL     1       4.779   4.414  15.647  0.00  0.00    +0.000 C 
BRANCH  12  13
ATOM     13  C   UNL     1       6.241   3.949  15.588  0.00  0.00    +0.000 C 
BRANCH  13  14
ATOM     14  O   UNL     1       6.853   4.332  14.345  0.00  0.00    +0.000 OA
ATOM     15  H   UNL     1       6.190   4.220  13.640  0.00  0.00    +0.000 HD
ENDBRANCH  13  14
BRANCH  13  16
ATOM     16  C   UNL     1       7.077   4.564  16.730  0.00  0.00    +0.000 C 
BRANCH  16  17
ATOM     17  N   UNL     1       7.382   5.981  16.511  0.00  0.00    +0.000 NA
ATOM     18  H   UNL     1       6.772   6.340  15.774  0.00  0.00    +0.000 HD
BRANCH  17  19
ATOM     19  C   UNL     1       7.270   6.849  17.698  0.00  0.00    +0.000 C 
ATOM     20  C   UNL     1       8.065   8.154  17.521  0.00  0.00    +0.000 C 
ATOM     21  C   UNL     1       5.779   7.213  17.838  0.00  0.00    +0.000 C 
ATOM     22  C   UNL     1       7.715   6.122  18.979  0.00  0.00    +0.000 C 
ENDBRANCH  17  19
ENDBRANCH  16  17
ENDBRANCH  13  16
ENDBRANCH  12  13
ENDBRANCH   7  12
TORSDOF 7
ENDMDL
MODEL 3
REMARK VINA RESULT:      -6.8      0.984      1.509
REMARK  Name = 
REMARK  11 active torsions:
REMARK  status: ('A' for Active; 'I' for Inactive)
REMARK    1  A    between atoms: C_1  and  C_2
REMARK    2  A    between atoms: C_2  and  C_3
REMARK    3  A    between atoms: C_9  and  C_10
REMARK    4  A    between atoms: C_10  and  C_11
REMARK    5  A    between atoms: C_11  and  O_12
REMARK    6  A    between atoms: C_11  and  C_13
REMARK    7  A    between atoms: C_13  and  N_14
REMARK    8  A    between atoms: N_14  and  C_15
REMARK    9  A    between atoms: C_15  and  C_16
REMARK   10  A    between atoms: C_15  and  C_17
REMARK   11  A    between atoms: C_15  and  C_18
REMARK                            x       y       z     vdW  Elec       q    Type
REMARK                         _______ _______ _______ _____ _____    ______ ____
ROOT
ATOM      1  C   UNL     1       2.131   4.094  19.717  0.00  0.00    +0.000 A 
ATOM      2  C   UNL     1       1.513   5.027  20.569  0.00  0.00    +0.000 A 
ATOM      3  C   UNL     1       1.772   6.399  20.468  0.00  0.00    +0.000 A 
ATOM      4  C   UNL     1       2.654   6.900  19.503  0.00  0.00    +0.000 A 
ATOM      5  C   UNL     1       3.278   5.994  18.632  0.00  0.00    +0.000 A 
ATOM      6  C   UNL     1       4.193   6.093  17.551  0.00  0.00    +0.000 A 
ATOM      7  C   UNL     1       4.410   4.809  17.095  0.00  0.00    +0.000 A 
ATOM      8  O   UNL     1       3.687   3.925  17.837  0.00  0.00    +0.000 OA
ATOM      9  C   UNL     1       2.999   4.640  18.768  0.00  0.00    +0.000 A 
ENDROOT
BRANCH   1  11
ATOM     10  C   UNL     1       0.716   2.230  18.843  0.00  0.00    +0.000 C 
ATOM     11  C   UNL     1       1.828   2.624  19.801  0.00  0.00    +0.000 C 
ENDBRANCH   1  11
BRANCH   7  12
ATOM     12  C   UNL     1       5.230   4.195  16.019  0.00  0.00    +0.000 C 
BRANCH  12  13
ATOM     13  C   UNL     1       6.368   5.091  15.514  0.00  0.00    +0.000 C 
BRANCH  13  14
ATOM     14  O   UNL     1       7.414   5.199  16.494  0.00  0.00    +0.000 OA
ATOM     15  H   UNL     1       8.093   5.800  16.139  0.00  0.00    +0.000 HD
ENDBRANCH  13  14
BRANCH  13  16
ATOM     16  C   UNL     1       6.997   4.532  14.220  0.00  0.00    +0.000 C 
BRANCH  16  17
ATOM     17  N   UNL     1       6.268   3.378  13.687  0.00  0.00    +0.000 NA
ATOM     18  H   UNL     1       5.340   3.348  14.114  0.00  0.00    +0.000 HD
BRANCH  17  19
ATOM     19  C   UNL     1       6.126   3.334  12.219  0.00  0.00    +0.000 C 
ATOM     20  C   UNL     1       7.083   4.321  11.529  0.00  0.00    +0.000 C 
ATOM     21  C   UNL     1       6.515   1.908  11.783  0.00  0.00    +0.000 C 
ATOM     22  C   UNL     1       4.676   3.599  11.779  0.00  0.00    +0.000 C 
ENDBRANCH  17  19
ENDBRANCH  16  17
ENDBRANCH  13  16
ENDBRANCH  12  13
ENDBRANCH   7  12
TORSDOF 7
ENDMDL
MODEL 4
REMARK VINA RESULT:      -6.8      1.357      1.595
REMARK  Name = 
REMARK  11 active torsions:
REMARK  status: ('A' for Active; 'I' for Inactive)
REMARK    1  A    between atoms: C_1  and  C_2
REMARK    2  A    between atoms: C_2  and  C_3
REMARK    3  A    between atoms: C_9  and  C_10
REMARK    4  A    between atoms: C_10  and  C_11
REMARK    5  A    between atoms: C_11  and  O_12
REMARK    6  A    between atoms: C_11  and  C_13
REMARK    7  A    between atoms: C_13  and  N_14
REMARK    8  A    between atoms: N_14  and  C_15
REMARK    9  A    between atoms: C_15  and  C_16
REMARK   10  A    between atoms: C_15  and  C_17
REMARK   11  A    between atoms: C_15  and  C_18
REMARK                            x       y       z     vdW  Elec       q    Type
REMARK                         _______ _______ _______ _____ _____    ______ ____
ROOT
ATOM      1  C   UNL     1       2.699   4.449  20.153  0.00  0.00    +0.000 A 
ATOM      2  C   UNL     1       1.770   5.348  20.706  0.00  0.00    +0.000 A 
ATOM      3  C   UNL     1       1.713   6.687  20.301  0.00  0.00    +0.000 A 
ATOM      4  C   UNL     1       2.576   7.184  19.317  0.00  0.00    +0.000 A 
ATOM      5  C   UNL     1       3.506   6.307  18.739  0.00  0.00    +0.000 A 
ATOM      6  C   UNL     1       4.511   6.409  17.740  0.00  0.00    +0.000 A 
ATOM      7  C   UNL     1       5.081   5.159  17.622  0.00  0.00    +0.000 A 
ATOM      8  O   UNL     1       4.491   4.296  18.495  0.00  0.00    +0.000 OA
ATOM      9  C   UNL     1       3.535   4.988  19.171  0.00  0.00    +0.000 A 
ENDROOT
BRANCH   1  11
ATOM     10  C   UNL     1       1.763   2.717  21.689  0.00  0.00    +0.000 C 
ATOM     11  C   UNL     1       2.740   3.003  20.561  0.00  0.00    +0.000 C 
ENDBRANCH   1  11
BRANCH   7  12
ATOM     12  C   UNL     1       6.160   4.565  16.791  0.00  0.00    +0.000 C 
BRANCH  12  13
ATOM     13  C   UNL     1       6.222   5.116  15.361  0.00  0.00    +0.000 C 
BRANCH  13  14
ATOM     14  O   UNL     1       7.582   5.232  14.911  0.00  0.00    +0.000 OA
ATOM     15  H   UNL     1       7.578   5.185  13.938  0.00  0.00    +0.000 HD
ENDBRANCH  13  14
BRANCH  13  16
ATOM     16  C   UNL     1       5.478   4.198  14.368  0.00  0.00    +0.000 C 
BRANCH  16  17
ATOM     17  N   UNL     1       6.379   3.296  13.645  0.00  0.00    +0.000 NA
ATOM     18  H   UNL     1       6.266   2.350  14.013  0.00  0.00    +0.000 HD
BRANCH  17  19
ATOM     19  C   UNL     1       6.212   3.268  12.179  0.00  0.00    +0.000 C 
ATOM     20  C   UNL     1       4.749   3.512  11.771  0.00  0.00    +0.000 C 
ATOM     21  C   UNL     1       7.064   4.422  11.617  0.00  0.00    +0.000 C 
ATOM     22  C   UNL     1       6.721   1.948  11.574  0.00  0.00    +0.000 C 
ENDBRANCH  17  19
ENDBRANCH  16  17
ENDBRANCH  13  16
ENDBRANCH  12  13
ENDBRANCH   7  12
TORSDOF 7
ENDMDL
MODEL 5
REMARK VINA RESULT:      -6.6      0.538      1.085
REMARK  Name = 
REMARK  11 active torsions:
REMARK  status: ('A' for Active; 'I' for Inactive)
REMARK    1  A    between atoms: C_1  and  C_2
REMARK    2  A    between atoms: C_2  and  C_3
REMARK    3  A    between atoms: C_9  and  C_10
REMARK    4  A    between atoms: C_10  and  C_11
REMARK    5  A    between atoms: C_11  and  O_12
REMARK    6  A    between atoms: C_11  and  C_13
REMARK    7  A    between atoms: C_13  and  N_14
REMARK    8  A    between atoms: N_14  and  C_15
REMARK    9  A    between atoms: C_15  and  C_16
REMARK   10  A    between atoms: C_15  and  C_17
REMARK   11  A    between atoms: C_15  and  C_18
REMARK                            x       y       z     vdW  Elec       q    Type
REMARK                         _______ _______ _______ _____ _____    ______ ____
ROOT
ATOM      1  C   UNL     1       2.139   4.023  18.755  0.00  0.00    +0.000 A 
ATOM      2  C   UNL     1       1.441   4.384  19.922  0.00  0.00    +0.000 A 
ATOM      3  C   UNL     1       1.610   5.637  20.522  0.00  0.00    +0.000 A 
ATOM      4  C   UNL     1       2.477   6.591  19.974  0.00  0.00    +0.000 A 
ATOM      5  C   UNL     1       3.179   6.264  18.804  0.00  0.00    +0.000 A 
ATOM      6  C   UNL     1       4.108   6.927  17.960  0.00  0.00    +0.000 A 
ATOM      7  C   UNL     1       4.419   6.048  16.943  0.00  0.00    +0.000 A 
ATOM      8  O   UNL     1       3.741   4.879  17.118  0.00  0.00    +0.000 OA
ATOM      9  C   UNL     1       2.988   5.008  18.242  0.00  0.00    +0.000 A 
ENDROOT
BRANCH   1  11
ATOM     10  C   UNL     1       3.085   1.742  18.379  0.00  0.00    +0.000 C 
ATOM     11  C   UNL     1       1.933   2.691  18.090  0.00  0.00    +0.000 C 
ENDBRANCH   1  11
BRANCH   7  12
ATOM     12  C   UNL     1       5.302   6.084  15.748  0.00  0.00    +0.000 C 
BRANCH  12  13
ATOM     13  C   UNL     1       6.164   4.827  15.571  0.00  0.00    +0.000 C 
BRANCH  13  14
ATOM     14  O   UNL     1       6.333   4.137  16.821  0.00  0.00    +0.000 OA
ATOM     15  H   UNL     1       5.481   3.722  17.048  0.00  0.00    +0.000 HD
ENDBRANCH  13  14
BRANCH  13  16
ATOM     16  C   UNL     1       5.524   3.838  14.574  0.00  0.00    +0.000 C 
BRANCH  16  17
ATOM     17  N   UNL     1       6.504   3.224  13.675  0.00  0.00    +0.000 NA
ATOM     18  H   UNL     1       6.522   2.216  13.844  0.00  0.00    +0.000 HD
BRANCH  17  19
ATOM     19  C   UNL     1       6.294   3.469  12.236  0.00  0.00    +0.000 C 
ATOM     20  C   UNL     1       7.119   4.668  11.740  0.00  0.00    +0.000 C 
ATOM     21  C   UNL     1       6.788   2.210  11.498  0.00  0.00    +0.000 C 
ATOM     22  C   UNL     1       4.805   3.673  11.905  0.00  0.00    +0.000 C 
ENDBRANCH  17  19
ENDBRANCH  16  17
ENDBRANCH  13  16
ENDBRANCH  12  13
ENDBRANCH   7  12
TORSDOF 7
ENDMDL
MODEL 6
REMARK VINA RESULT:      -6.6      3.111      6.769
REMARK  Name = 
REMARK  11 active torsions:
REMARK  status: ('A' for Active; 'I' for Inactive)
REMARK    1  A    between atoms: C_1  and  C_2
REMARK    2  A    between atoms: C_2  and  C_3
REMARK    3  A    between atoms: C_9  and  C_10
REMARK    4  A    between atoms: C_10  and  C_11
REMARK    5  A    between atoms: C_11  and  O_12
REMARK    6  A    between atoms: C_11  and  C_13
REMARK    7  A    between atoms: C_13  and  N_14
REMARK    8  A    between atoms: N_14  and  C_15
REMARK    9  A    between atoms: C_15  and  C_16
REMARK   10  A    between atoms: C_15  and  C_17
REMARK   11  A    between atoms: C_15  and  C_18
REMARK                            x       y       z     vdW  Elec       q    Type
REMARK                         _______ _______ _______ _____ _____    ______ ____
ROOT
ATOM      1  C   UNL     1       6.809   5.788  17.591  0.00  0.00    +0.000 A 
ATOM      2  C   UNL     1       7.374   4.793  16.772  0.00  0.00    +0.000 A 
ATOM      3  C   UNL     1       6.577   3.895  16.052  0.00  0.00    +0.000 A 
ATOM      4  C   UNL     1       5.180   3.958  16.110  0.00  0.00    +0.000 A 
ATOM      5  C   UNL     1       4.588   4.948  16.911  0.00  0.00    +0.000 A 
ATOM      6  C   UNL     1       3.259   5.340  17.221  0.00  0.00    +0.000 A 
ATOM      7  C   UNL     1       3.353   6.415  18.080  0.00  0.00    +0.000 A 
ATOM      8  O   UNL     1       4.662   6.702  18.323  0.00  0.00    +0.000 OA
ATOM      9  C   UNL     1       5.412   5.816  17.614  0.00  0.00    +0.000 A 
ENDROOT
BRANCH   1  11
ATOM     10  C   UNL     1       7.810   8.076  17.568  0.00  0.00    +0.000 C 
ATOM     11  C   UNL     1       7.661   6.774  18.339  0.00  0.00    +0.000 C 
ENDBRANCH   1  11
BRANCH   7  12
ATOM     12  C   UNL     1       2.382   7.295  18.781  0.00  0.00    +0.000 C 
BRANCH  12  13
ATOM     13  C   UNL     1       2.350   7.100  20.303  0.00  0.00    +0.000 C 
BRANCH  13  14
ATOM     14  O   UNL     1       1.732   8.223  20.953  0.00  0.00    +0.000 OA
ATOM     15  H   UNL     1       2.439   8.840  21.216  0.00  0.00    +0.000 HD
ENDBRANCH  13  14
BRANCH  13  16
ATOM     16  C   UNL     1       1.554   5.837  20.695  0.00  0.00    +0.000 C 
BRANCH  16  17
ATOM     17  N   UNL     1       2.409   4.767  21.216  0.00  0.00    +0.000 NA
ATOM     18  H   UNL     1       2.313   4.732  22.233  0.00  0.00    +0.000 HD
BRANCH  17  19
ATOM     19  C   UNL     1       2.159   3.423  20.660  0.00  0.00    +0.000 C 
ATOM     20  C   UNL     1       1.110   3.461  19.536  0.00  0.00    +0.000 C 
ATOM     21  C   UNL     1       3.492   2.943  20.054  0.00  0.00    +0.000 C 
ATOM     22  C   UNL     1       1.734   2.426  21.753  0.00  0.00    +0.000 C 
ENDBRANCH  17  19
ENDBRANCH  16  17
ENDBRANCH  13  16
ENDBRANCH  12  13
ENDBRANCH   7  12
TORSDOF 7
ENDMDL
MODEL 7
REMARK VINA RESULT:      -6.6      2.763      6.499
REMARK  Name = 
REMARK  11 active torsions:
REMARK  status: ('A' for Active; 'I' for Inactive)
REMARK    1  A    between atoms: C_1  and  C_2
REMARK    2  A    between atoms: C_2  and  C_3
REMARK    3  A    between atoms: C_9  and  C_10
REMARK    4  A    between atoms: C_10  and  C_11
REMARK    5  A    between atoms: C_11  and  O_12
REMARK    6  A    between atoms: C_11  and  C_13
REMARK    7  A    between atoms: C_13  and  N_14
REMARK    8  A    between atoms: N_14  and  C_15
REMARK    9  A    between atoms: C_15  and  C_16
REMARK   10  A    between atoms: C_15  and  C_17
REMARK   11  A    between atoms: C_15  and  C_18
REMARK                            x       y       z     vdW  Elec       q    Type
REMARK                         _______ _______ _______ _____ _____    ______ ____
ROOT
ATOM      1  C   UNL     1       6.969   5.150  17.625  0.00  0.00    +0.000 A 
ATOM      2  C   UNL     1       7.248   5.376  16.266  0.00  0.00    +0.000 A 
ATOM      3  C   UNL     1       6.466   4.813  15.251  0.00  0.00    +0.000 A 
ATOM      4  C   UNL     1       5.361   4.007  15.551  0.00  0.00    +0.000 A 
ATOM      5  C   UNL     1       5.051   3.772  16.900  0.00  0.00    +0.000 A 
ATOM      6  C   UNL     1       4.048   3.050  17.599  0.00  0.00    +0.000 A 
ATOM      7  C   UNL     1       4.296   3.229  18.945  0.00  0.00    +0.000 A 
ATOM      8  O   UNL     1       5.397   4.012  19.113  0.00  0.00    +0.000 OA
ATOM      9  C   UNL     1       5.855   4.344  17.877  0.00  0.00    +0.000 A 
ENDROOT
BRANCH   1  11
ATOM     10  C   UNL     1       8.045   7.253  18.437  0.00  0.00    +0.000 C 
ATOM     11  C   UNL     1       7.787   5.782  18.716  0.00  0.00    +0.000 C 
ENDBRANCH   1  11
BRANCH   7  12
ATOM     12  C   UNL     1       3.658   2.769  20.206  0.00  0.00    +0.000 C 
BRANCH  12  13
ATOM     13  C   UNL     1       2.239   3.311  20.421  0.00  0.00    +0.000 C 
BRANCH  13  14
ATOM     14  O   UNL     1       1.551   2.564  21.438  0.00  0.00    +0.000 OA
ATOM     15  H   UNL     1       2.209   2.291  22.102  0.00  0.00    +0.000 HD
ENDBRANCH  13  14
BRANCH  13  16
ATOM     16  C   UNL     1       2.259   4.791  20.860  0.00  0.00    +0.000 C 
BRANCH  16  17
ATOM     17  N   UNL     1       3.217   5.596  20.098  0.00  0.00    +0.000 NA
ATOM     18  H   UNL     1       3.911   4.974  19.677  0.00  0.00    +0.000 HD
BRANCH  17  19
ATOM     19  C   UNL     1       2.637   6.455  19.048  0.00  0.00    +0.000 C 
ATOM     20  C   UNL     1       1.583   5.702  18.219  0.00  0.00    +0.000 C 
ATOM     21  C   UNL     1       1.933   7.619  19.771  0.00  0.00    +0.000 C 
ATOM     22  C   UNL     1       3.723   7.039  18.127  0.00  0.00    +0.000 C 
ENDBRANCH  17  19
ENDBRANCH  16  17
ENDBRANCH  13  16
ENDBRANCH  12  13
ENDBRANCH   7  12
TORSDOF 7
ENDMDL
MODEL 8
REMARK VINA RESULT:      -6.6      2.780      4.872
REMARK  Name = 
REMARK  11 active torsions:
REMARK  status: ('A' for Active; 'I' for Inactive)
REMARK    1  A    between atoms: C_1  and  C_2
REMARK    2  A    between atoms: C_2  and  C_3
REMARK    3  A    between atoms: C_9  and  C_10
REMARK    4  A    between atoms: C_10  and  C_11
REMARK    5  A    between atoms: C_11  and  O_12
REMARK    6  A    between atoms: C_11  and  C_13
REMARK    7  A    between atoms: C_13  and  N_14
REMARK    8  A    between atoms: N_14  and  C_15
REMARK    9  A    between atoms: C_15  and  C_16
REMARK   10  A    between atoms: C_15  and  C_17
REMARK   11  A    between atoms: C_15  and  C_18
REMARK                            x       y       z     vdW  Elec       q    Type
REMARK                         _______ _______ _______ _____ _____    ______ ____
ROOT
ATOM      1  C   UNL     1       0.830   8.834  20.346  0.00  0.00    +0.000 A 
ATOM      2  C   UNL     1       0.605  10.036  19.651  0.00  0.00    +0.000 A 
ATOM      3  C   UNL     1       1.230  10.305  18.427  0.00  0.00    +0.000 A 
ATOM      4  C   UNL     1       2.100   9.379  17.839  0.00  0.00    +0.000 A 
ATOM      5  C   UNL     1       2.335   8.166  18.504  0.00  0.00    +0.000 A 
ATOM      6  C   UNL     1       3.109   7.003  18.249  0.00  0.00    +0.000 A 
ATOM      7  C   UNL     1       2.898   6.145  19.308  0.00  0.00    +0.000 A 
ATOM      8  O   UNL     1       2.045   6.716  20.204  0.00  0.00    +0.000 OA
ATOM      9  C   UNL     1       1.701   7.939  19.718  0.00  0.00    +0.000 A 
ENDROOT
BRANCH   1  11
ATOM     10  C   UNL     1       0.560   9.488  22.741  0.00  0.00    +0.000 C 
ATOM     11  C   UNL     1       0.135   8.528  21.643  0.00  0.00    +0.000 C 
ENDBRANCH   1  11
BRANCH   7  12
ATOM     12  C   UNL     1       3.380   4.790  19.682  0.00  0.00    +0.000 C 
BRANCH  12  13
ATOM     13  C   UNL     1       4.575   4.302  18.853  0.00  0.00    +0.000 C 
BRANCH  13  14
ATOM     14  O   UNL     1       5.175   3.140  19.448  0.00  0.00    +0.000 OA
ATOM     15  H   UNL     1       4.573   2.817  20.142  0.00  0.00    +0.000 HD
ENDBRANCH  13  14
BRANCH  13  16
ATOM     16  C   UNL     1       4.151   3.927  17.417  0.00  0.00    +0.000 C 
BRANCH  16  17
ATOM     17  N   UNL     1       5.264   3.413  16.613  0.00  0.00    +0.000 NA
ATOM     18  H   UNL     1       4.898   2.746  15.931  0.00  0.00    +0.000 HD
BRANCH  17  19
ATOM     19  C   UNL     1       6.069   4.430  15.911  0.00  0.00    +0.000 C 
ATOM     20  C   UNL     1       7.428   4.647  16.597  0.00  0.00    +0.000 C 
ATOM     21  C   UNL     1       6.330   3.884  14.495  0.00  0.00    +0.000 C 
ATOM     22  C   UNL     1       5.315   5.766  15.787  0.00  0.00    +0.000 C 
ENDBRANCH  17  19
ENDBRANCH  16  17
ENDBRANCH  13  16
ENDBRANCH  12  13
ENDBRANCH   7  12
TORSDOF 7
ENDMDL
MODEL 9
REMARK VINA RESULT:      -6.5      2.074      6.869
REMARK  Name = 
REMARK  11 active torsions:
REMARK  status: ('A' for Active; 'I' for Inactive)
REMARK    1  A    between atoms: C_1  and  C_2
REMARK    2  A    between atoms: C_2  and  C_3
REMARK    3  A    between atoms: C_9  and  C_10
REMARK    4  A    between atoms: C_10  and  C_11
REMARK    5  A    between atoms: C_11  and  O_12
REMARK    6  A    between atoms: C_11  and  C_13
REMARK    7  A    between atoms: C_13  and  N_14
REMARK    8  A    between atoms: N_14  and  C_15
REMARK    9  A    between atoms: C_15  and  C_16
REMARK   10  A    between atoms: C_15  and  C_17
REMARK   11  A    between atoms: C_15  and  C_18
REMARK                            x       y       z     vdW  Elec       q    Type
REMARK                         _______ _______ _______ _____ _____    ______ ____
ROOT
ATOM      1  C   UNL     1       6.240   3.676  12.487  0.00  0.00    +0.000 A 
ATOM      2  C   UNL     1       7.194   4.344  11.698  0.00  0.00    +0.000 A 
ATOM      3  C   UNL     1       8.052   5.307  12.242  0.00  0.00    +0.000 A 
ATOM      4  C   UNL     1       8.001   5.639  13.601  0.00  0.00    +0.000 A 
ATOM      5  C   UNL     1       7.066   4.981  14.415  0.00  0.00    +0.000 A 
ATOM      6  C   UNL     1       6.716   5.018  15.790  0.00  0.00    +0.000 A 
ATOM      7  C   UNL     1       5.702   4.100  15.967  0.00  0.00    +0.000 A 
ATOM      8  O   UNL     1       5.403   3.505  14.779  0.00  0.00    +0.000 OA
ATOM      9  C   UNL     1       6.229   4.035  13.837  0.00  0.00    +0.000 A 
ENDROOT
BRANCH   1  11
ATOM     10  C   UNL     1       4.106   3.225  11.271  0.00  0.00    +0.000 C 
ATOM     11  C   UNL     1       5.341   2.617  11.913  0.00  0.00    +0.000 C 
ENDBRANCH   1  11
BRANCH   7  12
ATOM     12  C   UNL     1       4.886   3.635  17.119  0.00  0.00    +0.000 C 
BRANCH  12  13
ATOM     13  C   UNL     1       5.087   4.459  18.398  0.00  0.00    +0.000 C 
BRANCH  13  14
ATOM     14  O   UNL     1       4.675   5.822  18.203  0.00  0.00    +0.000 OA
ATOM     15  H   UNL     1       4.421   6.183  19.071  0.00  0.00    +0.000 HD
ENDBRANCH  13  14
BRANCH  13  16
ATOM     16  C   UNL     1       4.268   3.887  19.574  0.00  0.00    +0.000 C 
BRANCH  16  17
ATOM     17  N   UNL     1       3.111   3.104  19.132  0.00  0.00    +0.000 NA
ATOM     18  H   UNL     1       3.054   2.252  19.693  0.00  0.00    +0.000 HD
BRANCH  17  19
ATOM     19  C   UNL     1       1.812   3.802  19.178  0.00  0.00    +0.000 C 
ATOM     20  C   UNL     1       1.433   4.382  17.805  0.00  0.00    +0.000 C 
ATOM     21  C   UNL     1       0.757   2.744  19.557  0.00  0.00    +0.000 C 
ATOM     22  C   UNL     1       1.798   4.908  20.247  0.00  0.00    +0.000 C 
ENDBRANCH  17  19
ENDBRANCH  16  17
ENDBRANCH  13  16
ENDBRANCH  12  13
ENDBRANCH   7  12
TORSDOF 7
ENDMDL
