MODEL 1
REMARK VINA RESULT:      -9.0      0.000      0.000
REMARK  Name = 
REMARK  9 active torsions:
REMARK  status: ('A' for Active; 'I' for Inactive)
REMARK    1  A    between atoms: C_1  and  C_2
REMARK    2  A    between atoms: C_4  and  C_5
REMARK    3  A    between atoms: C_7  and  C_8
REMARK    4  A    between atoms: C_14  and  C_15
REMARK    5  A    between atoms: C_16  and  N_17
REMARK    6  A    between atoms: N_17  and  C_18
REMARK    7  A    between atoms: C_18  and  C_19
REMARK    8  A    between atoms: C_19  and  O_20
REMARK    9  A    between atoms: C_19  and  C_21
REMARK                            x       y       z     vdW  Elec       q    Type
REMARK                         _______ _______ _______ _____ _____    ______ ____
ROOT
ATOM      1  C   UNL     1       2.873   4.683  19.694  0.00  0.00    +0.000 A 
ATOM      2  C   UNL     1       4.106   4.227  19.366  0.00  0.00    +0.000 A 
ATOM      3  C   UNL     1       4.316   2.783  19.295  0.00  0.00    +0.000 A 
ATOM      4  C   UNL     1       3.325   1.918  19.532  0.00  0.00    +0.000 A 
ATOM      5  N   UNL     1       2.079   2.376  19.849  0.00  0.00    +0.000 N 
ATOM      6  C   UNL     1       1.760   3.708  19.958  0.00  0.00    +0.000 A 
ATOM      7  O   UNL     1       0.632   4.057  20.288  0.00  0.00    +0.000 OA
ATOM      8  H   UNL     1       1.320   1.729  20.034  0.00  0.00    +0.000 HD
ENDROOT
BRANCH   1  16
ATOM      9  C   UNL     1       2.030   9.744  17.508  0.00  0.00    +0.000 C 
ATOM     10  C   UNL     1       1.615   9.345  18.893  0.00  0.00    +0.000 A 
ATOM     11  C   UNL     1       0.800  10.205  19.666  0.00  0.00    +0.000 A 
ATOM     12  C   UNL     1       0.351   9.846  20.947  0.00  0.00    +0.000 A 
ATOM     13  C   UNL     1       0.712   8.616  21.511  0.00  0.00    +0.000 A 
ATOM     14  C   UNL     1       1.499   7.772  20.724  0.00  0.00    +0.000 A 
ATOM     15  N   UNL     1       1.955   6.496  20.935  0.00  0.00    +0.000 N 
ATOM     16  C   UNL     1       2.566   6.063  19.785  0.00  0.00    +0.000 A 
ATOM     17  N   UNL     1       2.679   7.050  18.917  0.00  0.00    +0.000 NA
ATOM     18  C   UNL     1       1.954   8.096  19.453  0.00  0.00    +0.000 A 
ATOM     19  H   UNL     1       1.767   5.935  21.752  0.00  0.00    +0.000 HD
BRANCH  12  20
ATOM     20  C   UNL     1      -0.530  10.762  21.725  0.00  0.00    +0.000 C 
ATOM     21  N   UNL     1      -0.818  11.966  21.292  0.00  0.00    +0.000 NA
ATOM     22  C   UNL     1      -1.659  12.584  22.359  0.00  0.00    +0.000 C 
ATOM     23  C   UNL     1      -0.948  13.822  22.892  0.00  0.00    +0.000 C 
ATOM     24  C   UNL     1      -1.851  11.516  23.444  0.00  0.00    +0.000 C 
ATOM     25  N   UNL     1      -1.079  10.407  22.932  0.00  0.00    +0.000 N 
ATOM     26  H   UNL     1      -0.447   9.966  23.590  0.00  0.00    +0.000 HD
ENDBRANCH  12  20
ENDBRANCH   1  16
BRANCH   2  27
ATOM     27  N   UNL     1       5.240   5.011  19.125  0.00  0.00    +0.000 N 
ATOM     28  H   UNL     1       5.018   6.004  19.245  0.00  0.00    +0.000 HD
BRANCH  27  29
ATOM     29  C   UNL     1       5.952   4.858  17.838  0.00  0.00    +0.000 C 
BRANCH  29  30
ATOM     30  C   UNL     1       4.999   5.123  16.643  0.00  0.00    +0.000 C 
BRANCH  30  31
ATOM     31  C   UNL     1       5.666   4.767  15.334  0.00  0.00    +0.000 A 
ATOM     32  C   UNL     1       7.005   5.131  15.120  0.00  0.00    +0.000 A 
ATOM     33  C   UNL     1       7.620   4.896  13.889  0.00  0.00    +0.000 A 
ATOM     34  C   UNL     1       6.906   4.291  12.857  0.00  0.00    +0.000 A 
ATOM     35  C   UNL     1       5.582   3.914  13.062  0.00  0.00    +0.000 A 
ATOM     36 CL   UNL     1       4.692   3.181  11.784  0.00  0.00    +0.000 Cl
ATOM     37  C   UNL     1       4.961   4.146  14.290  0.00  0.00    +0.000 A 
ENDBRANCH  30  31
BRANCH  30  38
ATOM     38  O   UNL     1       4.566   6.489  16.621  0.00  0.00    +0.000 OA
ATOM     39  H   UNL     1       5.025   6.934  15.887  0.00  0.00    +0.000 HD
ENDBRANCH  30  38
ENDBRANCH  29  30
ENDBRANCH  27  29
ENDBRANCH   2  27
TORSDOF 7
ENDMDL
MODEL 2
REMARK VINA RESULT:      -8.9      1.112      1.389
REMARK  Name = 
REMARK  9 active torsions:
REMARK  status: ('A' for Active; 'I' for Inactive)
REMARK    1  A    between atoms: C_1  and  C_2
REMARK    2  A    between atoms: C_4  and  C_5
REMARK    3  A    between atoms: C_7  and  C_8
REMARK    4  A    between atoms: C_14  and  C_15
REMARK    5  A    between atoms: C_16  and  N_17
REMARK    6  A    between atoms: N_17  and  C_18
REMARK    7  A    between atoms: C_18  and  C_19
REMARK    8  A    between atoms: C_19  and  O_20
REMARK    9  A    between atoms: C_19  and  C_21
REMARK                            x       y       z     vdW  Elec       q    Type
REMARK                         _______ _______ _______ _____ _____    ______ ____
ROOT
ATOM      1  C   UNL     1       2.904   4.755  19.766  0.00  0.00    +0.000 A 
ATOM      2  C   UNL     1       4.174   4.327  19.572  0.00  0.00    +0.000 A 
ATOM      3  C   UNL     1       4.418   2.888  19.499  0.00  0.00    +0.000 A 
ATOM      4  C   UNL     1       3.423   2.002  19.606  0.00  0.00    +0.000 A 
ATOM      5  N   UNL     1       2.141   2.433  19.787  0.00  0.00    +0.000 N 
ATOM      6  C   UNL     1       1.787   3.757  19.884  0.00  0.00    +0.000 A 
ATOM      7  O   UNL     1       0.622   4.081  20.090  0.00  0.00    +0.000 OA
ATOM      8  H   UNL     1       1.378   1.770  19.873  0.00  0.00    +0.000 HD
ENDROOT
BRANCH   1  16
ATOM      9  C   UNL     1       1.946   9.781  17.545  0.00  0.00    +0.000 C 
ATOM     10  C   UNL     1       1.536   9.380  18.931  0.00  0.00    +0.000 A 
ATOM     11  C   UNL     1       0.696  10.225  19.695  0.00  0.00    +0.000 A 
ATOM     12  C   UNL     1       0.251   9.862  20.977  0.00  0.00    +0.000 A 
ATOM     13  C   UNL     1       0.640   8.646  21.551  0.00  0.00    +0.000 A 
ATOM     14  C   UNL     1       1.450   7.815  20.772  0.00  0.00    +0.000 A 
ATOM     15  N   UNL     1       1.937   6.553  20.992  0.00  0.00    +0.000 N 
ATOM     16  C   UNL     1       2.563   6.128  19.848  0.00  0.00    +0.000 A 
ATOM     17  N   UNL     1       2.655   7.112  18.974  0.00  0.00    +0.000 NA
ATOM     18  C   UNL     1       1.902   8.143  19.500  0.00  0.00    +0.000 A 
ATOM     19  H   UNL     1       1.759   5.992  21.812  0.00  0.00    +0.000 HD
BRANCH  12  20
ATOM     20  C   UNL     1      -0.655  10.761  21.745  0.00  0.00    +0.000 C 
ATOM     21  N   UNL     1      -1.064  11.906  21.252  0.00  0.00    +0.000 NA
ATOM     22  C   UNL     1      -1.889  12.532  22.326  0.00  0.00    +0.000 C 
ATOM     23  C   UNL     1      -1.252  13.855  22.730  0.00  0.00    +0.000 C 
ATOM     24  C   UNL     1      -1.933  11.533  23.490  0.00  0.00    +0.000 C 
ATOM     25  N   UNL     1      -1.104  10.452  23.006  0.00  0.00    +0.000 N 
ATOM     26  H   UNL     1      -0.401  10.109  23.651  0.00  0.00    +0.000 HD
ENDBRANCH  12  20
ENDBRANCH   1  16
BRANCH   2  27
ATOM     27  N   UNL     1       5.314   5.134  19.476  0.00  0.00    +0.000 N 
ATOM     28  H   UNL     1       5.318   5.832  20.226  0.00  0.00    +0.000 HD
BRANCH  27  29
ATOM     29  C   UNL     1       5.587   5.834  18.202  0.00  0.00    +0.000 C 
BRANCH  29  30
ATOM     30  C   UNL     1       6.879   5.291  17.537  0.00  0.00    +0.000 C 
BRANCH  30  31
ATOM     31  C   UNL     1       6.612   4.866  16.112  0.00  0.00    +0.000 A 
ATOM     32  C   UNL     1       5.641   3.884  15.856  0.00  0.00    +0.000 A 
ATOM     33  C   UNL     1       5.435   3.406  14.560  0.00  0.00    +0.000 A 
ATOM     34  C   UNL     1       6.195   3.905  13.504  0.00  0.00    +0.000 A 
ATOM     35  C   UNL     1       7.151   4.888  13.745  0.00  0.00    +0.000 A 
ATOM     36 CL   UNL     1       8.102   5.495  12.445  0.00  0.00    +0.000 Cl
ATOM     37  C   UNL     1       7.362   5.370  15.037  0.00  0.00    +0.000 A 
ENDBRANCH  30  31
BRANCH  30  38
ATOM     38  O   UNL     1       7.425   4.198  18.286  0.00  0.00    +0.000 OA
ATOM     39  H   UNL     1       7.879   4.568  19.063  0.00  0.00    +0.000 HD
ENDBRANCH  30  38
ENDBRANCH  29  30
ENDBRANCH  27  29
ENDBRANCH   2  27
TORSDOF 7
ENDMDL
MODEL 3
REMARK VINA RESULT:      -8.8      2.051      2.741
REMARK  Name = 
REMARK  9 active torsions:
REMARK  status: ('A' for Active; 'I' for Inactive)
REMARK    1  A    between atoms: C_1  and  C_2
REMARK    2  A    between atoms: C_4  and  C_5
REMARK    3  A    between atoms: C_7  and  C_8
REMARK    4  A    between atoms: C_14  and  C_15
REMARK    5  A    between atoms: C_16  and  N_17
REMARK    6  A    between atoms: N_17  and  C_18
REMARK    7  A    between atoms: C_18  and  C_19
REMARK    8  A    between atoms: C_19  and  O_20
REMARK    9  A    between atoms: C_19  and  C_21
REMARK                            x       y       z     vdW  Elec       q    Type
REMARK                         _______ _______ _______ _____ _____    ______ ____
ROOT
ATOM      1  C   UNL     1       2.786   4.553  19.296  0.00  0.00    +0.000 A 
ATOM      2  C   UNL     1       3.505   4.081  18.249  0.00  0.00    +0.000 A 
ATOM      3  C   UNL     1       3.711   2.638  18.144  0.00  0.00    +0.000 A 
ATOM      4  C   UNL     1       3.200   1.790  19.042  0.00  0.00    +0.000 A 
ATOM      5  N   UNL     1       2.464   2.264  20.089  0.00  0.00    +0.000 N 
ATOM      6  C   UNL     1       2.212   3.597  20.302  0.00  0.00    +0.000 A 
ATOM      7  O   UNL     1       1.578   3.965  21.286  0.00  0.00    +0.000 OA
ATOM      8  H   UNL     1       2.074   1.630  20.778  0.00  0.00    +0.000 HD
ENDROOT
BRANCH   1  16
ATOM      9  C   UNL     1       2.215   9.799  17.490  0.00  0.00    +0.000 C 
ATOM     10  C   UNL     1       1.733   9.310  18.824  0.00  0.00    +0.000 A 
ATOM     11  C   UNL     1       0.920  10.139  19.633  0.00  0.00    +0.000 A 
ATOM     12  C   UNL     1       0.409   9.699  20.864  0.00  0.00    +0.000 A 
ATOM     13  C   UNL     1       0.703   8.416  21.342  0.00  0.00    +0.000 A 
ATOM     14  C   UNL     1       1.487   7.604  20.519  0.00  0.00    +0.000 A 
ATOM     15  N   UNL     1       1.888   6.299  20.644  0.00  0.00    +0.000 N 
ATOM     16  C   UNL     1       2.527   5.933  19.485  0.00  0.00    +0.000 A 
ATOM     17  N   UNL     1       2.709   6.979  18.704  0.00  0.00    +0.000 NA
ATOM     18  C   UNL     1       2.003   8.009  19.294  0.00  0.00    +0.000 A 
ATOM     19  H   UNL     1       1.648   5.684  21.406  0.00  0.00    +0.000 HD
BRANCH  12  20
ATOM     20  C   UNL     1      -0.467  10.585  21.681  0.00  0.00    +0.000 C 
ATOM     21  N   UNL     1      -0.840  11.766  21.248  0.00  0.00    +0.000 NA
ATOM     22  C   UNL     1      -1.644  12.362  22.355  0.00  0.00    +0.000 C 
ATOM     23  C   UNL     1      -0.964  13.643  22.823  0.00  0.00    +0.000 C 
ATOM     24  C   UNL     1      -1.717  11.307  23.466  0.00  0.00    +0.000 C 
ATOM     25  N   UNL     1      -0.924  10.227  22.925  0.00  0.00    +0.000 N 
ATOM     26  H   UNL     1      -0.231   9.829  23.549  0.00  0.00    +0.000 HD
ENDBRANCH  12  20
ENDBRANCH   1  16
BRANCH   2  27
ATOM     27  N   UNL     1       4.125   4.849  17.257  0.00  0.00    +0.000 N 
ATOM     28  H   UNL     1       3.435   5.440  16.782  0.00  0.00    +0.000 HD
BRANCH  27  29
ATOM     29  C   UNL     1       4.924   4.162  16.219  0.00  0.00    +0.000 C 
BRANCH  29  30
ATOM     30  C   UNL     1       6.031   5.097  15.664  0.00  0.00    +0.000 C 
BRANCH  30  31
ATOM     31  C   UNL     1       6.859   5.676  16.788  0.00  0.00    +0.000 A 
ATOM     32  C   UNL     1       7.290   4.839  17.830  0.00  0.00    +0.000 A 
ATOM     33  C   UNL     1       7.978   5.361  18.926  0.00  0.00    +0.000 A 
ATOM     34  C   UNL     1       8.246   6.727  18.995  0.00  0.00    +0.000 A 
ATOM     35  C   UNL     1       7.835   7.564  17.962  0.00  0.00    +0.000 A 
ATOM     36 CL   UNL     1       8.151   9.254  18.051  0.00  0.00    +0.000 Cl
ATOM     37  C   UNL     1       7.147   7.048  16.863  0.00  0.00    +0.000 A 
ENDBRANCH  30  31
BRANCH  30  38
ATOM     38  O   UNL     1       5.468   6.149  14.871  0.00  0.00    +0.000 OA
ATOM     39  H   UNL     1       5.183   6.856  15.476  0.00  0.00    +0.000 HD
ENDBRANCH  30  38
ENDBRANCH  29  30
ENDBRANCH  27  29
ENDBRANCH   2  27
TORSDOF 7
ENDMDL
MODEL 4
REMARK VINA RESULT:      -8.5      0.911      1.250
REMARK  Name = 
REMARK  9 active torsions:
REMARK  status: ('A' for Active; 'I' for Inactive)
REMARK    1  A    between atoms: C_1  and  C_2
REMARK    2  A    between atoms: C_4  and  C_5
REMARK    3  A    between atoms: C_7  and  C_8
REMARK    4  A    between atoms: C_14  and  C_15
REMARK    5  A    between atoms: C_16  and  N_17
REMARK    6  A    between atoms: N_17  and  C_18
REMARK    7  A    between atoms: C_18  and  C_19
REMARK    8  A    between atoms: C_19  and  O_20
REMARK    9  A    between atoms: C_19  and  C_21
REMARK                            x       y       z     vdW  Elec       q    Type
REMARK                         _______ _______ _______ _____ _____    ______ ____
ROOT
ATOM      1  C   UNL     1       2.636   4.934  19.429  0.00  0.00    +0.000 A 
ATOM      2  C   UNL     1       3.663   4.425  18.707  0.00  0.00    +0.000 A 
ATOM      3  C   UNL     1       3.797   2.973  18.620  0.00  0.00    +0.000 A 
ATOM      4  C   UNL     1       2.930   2.152  19.221  0.00  0.00    +0.000 A 
ATOM      5  N   UNL     1       1.888   2.664  19.937  0.00  0.00    +0.000 N 
ATOM      6  C   UNL     1       1.662   4.008  20.102  0.00  0.00    +0.000 A 
ATOM      7  O   UNL     1       0.731   4.408  20.793  0.00  0.00    +0.000 OA
ATOM      8  H   UNL     1       1.226   2.050  20.400  0.00  0.00    +0.000 HD
ENDROOT
BRANCH   1  16
ATOM      9  C   UNL     1       1.816  10.070  17.415  0.00  0.00    +0.000 C 
ATOM     10  C   UNL     1       1.546   9.670  18.835  0.00  0.00    +0.000 A 
ATOM     11  C   UNL     1       0.874  10.557  19.708  0.00  0.00    +0.000 A 
ATOM     12  C   UNL     1       0.560  10.199  21.029  0.00  0.00    +0.000 A 
ATOM     13  C   UNL     1       0.919   8.943  21.533  0.00  0.00    +0.000 A 
ATOM     14  C   UNL     1       1.560   8.072  20.649  0.00  0.00    +0.000 A 
ATOM     15  N   UNL     1       1.969   6.771  20.790  0.00  0.00    +0.000 N 
ATOM     16  C   UNL     1       2.417   6.327  19.571  0.00  0.00    +0.000 A 
ATOM     17  N   UNL     1       2.479   7.321  18.708  0.00  0.00    +0.000 NA
ATOM     18  C   UNL     1       1.880   8.395  19.337  0.00  0.00    +0.000 A 
ATOM     19  H   UNL     1       1.848   6.206  21.617  0.00  0.00    +0.000 HD
BRANCH  12  20
ATOM     20  C   UNL     1      -0.173  11.146  21.916  0.00  0.00    +0.000 C 
ATOM     21  N   UNL     1      -1.070  10.724  22.775  0.00  0.00    +0.000 NA
ATOM     22  C   UNL     1      -1.614  11.955  23.421  0.00  0.00    +0.000 C 
ATOM     23  C   UNL     1      -3.108  12.044  23.133  0.00  0.00    +0.000 C 
ATOM     24  C   UNL     1      -0.841  13.142  22.832  0.00  0.00    +0.000 C 
ATOM     25  N   UNL     1       0.039  12.502  21.881  0.00  0.00    +0.000 N 
ATOM     26  H   UNL     1       0.072  12.918  20.957  0.00  0.00    +0.000 HD
ENDBRANCH  12  20
ENDBRANCH   1  16
BRANCH   2  27
ATOM     27  N   UNL     1       4.660   5.160  18.055  0.00  0.00    +0.000 N 
ATOM     28  H   UNL     1       4.493   6.164  18.169  0.00  0.00    +0.000 HD
BRANCH  27  29
ATOM     29  C   UNL     1       4.913   4.902  16.620  0.00  0.00    +0.000 C 
BRANCH  29  30
ATOM     30  C   UNL     1       6.419   5.070  16.285  0.00  0.00    +0.000 C 
BRANCH  30  31
ATOM     31  C   UNL     1       6.682   4.759  14.829  0.00  0.00    +0.000 A 
ATOM     32  C   UNL     1       7.765   5.371  14.178  0.00  0.00    +0.000 A 
ATOM     33  C   UNL     1       7.979   5.174  12.813  0.00  0.00    +0.000 A 
ATOM     34  C   UNL     1       7.116   4.360  12.081  0.00  0.00    +0.000 A 
ATOM     35  C   UNL     1       6.047   3.738  12.720  0.00  0.00    +0.000 A 
ATOM     36 CL   UNL     1       4.970   2.744  11.817  0.00  0.00    +0.000 Cl
ATOM     37  C   UNL     1       5.827   3.931  14.084  0.00  0.00    +0.000 A 
ENDBRANCH  30  31
BRANCH  30  38
ATOM     38  O   UNL     1       7.231   4.239  17.123  0.00  0.00    +0.000 OA
ATOM     39  H   UNL     1       6.930   4.360  18.041  0.00  0.00    +0.000 HD
ENDBRANCH  30  38
ENDBRANCH  29  30
ENDBRANCH  27  29
ENDBRANCH   2  27
TORSDOF 7
ENDMDL
MODEL 5
REMARK VINA RESULT:      -8.3      1.215      1.738
REMARK  Name = 
REMARK  9 active torsions:
REMARK  status: ('A' for Active; 'I' for Inactive)
REMARK    1  A    between atoms: C_1  and  C_2
REMARK    2  A    between atoms: C_4  and  C_5
REMARK    3  A    between atoms: C_7  and  C_8
REMARK    4  A    between atoms: C_14  and  C_15
REMARK    5  A    between atoms: C_16  and  N_17
REMARK    6  A    between atoms: N_17  and  C_18
REMARK    7  A    between atoms: C_18  and  C_19
REMARK    8  A    between atoms: C_19  and  O_20
REMARK    9  A    between atoms: C_19  and  C_21
REMARK                            x       y       z     vdW  Elec       q    Type
REMARK                         _______ _______ _______ _____ _____    ______ ____
ROOT
ATOM      1  C   UNL     1       2.720   5.022  19.707  0.00  0.00    +0.000 A 
ATOM      2  C   UNL     1       3.912   4.529  19.293  0.00  0.00    +0.000 A 
ATOM      3  C   UNL     1       4.075   3.078  19.222  0.00  0.00    +0.000 A 
ATOM      4  C   UNL     1       3.081   2.245  19.543  0.00  0.00    +0.000 A 
ATOM      5  N   UNL     1       1.876   2.741  19.947  0.00  0.00    +0.000 N 
ATOM      6  C   UNL     1       1.604   4.082  20.065  0.00  0.00    +0.000 A 
ATOM      7  O   UNL     1       0.514   4.467  20.475  0.00  0.00    +0.000 OA
ATOM      8  H   UNL     1       1.116   2.118  20.197  0.00  0.00    +0.000 HD
ENDROOT
BRANCH   1  16
ATOM      9  C   UNL     1       1.756  10.067  17.533  0.00  0.00    +0.000 C 
ATOM     10  C   UNL     1       1.493   9.702  18.964  0.00  0.00    +0.000 A 
ATOM     11  C   UNL     1       0.794  10.596  19.808  0.00  0.00    +0.000 A 
ATOM     12  C   UNL     1       0.485  10.270  21.139  0.00  0.00    +0.000 A 
ATOM     13  C   UNL     1       0.879   9.041  21.683  0.00  0.00    +0.000 A 
ATOM     14  C   UNL     1       1.549   8.163  20.827  0.00  0.00    +0.000 A 
ATOM     15  N   UNL     1       1.996   6.879  21.010  0.00  0.00    +0.000 N 
ATOM     16  C   UNL     1       2.460   6.411  19.806  0.00  0.00    +0.000 A 
ATOM     17  N   UNL     1       2.496   7.380  18.912  0.00  0.00    +0.000 NA
ATOM     18  C   UNL     1       1.863   8.454  19.506  0.00  0.00    +0.000 A 
ATOM     19  H   UNL     1       1.889   6.337  21.853  0.00  0.00    +0.000 HD
BRANCH  12  20
ATOM     20  C   UNL     1      -0.277  11.222  21.994  0.00  0.00    +0.000 C 
ATOM     21  N   UNL     1      -1.101  10.799  22.924  0.00  0.00    +0.000 NA
ATOM     22  C   UNL     1      -1.708  12.029  23.510  0.00  0.00    +0.000 C 
ATOM     23  C   UNL     1      -3.215  11.987  23.292  0.00  0.00    +0.000 C 
ATOM     24  C   UNL     1      -1.055  13.224  22.805  0.00  0.00    +0.000 C 
ATOM     25  N   UNL     1      -0.171  12.584  21.857  0.00  0.00    +0.000 N 
ATOM     26  H   UNL     1      -0.212  12.934  20.906  0.00  0.00    +0.000 HD
ENDBRANCH  12  20
ENDBRANCH   1  16
BRANCH   2  27
ATOM     27  N   UNL     1       5.046   5.277  18.959  0.00  0.00    +0.000 N 
ATOM     28  H   UNL     1       5.016   5.545  17.970  0.00  0.00    +0.000 HD
BRANCH  27  29
ATOM     29  C   UNL     1       6.383   4.706  19.233  0.00  0.00    +0.000 C 
BRANCH  29  30
ATOM     30  C   UNL     1       7.389   5.089  18.115  0.00  0.00    +0.000 C 
BRANCH  30  31
ATOM     31  C   UNL     1       6.669   5.348  16.811  0.00  0.00    +0.000 A 
ATOM     32  C   UNL     1       5.836   6.472  16.694  0.00  0.00    +0.000 A 
ATOM     33  C   UNL     1       5.089   6.688  15.535  0.00  0.00    +0.000 A 
ATOM     34  C   UNL     1       5.167   5.784  14.477  0.00  0.00    +0.000 A 
ATOM     35  C   UNL     1       5.999   4.673  14.577  0.00  0.00    +0.000 A 
ATOM     36 CL   UNL     1       6.086   3.547  13.278  0.00  0.00    +0.000 Cl
ATOM     37  C   UNL     1       6.749   4.451  15.733  0.00  0.00    +0.000 A 
ENDBRANCH  30  31
BRANCH  30  38
ATOM     38  O   UNL     1       8.379   4.068  17.940  0.00  0.00    +0.000 OA
ATOM     39  H   UNL     1       9.187   4.493  17.605  0.00  0.00    +0.000 HD
ENDBRANCH  30  38
ENDBRANCH  29  30
ENDBRANCH  27  29
ENDBRANCH   2  27
TORSDOF 7
ENDMDL
MODEL 6
REMARK VINA RESULT:      -8.2      2.185      2.830
REMARK  Name = 
REMARK  9 active torsions:
REMARK  status: ('A' for Active; 'I' for Inactive)
REMARK    1  A    between atoms: C_1  and  C_2
REMARK    2  A    between atoms: C_4  and  C_5
REMARK    3  A    between atoms: C_7  and  C_8
REMARK    4  A    between atoms: C_14  and  C_15
REMARK    5  A    between atoms: C_16  and  N_17
REMARK    6  A    between atoms: N_17  and  C_18
REMARK    7  A    between atoms: C_18  and  C_19
REMARK    8  A    between atoms: C_19  and  O_20
REMARK    9  A    between atoms: C_19  and  C_21
REMARK                            x       y       z     vdW  Elec       q    Type
REMARK                         _______ _______ _______ _____ _____    ______ ____
ROOT
ATOM      1  C   UNL     1       2.960   4.686  19.403  0.00  0.00    +0.000 A 
ATOM      2  C   UNL     1       3.531   4.198  18.276  0.00  0.00    +0.000 A 
ATOM      3  C   UNL     1       3.827   2.769  18.211  0.00  0.00    +0.000 A 
ATOM      4  C   UNL     1       3.536   1.946  19.223  0.00  0.00    +0.000 A 
ATOM      5  N   UNL     1       2.948   2.435  20.354  0.00  0.00    +0.000 N 
ATOM      6  C   UNL     1       2.633   3.759  20.539  0.00  0.00    +0.000 A 
ATOM      7  O   UNL     1       2.144   4.145  21.595  0.00  0.00    +0.000 OA
ATOM      8  H   UNL     1       2.726   1.821  21.130  0.00  0.00    +0.000 HD
ENDROOT
BRANCH   1  16
ATOM      9  C   UNL     1       2.174   9.868  17.495  0.00  0.00    +0.000 C 
ATOM     10  C   UNL     1       1.689   9.379  18.827  0.00  0.00    +0.000 A 
ATOM     11  C   UNL     1       0.822  10.180  19.606  0.00  0.00    +0.000 A 
ATOM     12  C   UNL     1       0.307   9.736  20.835  0.00  0.00    +0.000 A 
ATOM     13  C   UNL     1       0.653   8.477  21.341  0.00  0.00    +0.000 A 
ATOM     14  C   UNL     1       1.492   7.691  20.547  0.00  0.00    +0.000 A 
ATOM     15  N   UNL     1       1.953   6.409  20.702  0.00  0.00    +0.000 N 
ATOM     16  C   UNL     1       2.631   6.055  19.563  0.00  0.00    +0.000 A 
ATOM     17  N   UNL     1       2.778   7.096  18.767  0.00  0.00    +0.000 NA
ATOM     18  C   UNL     1       2.012   8.100  19.325  0.00  0.00    +0.000 A 
ATOM     19  H   UNL     1       1.727   5.795  21.471  0.00  0.00    +0.000 HD
BRANCH  12  20
ATOM     20  C   UNL     1      -0.626  10.593  21.618  0.00  0.00    +0.000 C 
ATOM     21  N   UNL     1      -1.227  11.626  21.076  0.00  0.00    +0.000 NA
ATOM     22  C   UNL     1      -2.015  12.253  22.177  0.00  0.00    +0.000 C 
ATOM     23  C   UNL     1      -1.517  13.677  22.390  0.00  0.00    +0.000 C 
ATOM     24  C   UNL     1      -1.812  11.378  23.421  0.00  0.00    +0.000 C 
ATOM     25  N   UNL     1      -0.903  10.360  22.943  0.00  0.00    +0.000 N 
ATOM     26  H   UNL     1      -0.101  10.170  23.533  0.00  0.00    +0.000 HD
ENDBRANCH  12  20
ENDBRANCH   1  16
BRANCH   2  27
ATOM     27  N   UNL     1       3.920   4.942  17.156  0.00  0.00    +0.000 N 
ATOM     28  H   UNL     1       3.123   5.076  16.525  0.00  0.00    +0.000 HD
BRANCH  27  29
ATOM     29  C   UNL     1       5.064   4.469  16.347  0.00  0.00    +0.000 C 
BRANCH  29  30
ATOM     30  C   UNL     1       5.906   5.664  15.826  0.00  0.00    +0.000 C 
BRANCH  30  31
ATOM     31  C   UNL     1       6.716   6.279  16.945  0.00  0.00    +0.000 A 
ATOM     32  C   UNL     1       7.144   7.611  16.834  0.00  0.00    +0.000 A 
ATOM     33  C   UNL     1       7.968   8.178  17.808  0.00  0.00    +0.000 A 
ATOM     34  C   UNL     1       8.373   7.421  18.906  0.00  0.00    +0.000 A 
ATOM     35  C   UNL     1       7.943   6.103  19.032  0.00  0.00    +0.000 A 
ATOM     36 CL   UNL     1       8.454   5.160  20.379  0.00  0.00    +0.000 Cl
ATOM     37  C   UNL     1       7.120   5.530  18.062  0.00  0.00    +0.000 A 
ENDBRANCH  30  31
BRANCH  30  38
ATOM     38  O   UNL     1       5.071   6.656  15.216  0.00  0.00    +0.000 OA
ATOM     39  H   UNL     1       5.001   6.443  14.269  0.00  0.00    +0.000 HD
ENDBRANCH  30  38
ENDBRANCH  29  30
ENDBRANCH  27  29
ENDBRANCH   2  27
TORSDOF 7
ENDMDL
MODEL 7
REMARK VINA RESULT:      -8.2      1.275      1.733
REMARK  Name = 
REMARK  9 active torsions:
REMARK  status: ('A' for Active; 'I' for Inactive)
REMARK    1  A    between atoms: C_1  and  C_2
REMARK    2  A    between atoms: C_4  and  C_5
REMARK    3  A    between atoms: C_7  and  C_8
REMARK    4  A    between atoms: C_14  and  C_15
REMARK    5  A    between atoms: C_16  and  N_17
REMARK    6  A    between atoms: N_17  and  C_18
REMARK    7  A    between atoms: C_18  and  C_19
REMARK    8  A    between atoms: C_19  and  O_20
REMARK    9  A    between atoms: C_19  and  C_21
REMARK                            x       y       z     vdW  Elec       q    Type
REMARK                         _______ _______ _______ _____ _____    ______ ____
ROOT
ATOM      1  C   UNL     1       2.416   4.879  19.601  0.00  0.00    +0.000 A 
ATOM      2  C   UNL     1       3.524   4.314  19.065  0.00  0.00    +0.000 A 
ATOM      3  C   UNL     1       3.590   2.856  18.985  0.00  0.00    +0.000 A 
ATOM      4  C   UNL     1       2.586   2.085  19.413  0.00  0.00    +0.000 A 
ATOM      5  N   UNL     1       1.463   2.654  19.940  0.00  0.00    +0.000 N 
ATOM      6  C   UNL     1       1.288   4.009  20.080  0.00  0.00    +0.000 A 
ATOM      7  O   UNL     1       0.273   4.460  20.601  0.00  0.00    +0.000 OA
ATOM      8  H   UNL     1       0.696   2.079  20.271  0.00  0.00    +0.000 HD
ENDROOT
BRANCH   1  16
ATOM      9  C   UNL     1       1.906  10.022  17.502  0.00  0.00    +0.000 C 
ATOM     10  C   UNL     1       1.562   9.651  18.914  0.00  0.00    +0.000 A 
ATOM     11  C   UNL     1       0.897  10.577  19.751  0.00  0.00    +0.000 A 
ATOM     12  C   UNL     1       0.515  10.250  21.062  0.00  0.00    +0.000 A 
ATOM     13  C   UNL     1       0.797   8.985  21.593  0.00  0.00    +0.000 A 
ATOM     14  C   UNL     1       1.434   8.076  20.745  0.00  0.00    +0.000 A 
ATOM     15  N   UNL     1       1.778   6.760  20.915  0.00  0.00    +0.000 N 
ATOM     16  C   UNL     1       2.254   6.282  19.720  0.00  0.00    +0.000 A 
ATOM     17  N   UNL     1       2.395   7.262  18.849  0.00  0.00    +0.000 NA
ATOM     18  C   UNL     1       1.819   8.368  19.443  0.00  0.00    +0.000 A 
ATOM     19  H   UNL     1       1.600   6.211  21.743  0.00  0.00    +0.000 HD
BRANCH  12  20
ATOM     20  C   UNL     1      -0.209  11.238  21.909  0.00  0.00    +0.000 C 
ATOM     21  N   UNL     1      -1.087  10.858  22.807  0.00  0.00    +0.000 NA
ATOM     22  C   UNL     1      -1.629  12.119  23.394  0.00  0.00    +0.000 C 
ATOM     23  C   UNL     1      -3.129  12.180  23.129  0.00  0.00    +0.000 C 
ATOM     24  C   UNL     1      -0.877  13.277  22.726  0.00  0.00    +0.000 C 
ATOM     25  N   UNL     1      -0.009  12.592  21.796  0.00  0.00    +0.000 N 
ATOM     26  H   UNL     1       0.003  12.957  20.850  0.00  0.00    +0.000 HD
ENDBRANCH  12  20
ENDBRANCH   1  16
BRANCH   2  27
ATOM     27  N   UNL     1       4.661   4.991  18.609  0.00  0.00    +0.000 N 
ATOM     28  H   UNL     1       4.541   5.267  17.630  0.00  0.00    +0.000 HD
BRANCH  27  29
ATOM     29  C   UNL     1       5.981   4.336  18.737  0.00  0.00    +0.000 C 
BRANCH  29  30
ATOM     30  C   UNL     1       7.017   4.985  17.782  0.00  0.00    +0.000 C 
BRANCH  30  31
ATOM     31  C   UNL     1       6.674   4.692  16.338  0.00  0.00    +0.000 A 
ATOM     32  C   UNL     1       5.641   3.788  16.045  0.00  0.00    +0.000 A 
ATOM     33  C   UNL     1       5.362   3.430  14.725  0.00  0.00    +0.000 A 
ATOM     34  C   UNL     1       6.111   3.972  13.681  0.00  0.00    +0.000 A 
ATOM     35  C   UNL     1       7.129   4.879  13.961  0.00  0.00    +0.000 A 
ATOM     36 CL   UNL     1       8.065   5.538  12.676  0.00  0.00    +0.000 Cl
ATOM     37  C   UNL     1       7.413   5.242  15.278  0.00  0.00    +0.000 A 
ENDBRANCH  30  31
BRANCH  30  38
ATOM     38  O   UNL     1       8.345   4.534  18.077  0.00  0.00    +0.000 OA
ATOM     39  H   UNL     1       8.319   3.565  18.149  0.00  0.00    +0.000 HD
ENDBRANCH  30  38
ENDBRANCH  29  30
ENDBRANCH  27  29
ENDBRANCH   2  27
TORSDOF 7
ENDMDL
MODEL 8
REMARK VINA RESULT:      -8.0      3.420      9.035
REMARK  Name = 
REMARK  9 active torsions:
REMARK  status: ('A' for Active; 'I' for Inactive)
REMARK    1  A    between atoms: C_1  and  C_2
REMARK    2  A    between atoms: C_4  and  C_5
REMARK    3  A    between atoms: C_7  and  C_8
REMARK    4  A    between atoms: C_14  and  C_15
REMARK    5  A    between atoms: C_16  and  N_17
REMARK    6  A    between atoms: N_17  and  C_18
REMARK    7  A    between atoms: C_18  and  C_19
REMARK    8  A    between atoms: C_19  and  O_20
REMARK    9  A    between atoms: C_19  and  C_21
REMARK                            x       y       z     vdW  Elec       q    Type
REMARK                         _______ _______ _______ _____ _____    ______ ____
ROOT
ATOM      1  C   UNL     1       3.258   3.585  20.135  0.00  0.00    +0.000 A 
ATOM      2  C   UNL     1       2.058   4.059  20.547  0.00  0.00    +0.000 A 
ATOM      3  C   UNL     1       1.353   3.338  21.604  0.00  0.00    +0.000 A 
ATOM      4  C   UNL     1       1.870   2.243  22.170  0.00  0.00    +0.000 A 
ATOM      5  N   UNL     1       3.085   1.772  21.765  0.00  0.00    +0.000 N 
ATOM      6  C   UNL     1       3.837   2.355  20.774  0.00  0.00    +0.000 A 
ATOM      7  O   UNL     1       4.903   1.860  20.424  0.00  0.00    +0.000 OA
ATOM      8  H   UNL     1       3.485   0.940  22.185  0.00  0.00    +0.000 HD
ENDROOT
BRANCH   1  16
ATOM      9  C   UNL     1       7.633   6.518  18.301  0.00  0.00    +0.000 C 
ATOM     10  C   UNL     1       6.721   5.723  17.414  0.00  0.00    +0.000 A 
ATOM     11  C   UNL     1       7.048   5.525  16.052  0.00  0.00    +0.000 A 
ATOM     12  C   UNL     1       6.245   4.746  15.204  0.00  0.00    +0.000 A 
ATOM     13  C   UNL     1       5.073   4.147  15.681  0.00  0.00    +0.000 A 
ATOM     14  C   UNL     1       4.778   4.335  17.033  0.00  0.00    +0.000 A 
ATOM     15  N   UNL     1       3.775   3.837  17.823  0.00  0.00    +0.000 N 
ATOM     16  C   UNL     1       4.021   4.213  19.120  0.00  0.00    +0.000 A 
ATOM     17  N   UNL     1       5.025   5.067  19.174  0.00  0.00    +0.000 NA
ATOM     18  C   UNL     1       5.555   5.095  17.899  0.00  0.00    +0.000 A 
ATOM     19  H   UNL     1       3.050   3.204  17.519  0.00  0.00    +0.000 HD
BRANCH  12  20
ATOM     20  C   UNL     1       6.632   4.534  13.781  0.00  0.00    +0.000 C 
ATOM     21  N   UNL     1       6.051   3.618  13.043  0.00  0.00    +0.000 NA
ATOM     22  C   UNL     1       6.742   3.671  11.721  0.00  0.00    +0.000 C 
ATOM     23  C   UNL     1       7.395   2.321  11.452  0.00  0.00    +0.000 C 
ATOM     24  C   UNL     1       7.773   4.804  11.807  0.00  0.00    +0.000 C 
ATOM     25  N   UNL     1       7.614   5.270  13.166  0.00  0.00    +0.000 N 
ATOM     26  H   UNL     1       8.470   5.390  13.696  0.00  0.00    +0.000 HD
ENDBRANCH  12  20
ENDBRANCH   1  16
BRANCH   2  27
ATOM     27  N   UNL     1       1.383   5.169  20.025  0.00  0.00    +0.000 N 
ATOM     28  H   UNL     1       1.664   5.331  19.053  0.00  0.00    +0.000 HD
BRANCH  27  29
ATOM     29  C   UNL     1       1.471   6.459  20.743  0.00  0.00    +0.000 C 
BRANCH  29  30
ATOM     30  C   UNL     1       2.151   7.539  19.860  0.00  0.00    +0.000 C 
BRANCH  30  31
ATOM     31  C   UNL     1       1.337   8.813  19.847  0.00  0.00    +0.000 A 
ATOM     32  C   UNL     1       1.243   9.559  18.661  0.00  0.00    +0.000 A 
ATOM     33  C   UNL     1       0.574  10.784  18.641  0.00  0.00    +0.000 A 
ATOM     34  C   UNL     1      -0.012  11.278  19.805  0.00  0.00    +0.000 A 
ATOM     35  C   UNL     1       0.064  10.540  20.983  0.00  0.00    +0.000 A 
ATOM     36 CL   UNL     1      -0.645  11.154  22.426  0.00  0.00    +0.000 Cl
ATOM     37  C   UNL     1       0.731   9.315  21.010  0.00  0.00    +0.000 A 
ENDBRANCH  30  31
BRANCH  30  38
ATOM     38  O   UNL     1       2.348   7.063  18.523  0.00  0.00    +0.000 OA
ATOM     39  H   UNL     1       2.714   6.163  18.579  0.00  0.00    +0.000 HD
ENDBRANCH  30  38
ENDBRANCH  29  30
ENDBRANCH  27  29
ENDBRANCH   2  27
TORSDOF 7
ENDMDL
MODEL 9
REMARK VINA RESULT:      -7.9      1.414      1.697
REMARK  Name = 
REMARK  9 active torsions:
REMARK  status: ('A' for Active; 'I' for Inactive)
REMARK    1  A    between atoms: C_1  and  C_2
REMARK    2  A    between atoms: C_4  and  C_5
REMARK    3  A    between atoms: C_7  and  C_8
REMARK    4  A    between atoms: C_14  and  C_15
REMARK    5  A    between atoms: C_16  and  N_17
REMARK    6  A    between atoms: N_17  and  C_18
REMARK    7  A    between atoms: C_18  and  C_19
REMARK    8  A    between atoms: C_19  and  O_20
REMARK    9  A    between atoms: C_19  and  C_21
REMARK                            x       y       z     vdW  Elec       q    Type
REMARK                         _______ _______ _______ _____ _____    ______ ____
ROOT
ATOM      1  C   UNL     1       3.153   4.112  18.953  0.00  0.00    +0.000 A 
ATOM      2  C   UNL     1       4.361   3.567  19.237  0.00  0.00    +0.000 A 
ATOM      3  C   UNL     1       4.568   2.150  18.946  0.00  0.00    +0.000 A 
ATOM      4  C   UNL     1       3.606   1.398  18.403  0.00  0.00    +0.000 A 
ATOM      5  N   UNL     1       2.394   1.949  18.104  0.00  0.00    +0.000 N 
ATOM      6  C   UNL     1       2.074   3.264  18.340  0.00  0.00    +0.000 A 
ATOM      7  O   UNL     1       0.953   3.691  18.089  0.00  0.00    +0.000 OA
ATOM      8  H   UNL     1       1.655   1.387  17.694  0.00  0.00    +0.000 HD
ENDROOT
BRANCH   1  16
ATOM      9  C   UNL     1       2.345   9.386  17.328  0.00  0.00    +0.000 C 
ATOM     10  C   UNL     1       1.923   8.841  18.660  0.00  0.00    +0.000 A 
ATOM     11  C   UNL     1       1.110   9.616  19.520  0.00  0.00    +0.000 A 
ATOM     12  C   UNL     1       0.654   9.122  20.753  0.00  0.00    +0.000 A 
ATOM     13  C   UNL     1       1.007   7.837  21.182  0.00  0.00    +0.000 A 
ATOM     14  C   UNL     1       1.792   7.078  20.309  0.00  0.00    +0.000 A 
ATOM     15  N   UNL     1       2.241   5.784  20.382  0.00  0.00    +0.000 N 
ATOM     16  C   UNL     1       2.853   5.475  19.193  0.00  0.00    +0.000 A 
ATOM     17  N   UNL     1       2.974   6.550  18.438  0.00  0.00    +0.000 NA
ATOM     18  C   UNL     1       2.253   7.536  19.082  0.00  0.00    +0.000 A 
ATOM     19  H   UNL     1       2.047   5.139  21.132  0.00  0.00    +0.000 HD
BRANCH  12  20
ATOM     20  C   UNL     1      -0.225   9.953  21.623  0.00  0.00    +0.000 C 
ATOM     21  N   UNL     1      -0.729  11.089  21.202  0.00  0.00    +0.000 NA
ATOM     22  C   UNL     1      -1.488  11.643  22.361  0.00  0.00    +0.000 C 
ATOM     23  C   UNL     1      -0.882  12.985  22.751  0.00  0.00    +0.000 C 
ATOM     24  C   UNL     1      -1.383  10.612  23.493  0.00  0.00    +0.000 C 
ATOM     25  N   UNL     1      -0.548   9.588  22.907  0.00  0.00    +0.000 N 
ATOM     26  H   UNL     1       0.224   9.263  23.479  0.00  0.00    +0.000 HD
ENDBRANCH  12  20
ENDBRANCH   1  16
BRANCH   2  27
ATOM     27  N   UNL     1       5.444   4.221  19.834  0.00  0.00    +0.000 N 
ATOM     28  H   UNL     1       5.283   4.326  20.841  0.00  0.00    +0.000 HD
BRANCH  27  29
ATOM     29  C   UNL     1       5.864   5.536  19.303  0.00  0.00    +0.000 C 
BRANCH  29  30
ATOM     30  C   UNL     1       6.991   5.373  18.248  0.00  0.00    +0.000 C 
BRANCH  30  31
ATOM     31  C   UNL     1       6.441   5.523  16.848  0.00  0.00    +0.000 A 
ATOM     32  C   UNL     1       5.617   6.618  16.544  0.00  0.00    +0.000 A 
ATOM     33  C   UNL     1       5.022   6.736  15.287  0.00  0.00    +0.000 A 
ATOM     34  C   UNL     1       5.246   5.761  14.316  0.00  0.00    +0.000 A 
ATOM     35  C   UNL     1       6.071   4.678  14.602  0.00  0.00    +0.000 A 
ATOM     36 CL   UNL     1       6.337   3.465  13.410  0.00  0.00    +0.000 Cl
ATOM     37  C   UNL     1       6.669   4.555  15.857  0.00  0.00    +0.000 A 
ENDBRANCH  30  31
BRANCH  30  38
ATOM     38  O   UNL     1       7.649   4.108  18.388  0.00  0.00    +0.000 OA
ATOM     39  H   UNL     1       7.863   3.987  19.329  0.00  0.00    +0.000 HD
ENDBRANCH  30  38
ENDBRANCH  29  30
ENDBRANCH  27  29
ENDBRANCH   2  27
TORSDOF 7
ENDMDL
