MODEL 1
REMARK VINA RESULT:      -7.3      0.000      0.000
REMARK  Name = 
REMARK  5 active torsions:
REMARK  status: ('A' for Active; 'I' for Inactive)
REMARK    1  A    between atoms: C_1  and  S_2
REMARK    2  A    between atoms: S_2  and  N_5
REMARK    3  A    between atoms: N_5  and  C_6
REMARK    4  A    between atoms: C_11  and  C_12
REMARK    5  A    between atoms: N_14  and  C_15
REMARK                            x       y       z     vdW  Elec       q    Type
REMARK                         _______ _______ _______ _____ _____    ______ ____
ROOT
ATOM      1  C   UNL     1       5.038   4.072  17.087  0.00  0.00    +0.000 A 
ATOM      2  C   UNL     1       5.582   3.543  15.912  0.00  0.00    +0.000 A 
ATOM      3  C   UNL     1       5.850   4.376  14.821  0.00  0.00    +0.000 A 
ATOM      4  C   UNL     1       5.576   5.739  14.897  0.00  0.00    +0.000 A 
ATOM      5  C   UNL     1       5.050   6.281  16.069  0.00  0.00    +0.000 A 
ATOM      6  C   UNL     1       4.805   5.459  17.181  0.00  0.00    +0.000 A 
ENDROOT
BRANCH   6   7
ATOM      7  C   UNL     1       4.208   6.046  18.410  0.00  0.00    +0.000 C 
ATOM      8  O   UNL     1       4.763   5.814  19.480  0.00  0.00    +0.000 OA
ATOM      9  N   UNL     1       3.075   6.816  18.224  0.00  0.00    +0.000 N 
ATOM     10  H   UNL     1       2.857   7.131  17.280  0.00  0.00    +0.000 HD
BRANCH   9  11
ATOM     11  C   UNL     1       2.242   7.363  19.234  0.00  0.00    +0.000 A 
ATOM     12  C   UNL     1       1.858   6.630  20.361  0.00  0.00    +0.000 A 
ATOM     13  C   UNL     1       1.066   7.210  21.356  0.00  0.00    +0.000 A 
ATOM     14  C   UNL     1       0.646   8.530  21.229  0.00  0.00    +0.000 A 
ATOM     15 CL   UNL     1      -0.292   9.246  22.479  0.00  0.00    +0.000 Cl
ATOM     16  C   UNL     1       0.978   9.268  20.097  0.00  0.00    +0.000 A 
ATOM     17  C   UNL     1       1.761   8.681  19.099  0.00  0.00    +0.000 A 
ATOM     18 CL   UNL     1       2.119   9.618  17.688  0.00  0.00    +0.000 Cl
ENDBRANCH   9  11
ENDBRANCH   6   7
BRANCH   1  19
ATOM     19  N   UNL     1       4.804   3.171  18.193  0.00  0.00    +0.000 N 
ATOM     20  H   UNL     1       5.527   2.433  18.235  0.00  0.00    +0.000 HD
BRANCH  19  22
ATOM     21  C   UNL     1       2.612   2.974  19.742  0.00  0.00    +0.000 C 
ATOM     22  S   UNL     1       3.296   2.388  18.206  0.00  0.00    +0.000 S 
ATOM     23  O   UNL     1       3.560   0.974  18.357  0.00  0.00    +0.000 OA
ATOM     24  O   UNL     1       2.484   2.894  17.119  0.00  0.00    +0.000 OA
ENDBRANCH  19  22
ENDBRANCH   1  19
TORSDOF 4
ENDMDL
MODEL 2
REMARK VINA RESULT:      -7.0      1.287      1.521
REMARK  Name = 
REMARK  5 active torsions:
REMARK  status: ('A' for Active; 'I' for Inactive)
REMARK    1  A    between atoms: C_1  and  S_2
REMARK    2  A    between atoms: S_2  and  N_5
REMARK    3  A    between atoms: N_5  and  C_6
REMARK    4  A    between atoms: C_11  and  C_12
REMARK    5  A    between atoms: N_14  and  C_15
REMARK                            x       y       z     vdW  Elec       q    Type
REMARK                         _______ _______ _______ _____ _____    ______ ____
ROOT
ATOM      1  C   UNL     1       3.900   4.207  17.097  0.00  0.00    +0.000 A 
ATOM      2  C   UNL     1       4.995   3.732  16.369  0.00  0.00    +0.000 A 
ATOM      3  C   UNL     1       5.969   4.618  15.900  0.00  0.00    +0.000 A 
ATOM      4  C   UNL     1       5.854   5.983  16.152  0.00  0.00    +0.000 A 
ATOM      5  C   UNL     1       4.775   6.467  16.891  0.00  0.00    +0.000 A 
ATOM      6  C   UNL     1       3.807   5.582  17.394  0.00  0.00    +0.000 A 
ENDROOT
BRANCH   6   7
ATOM      7  C   UNL     1       2.643   6.119  18.147  0.00  0.00    +0.000 C 
ATOM      8  O   UNL     1       1.547   5.606  17.944  0.00  0.00    +0.000 OA
ATOM      9  N   UNL     1       2.915   7.153  19.025  0.00  0.00    +0.000 N 
ATOM     10  H   UNL     1       3.886   7.322  19.283  0.00  0.00    +0.000 HD
BRANCH   9  11
ATOM     11  C   UNL     1       1.971   7.926  19.748  0.00  0.00    +0.000 A 
ATOM     12  C   UNL     1       1.484   7.529  20.996  0.00  0.00    +0.000 A 
ATOM     13  C   UNL     1       0.580   8.332  21.700  0.00  0.00    +0.000 A 
ATOM     14  C   UNL     1       0.152   9.538  21.156  0.00  0.00    +0.000 A 
ATOM     15 CL   UNL     1      -0.926  10.537  22.048  0.00  0.00    +0.000 Cl
ATOM     16  C   UNL     1       0.588   9.935  19.895  0.00  0.00    +0.000 A 
ATOM     17  C   UNL     1       1.483   9.125  19.191  0.00  0.00    +0.000 A 
ATOM     18 CL   UNL     1       1.971   9.634  17.609  0.00  0.00    +0.000 Cl
ENDBRANCH   9  11
ENDBRANCH   6   7
BRANCH   1  19
ATOM     19  N   UNL     1       2.935   3.245  17.581  0.00  0.00    +0.000 N 
ATOM     20  H   UNL     1       2.033   3.699  17.804  0.00  0.00    +0.000 HD
BRANCH  19  22
ATOM     21  C   UNL     1       1.862   2.287  19.855  0.00  0.00    +0.000 C 
ATOM     22  S   UNL     1       3.397   2.359  18.956  0.00  0.00    +0.000 S 
ATOM     23  O   UNL     1       4.305   3.196  19.708  0.00  0.00    +0.000 OA
ATOM     24  O   UNL     1       3.760   1.014  18.559  0.00  0.00    +0.000 OA
ENDBRANCH  19  22
ENDBRANCH   1  19
TORSDOF 4
ENDMDL
MODEL 3
REMARK VINA RESULT:      -7.0      1.502      1.953
REMARK  Name = 
REMARK  5 active torsions:
REMARK  status: ('A' for Active; 'I' for Inactive)
REMARK    1  A    between atoms: C_1  and  S_2
REMARK    2  A    between atoms: S_2  and  N_5
REMARK    3  A    between atoms: N_5  and  C_6
REMARK    4  A    between atoms: C_11  and  C_12
REMARK    5  A    between atoms: N_14  and  C_15
REMARK                            x       y       z     vdW  Elec       q    Type
REMARK                         _______ _______ _______ _____ _____    ______ ____
ROOT
ATOM      1  C   UNL     1       3.542   4.740  17.736  0.00  0.00    +0.000 A 
ATOM      2  C   UNL     1       4.417   4.352  16.715  0.00  0.00    +0.000 A 
ATOM      3  C   UNL     1       5.150   5.311  16.012  0.00  0.00    +0.000 A 
ATOM      4  C   UNL     1       5.015   6.662  16.321  0.00  0.00    +0.000 A 
ATOM      5  C   UNL     1       4.160   7.060  17.347  0.00  0.00    +0.000 A 
ATOM      6  C   UNL     1       3.441   6.103  18.082  0.00  0.00    +0.000 A 
ENDROOT
BRANCH   6   7
ATOM      7  C   UNL     1       2.504   6.547  19.148  0.00  0.00    +0.000 C 
ATOM      8  O   UNL     1       1.884   5.682  19.759  0.00  0.00    +0.000 OA
ATOM      9  N   UNL     1       2.429   7.912  19.357  0.00  0.00    +0.000 N 
ATOM     10  H   UNL     1       3.161   8.500  18.963  0.00  0.00    +0.000 HD
BRANCH   9  11
ATOM     11  C   UNL     1       1.519   8.595  20.205  0.00  0.00    +0.000 A 
ATOM     12  C   UNL     1       1.478   8.374  21.584  0.00  0.00    +0.000 A 
ATOM     13  C   UNL     1       0.593   9.089  22.397  0.00  0.00    +0.000 A 
ATOM     14  C   UNL     1      -0.264  10.029  21.834  0.00  0.00    +0.000 A 
ATOM     15 CL   UNL     1      -1.317  10.932  22.849  0.00  0.00    +0.000 Cl
ATOM     16  C   UNL     1      -0.273  10.236  20.458  0.00  0.00    +0.000 A 
ATOM     17  C   UNL     1       0.606   9.512  19.647  0.00  0.00    +0.000 A 
ATOM     18 CL   UNL     1       0.535   9.769  17.937  0.00  0.00    +0.000 Cl
ENDBRANCH   9  11
ENDBRANCH   6   7
BRANCH   1  19
ATOM     19  N   UNL     1       2.827   3.705  18.449  0.00  0.00    +0.000 N 
ATOM     20  H   UNL     1       2.123   4.111  19.089  0.00  0.00    +0.000 HD
BRANCH  19  22
ATOM     21  C   UNL     1       2.886   2.620  20.910  0.00  0.00    +0.000 C 
ATOM     22  S   UNL     1       3.782   2.644  19.371  0.00  0.00    +0.000 S 
ATOM     23  O   UNL     1       5.041   3.314  19.609  0.00  0.00    +0.000 OA
ATOM     24  O   UNL     1       3.727   1.320  18.787  0.00  0.00    +0.000 OA
ENDBRANCH  19  22
ENDBRANCH   1  19
TORSDOF 4
ENDMDL
MODEL 4
REMARK VINA RESULT:      -7.0      2.847      3.826
REMARK  Name = 
REMARK  5 active torsions:
REMARK  status: ('A' for Active; 'I' for Inactive)
REMARK    1  A    between atoms: C_1  and  S_2
REMARK    2  A    between atoms: S_2  and  N_5
REMARK    3  A    between atoms: N_5  and  C_6
REMARK    4  A    between atoms: C_11  and  C_12
REMARK    5  A    between atoms: N_14  and  C_15
REMARK                            x       y       z     vdW  Elec       q    Type
REMARK                         _______ _______ _______ _____ _____    ______ ____
ROOT
ATOM      1  C   UNL     1       4.377   4.664  18.562  0.00  0.00    +0.000 A 
ATOM      2  C   UNL     1       4.441   3.269  18.630  0.00  0.00    +0.000 A 
ATOM      3  C   UNL     1       3.326   2.494  18.297  0.00  0.00    +0.000 A 
ATOM      4  C   UNL     1       2.141   3.108  17.894  0.00  0.00    +0.000 A 
ATOM      5  C   UNL     1       2.072   4.498  17.805  0.00  0.00    +0.000 A 
ATOM      6  C   UNL     1       3.195   5.284  18.109  0.00  0.00    +0.000 A 
ENDROOT
BRANCH   6   7
ATOM      7  C   UNL     1       3.092   6.766  18.045  0.00  0.00    +0.000 C 
ATOM      8  O   UNL     1       3.977   7.374  17.451  0.00  0.00    +0.000 OA
ATOM      9  N   UNL     1       1.987   7.323  18.664  0.00  0.00    +0.000 N 
ATOM     10  H   UNL     1       1.211   6.709  18.905  0.00  0.00    +0.000 HD
BRANCH   9  11
ATOM     11  C   UNL     1       1.731   8.703  18.868  0.00  0.00    +0.000 A 
ATOM     12  C   UNL     1       2.050   9.669  17.909  0.00  0.00    +0.000 A 
ATOM     13  C   UNL     1       1.752  11.018  18.126  0.00  0.00    +0.000 A 
ATOM     14  C   UNL     1       1.136  11.412  19.310  0.00  0.00    +0.000 A 
ATOM     15 CL   UNL     1       0.736  13.067  19.547  0.00  0.00    +0.000 Cl
ATOM     16  C   UNL     1       0.848  10.477  20.298  0.00  0.00    +0.000 A 
ATOM     17  C   UNL     1       1.157   9.131  20.082  0.00  0.00    +0.000 A 
ATOM     18 CL   UNL     1       0.819   8.004  21.352  0.00  0.00    +0.000 Cl
ENDBRANCH   9  11
ENDBRANCH   6   7
BRANCH   1  19
ATOM     19  N   UNL     1       5.567   5.416  18.894  0.00  0.00    +0.000 N 
ATOM     20  H   UNL     1       5.354   6.422  19.009  0.00  0.00    +0.000 HD
BRANCH  19  22
ATOM     21  C   UNL     1       7.507   6.959  17.846  0.00  0.00    +0.000 C 
ATOM     22  S   UNL     1       6.848   5.306  17.783  0.00  0.00    +0.000 S 
ATOM     23  O   UNL     1       6.255   5.122  16.477  0.00  0.00    +0.000 OA
ATOM     24  O   UNL     1       7.849   4.393  18.295  0.00  0.00    +0.000 OA
ENDBRANCH  19  22
ENDBRANCH   1  19
TORSDOF 4
ENDMDL
MODEL 5
REMARK VINA RESULT:      -6.9      1.395      1.788
REMARK  Name = 
REMARK  5 active torsions:
REMARK  status: ('A' for Active; 'I' for Inactive)
REMARK    1  A    between atoms: C_1  and  S_2
REMARK    2  A    between atoms: S_2  and  N_5
REMARK    3  A    between atoms: N_5  and  C_6
REMARK    4  A    between atoms: C_11  and  C_12
REMARK    5  A    between atoms: N_14  and  C_15
REMARK                            x       y       z     vdW  Elec       q    Type
REMARK                         _______ _______ _______ _____ _____    ______ ____
ROOT
ATOM      1  C   UNL     1       3.950   4.797  18.184  0.00  0.00    +0.000 A 
ATOM      2  C   UNL     1       4.888   4.400  17.225  0.00  0.00    +0.000 A 
ATOM      3  C   UNL     1       5.355   5.313  16.275  0.00  0.00    +0.000 A 
ATOM      4  C   UNL     1       4.886   6.625  16.274  0.00  0.00    +0.000 A 
ATOM      5  C   UNL     1       3.964   7.036  17.236  0.00  0.00    +0.000 A 
ATOM      6  C   UNL     1       3.512   6.136  18.214  0.00  0.00    +0.000 A 
ENDROOT
BRANCH   6   7
ATOM      7  C   UNL     1       2.499   6.581  19.208  0.00  0.00    +0.000 C 
ATOM      8  O   UNL     1       1.759   5.728  19.688  0.00  0.00    +0.000 OA
ATOM      9  N   UNL     1       2.497   7.931  19.507  0.00  0.00    +0.000 N 
ATOM     10  H   UNL     1       3.306   8.486  19.233  0.00  0.00    +0.000 HD
BRANCH   9  11
ATOM     11  C   UNL     1       1.550   8.625  20.304  0.00  0.00    +0.000 A 
ATOM     12  C   UNL     1       1.483   8.462  21.691  0.00  0.00    +0.000 A 
ATOM     13  C   UNL     1       0.563   9.188  22.453  0.00  0.00    +0.000 A 
ATOM     14  C   UNL     1      -0.305  10.080  21.831  0.00  0.00    +0.000 A 
ATOM     15 CL   UNL     1      -1.404  10.998  22.782  0.00  0.00    +0.000 Cl
ATOM     16  C   UNL     1      -0.289  10.228  20.447  0.00  0.00    +0.000 A 
ATOM     17  C   UNL     1       0.627   9.493  19.688  0.00  0.00    +0.000 A 
ATOM     18 CL   UNL     1       0.588   9.675  17.967  0.00  0.00    +0.000 Cl
ENDBRANCH   9  11
ENDBRANCH   6   7
BRANCH   1  19
ATOM     19  N   UNL     1       3.520   3.820  19.159  0.00  0.00    +0.000 N 
ATOM     20  H   UNL     1       4.328   3.397  19.647  0.00  0.00    +0.000 HD
BRANCH  19  22
ATOM     21  C   UNL     1       1.495   2.230  19.942  0.00  0.00    +0.000 C 
ATOM     22  S   UNL     1       2.577   2.539  18.561  0.00  0.00    +0.000 S 
ATOM     23  O   UNL     1       3.455   1.398  18.431  0.00  0.00    +0.000 OA
ATOM     24  O   UNL     1       1.778   3.011  17.449  0.00  0.00    +0.000 OA
ENDBRANCH  19  22
ENDBRANCH   1  19
TORSDOF 4
ENDMDL
MODEL 6
REMARK VINA RESULT:      -6.9      1.781      2.376
REMARK  Name = 
REMARK  5 active torsions:
REMARK  status: ('A' for Active; 'I' for Inactive)
REMARK    1  A    between atoms: C_1  and  S_2
REMARK    2  A    between atoms: S_2  and  N_5
REMARK    3  A    between atoms: N_5  and  C_6
REMARK    4  A    between atoms: C_11  and  C_12
REMARK    5  A    between atoms: N_14  and  C_15
REMARK                            x       y       z     vdW  Elec       q    Type
REMARK                         _______ _______ _______ _____ _____    ______ ____
ROOT
ATOM      1  C   UNL     1       3.688   4.937  18.563  0.00  0.00    +0.000 A 
ATOM      2  C   UNL     1       4.580   4.516  17.572  0.00  0.00    +0.000 A 
ATOM      3  C   UNL     1       5.032   5.415  16.601  0.00  0.00    +0.000 A 
ATOM      4  C   UNL     1       4.595   6.738  16.614  0.00  0.00    +0.000 A 
ATOM      5  C   UNL     1       3.719   7.174  17.607  0.00  0.00    +0.000 A 
ATOM      6  C   UNL     1       3.283   6.287  18.605  0.00  0.00    +0.000 A 
ENDROOT
BRANCH   6   7
ATOM      7  C   UNL     1       2.319   6.758  19.635  0.00  0.00    +0.000 C 
ATOM      8  O   UNL     1       1.699   5.908  20.266  0.00  0.00    +0.000 OA
ATOM      9  N   UNL     1       2.222   8.129  19.790  0.00  0.00    +0.000 N 
ATOM     10  H   UNL     1       2.954   8.712  19.388  0.00  0.00    +0.000 HD
BRANCH   9  11
ATOM     11  C   UNL     1       1.285   8.831  20.593  0.00  0.00    +0.000 A 
ATOM     12  C   UNL     1       1.253   8.699  21.984  0.00  0.00    +0.000 A 
ATOM     13  C   UNL     1       0.341   9.432  22.750  0.00  0.00    +0.000 A 
ATOM     14  C   UNL     1      -0.551  10.299  22.128  0.00  0.00    +0.000 A 
ATOM     15 CL   UNL     1      -1.639  11.227  23.083  0.00  0.00    +0.000 Cl
ATOM     16  C   UNL     1      -0.568  10.415  20.742  0.00  0.00    +0.000 A 
ATOM     17  C   UNL     1       0.338   9.673  19.979  0.00  0.00    +0.000 A 
ATOM     18 CL   UNL     1       0.258   9.815  18.255  0.00  0.00    +0.000 Cl
ENDBRANCH   9  11
ENDBRANCH   6   7
BRANCH   1  19
ATOM     19  N   UNL     1       3.272   3.974  19.558  0.00  0.00    +0.000 N 
ATOM     20  H   UNL     1       4.086   3.497  19.981  0.00  0.00    +0.000 HD
BRANCH  19  22
ATOM     21  C   UNL     1       3.361   1.534  18.427  0.00  0.00    +0.000 C 
ATOM     22  S   UNL     1       2.213   2.760  19.018  0.00  0.00    +0.000 S 
ATOM     23  O   UNL     1       1.515   3.294  17.870  0.00  0.00    +0.000 OA
ATOM     24  O   UNL     1       1.497   2.210  20.150  0.00  0.00    +0.000 OA
ENDBRANCH  19  22
ENDBRANCH   1  19
TORSDOF 4
ENDMDL
MODEL 7
REMARK VINA RESULT:      -6.8      2.355      4.197
REMARK  Name = 
REMARK  5 active torsions:
REMARK  status: ('A' for Active; 'I' for Inactive)
REMARK    1  A    between atoms: C_1  and  S_2
REMARK    2  A    between atoms: S_2  and  N_5
REMARK    3  A    between atoms: N_5  and  C_6
REMARK    4  A    between atoms: C_11  and  C_12
REMARK    5  A    between atoms: N_14  and  C_15
REMARK                            x       y       z     vdW  Elec       q    Type
REMARK                         _______ _______ _______ _____ _____    ______ ____
ROOT
ATOM      1  C   UNL     1       3.902   3.779  19.232  0.00  0.00    +0.000 A 
ATOM      2  C   UNL     1       4.319   2.605  19.868  0.00  0.00    +0.000 A 
ATOM      3  C   UNL     1       3.660   2.151  21.014  0.00  0.00    +0.000 A 
ATOM      4  C   UNL     1       2.583   2.866  21.533  0.00  0.00    +0.000 A 
ATOM      5  C   UNL     1       2.148   4.029  20.898  0.00  0.00    +0.000 A 
ATOM      6  C   UNL     1       2.783   4.478  19.729  0.00  0.00    +0.000 A 
ENDROOT
BRANCH   6   7
ATOM      7  C   UNL     1       2.330   5.740  19.086  0.00  0.00    +0.000 C 
ATOM      8  O   UNL     1       2.155   5.730  17.871  0.00  0.00    +0.000 OA
ATOM      9  N   UNL     1       2.138   6.816  19.934  0.00  0.00    +0.000 N 
ATOM     10  H   UNL     1       2.080   6.635  20.934  0.00  0.00    +0.000 HD
BRANCH   9  11
ATOM     11  C   UNL     1       1.850   8.154  19.560  0.00  0.00    +0.000 A 
ATOM     12  C   UNL     1       2.253   8.686  18.332  0.00  0.00    +0.000 A 
ATOM     13  C   UNL     1       1.923   9.998  17.978  0.00  0.00    +0.000 A 
ATOM     14  C   UNL     1       1.190  10.791  18.855  0.00  0.00    +0.000 A 
ATOM     15 CL   UNL     1       0.753  12.388  18.391  0.00  0.00    +0.000 Cl
ATOM     16  C   UNL     1       0.815  10.299  20.101  0.00  0.00    +0.000 A 
ATOM     17  C   UNL     1       1.156   8.991  20.455  0.00  0.00    +0.000 A 
ATOM     18 CL   UNL     1       0.706   8.430  22.030  0.00  0.00    +0.000 Cl
ENDBRANCH   9  11
ENDBRANCH   6   7
BRANCH   1  19
ATOM     19  N   UNL     1       4.602   4.191  18.035  0.00  0.00    +0.000 N 
ATOM     20  H   UNL     1       4.862   3.375  17.455  0.00  0.00    +0.000 HD
BRANCH  19  22
ATOM     21  C   UNL     1       5.639   6.584  17.375  0.00  0.00    +0.000 C 
ATOM     22  S   UNL     1       6.018   5.098  18.279  0.00  0.00    +0.000 S 
ATOM     23  O   UNL     1       7.079   4.415  17.572  0.00  0.00    +0.000 OA
ATOM     24  O   UNL     1       6.138   5.432  19.683  0.00  0.00    +0.000 OA
ENDBRANCH  19  22
ENDBRANCH   1  19
TORSDOF 4
ENDMDL
MODEL 8
REMARK VINA RESULT:      -6.8      1.874      2.485
REMARK  Name = 
REMARK  5 active torsions:
REMARK  status: ('A' for Active; 'I' for Inactive)
REMARK    1  A    between atoms: C_1  and  S_2
REMARK    2  A    between atoms: S_2  and  N_5
REMARK    3  A    between atoms: N_5  and  C_6
REMARK    4  A    between atoms: C_11  and  C_12
REMARK    5  A    between atoms: N_14  and  C_15
REMARK                            x       y       z     vdW  Elec       q    Type
REMARK                         _______ _______ _______ _____ _____    ______ ____
ROOT
ATOM      1  C   UNL     1       3.646   4.916  18.904  0.00  0.00    +0.000 A 
ATOM      2  C   UNL     1       4.534   4.444  17.933  0.00  0.00    +0.000 A 
ATOM      3  C   UNL     1       4.933   5.271  16.879  0.00  0.00    +0.000 A 
ATOM      4  C   UNL     1       4.446   6.573  16.788  0.00  0.00    +0.000 A 
ATOM      5  C   UNL     1       3.574   7.061  17.760  0.00  0.00    +0.000 A 
ATOM      6  C   UNL     1       3.191   6.249  18.840  0.00  0.00    +0.000 A 
ENDROOT
BRANCH   6   7
ATOM      7  C   UNL     1       2.230   6.771  19.847  0.00  0.00    +0.000 C 
ATOM      8  O   UNL     1       1.612   5.954  20.523  0.00  0.00    +0.000 OA
ATOM      9  N   UNL     1       2.131   8.148  19.932  0.00  0.00    +0.000 N 
ATOM     10  H   UNL     1       2.862   8.710  19.498  0.00  0.00    +0.000 HD
BRANCH   9  11
ATOM     11  C   UNL     1       1.197   8.889  20.701  0.00  0.00    +0.000 A 
ATOM     12  C   UNL     1       1.125   8.780  22.092  0.00  0.00    +0.000 A 
ATOM     13  C   UNL     1       0.217   9.550  22.824  0.00  0.00    +0.000 A 
ATOM     14  C   UNL     1      -0.632  10.435  22.167  0.00  0.00    +0.000 A 
ATOM     15 CL   UNL     1      -1.715  11.409  23.081  0.00  0.00    +0.000 Cl
ATOM     16  C   UNL     1      -0.611  10.531  20.779  0.00  0.00    +0.000 A 
ATOM     17  C   UNL     1       0.292   9.751  20.050  0.00  0.00    +0.000 A 
ATOM     18 CL   UNL     1       0.260   9.870  18.323  0.00  0.00    +0.000 Cl
ENDBRANCH   9  11
ENDBRANCH   6   7
BRANCH   1  19
ATOM     19  N   UNL     1       3.287   4.027  19.987  0.00  0.00    +0.000 N 
ATOM     20  H   UNL     1       4.126   3.681  20.481  0.00  0.00    +0.000 HD
BRANCH  19  22
ATOM     21  C   UNL     1       1.311   3.344  18.293  0.00  0.00    +0.000 C 
ATOM     22  S   UNL     1       2.368   2.664  19.554  0.00  0.00    +0.000 S 
ATOM     23  O   UNL     1       1.538   2.341  20.693  0.00  0.00    +0.000 OA
ATOM     24  O   UNL     1       3.235   1.677  18.944  0.00  0.00    +0.000 OA
ENDBRANCH  19  22
ENDBRANCH   1  19
TORSDOF 4
ENDMDL
MODEL 9
REMARK VINA RESULT:      -6.7      1.769      2.233
REMARK  Name = 
REMARK  5 active torsions:
REMARK  status: ('A' for Active; 'I' for Inactive)
REMARK    1  A    between atoms: C_1  and  S_2
REMARK    2  A    between atoms: S_2  and  N_5
REMARK    3  A    between atoms: N_5  and  C_6
REMARK    4  A    between atoms: C_11  and  C_12
REMARK    5  A    between atoms: N_14  and  C_15
REMARK                            x       y       z     vdW  Elec       q    Type
REMARK                         _______ _______ _______ _____ _____    ______ ____
ROOT
ATOM      1  C   UNL     1       5.173   4.755  18.115  0.00  0.00    +0.000 A 
ATOM      2  C   UNL     1       6.353   4.188  17.624  0.00  0.00    +0.000 A 
ATOM      3  C   UNL     1       6.832   4.539  16.358  0.00  0.00    +0.000 A 
ATOM      4  C   UNL     1       6.135   5.456  15.575  0.00  0.00    +0.000 A 
ATOM      5  C   UNL     1       4.966   6.042  16.061  0.00  0.00    +0.000 A 
ATOM      6  C   UNL     1       4.493   5.720  17.343  0.00  0.00    +0.000 A 
ENDROOT
BRANCH   6   7
ATOM      7  C   UNL     1       3.224   6.324  17.830  0.00  0.00    +0.000 C 
ATOM      8  O   UNL     1       2.221   5.618  17.833  0.00  0.00    +0.000 OA
ATOM      9  N   UNL     1       3.303   7.640  18.249  0.00  0.00    +0.000 N 
ATOM     10  H   UNL     1       4.225   8.034  18.426  0.00  0.00    +0.000 HD
BRANCH   9  11
ATOM     11  C   UNL     1       2.222   8.482  18.619  0.00  0.00    +0.000 A 
ATOM     12  C   UNL     1       1.801   9.547  17.818  0.00  0.00    +0.000 A 
ATOM     13  C   UNL     1       0.709  10.336  18.194  0.00  0.00    +0.000 A 
ATOM     14  C   UNL     1       0.032  10.067  19.379  0.00  0.00    +0.000 A 
ATOM     15 CL   UNL     1      -1.335  11.017  19.809  0.00  0.00    +0.000 Cl
ATOM     16  C   UNL     1       0.459   9.040  20.215  0.00  0.00    +0.000 A 
ATOM     17  C   UNL     1       1.557   8.260  19.841  0.00  0.00    +0.000 A 
ATOM     18 CL   UNL     1       2.081   7.017  20.927  0.00  0.00    +0.000 Cl
ENDBRANCH   9  11
ENDBRANCH   6   7
BRANCH   1  19
ATOM     19  N   UNL     1       4.736   4.377  19.440  0.00  0.00    +0.000 N 
ATOM     20  H   UNL     1       5.517   4.416  20.117  0.00  0.00    +0.000 HD
BRANCH  19  22
ATOM     21  C   UNL     1       2.664   3.172  20.662  0.00  0.00    +0.000 C 
ATOM     22  S   UNL     1       4.036   2.835  19.579  0.00  0.00    +0.000 S 
ATOM     23  O   UNL     1       4.977   2.013  20.307  0.00  0.00    +0.000 OA
ATOM     24  O   UNL     1       3.515   2.428  18.291  0.00  0.00    +0.000 OA
ENDBRANCH  19  22
ENDBRANCH   1  19
TORSDOF 4
ENDMDL
