MODEL 1
REMARK VINA RESULT:      -7.4      0.000      0.000
REMARK  Name = 
REMARK  6 active torsions:
REMARK  status: ('A' for Active; 'I' for Inactive)
REMARK    1  A    between atoms: C_1  and  C_2
REMARK    2  A    between atoms: C_2  and  C_3
REMARK    3  A    between atoms: C_2  and  C_4
REMARK    4  A    between atoms: N_11  and  C_12
REMARK    5  A    between atoms: C_12  and  C_13
REMARK    6  A    between atoms: N_15  and  C_16
REMARK                            x       y       z     vdW  Elec       q    Type
REMARK                         _______ _______ _______ _____ _____    ______ ____
ROOT
ATOM      1  C   UNL     1       2.856   3.861  19.265  0.00  0.00    +0.000 A 
ATOM      2  N   UNL     1       2.985   2.831  18.409  0.00  0.00    +0.000 NA
ATOM      3  C   UNL     1       3.988   2.914  17.513  0.00  0.00    +0.000 A 
ATOM      4  C   UNL     1       4.849   3.984  17.432  0.00  0.00    +0.000 A 
ATOM      5  C   UNL     1       4.656   4.986  18.368  0.00  0.00    +0.000 A 
ATOM      6  N   UNL     1       3.661   4.939  19.280  0.00  0.00    +0.000 NA
ATOM      7  C   UNL     1       5.501   6.242  18.346  0.00  0.00    +0.000 C 
ATOM      8  N   UNL     1       6.668   6.240  17.414  0.00  0.00    +0.000 NA
ATOM      9  C   UNL     1       6.319   5.539  16.160  0.00  0.00    +0.000 C 
ATOM     10  C   UNL     1       5.951   4.075  16.427  0.00  0.00    +0.000 C 
ENDROOT
BRANCH   1  12
ATOM     11  C   UNL     1       2.059   2.872  21.422  0.00  0.00    +0.000 C 
ATOM     12  C   UNL     1       1.719   3.805  20.261  0.00  0.00    +0.000 C 
ATOM     13  C   UNL     1       1.363   5.202  20.770  0.00  0.00    +0.000 C 
ENDBRANCH   1  12
BRANCH   8  14
ATOM     14  C   UNL     1       7.028   7.642  17.068  0.00  0.00    +0.000 C 
BRANCH  14  15
ATOM     15  C   UNL     1       8.054   8.256  18.020  0.00  0.00    +0.000 C 
ATOM     16  O   UNL     1       8.598   7.545  18.859  0.00  0.00    +0.000 OA
ATOM     17  N   UNL     1       8.219   9.622  17.878  0.00  0.00    +0.000 N 
ATOM     18  H   UNL     1       7.580  10.081  17.235  0.00  0.00    +0.000 HD
BRANCH  17  19
ATOM     19  C   UNL     1       9.152  10.412  18.586  0.00  0.00    +0.000 A 
ATOM     20  C   UNL     1       9.150  10.513  19.975  0.00  0.00    +0.000 A 
ATOM     21  C   UNL     1      10.060  11.356  20.584  0.00  0.00    +0.000 A 
ATOM     22  N   UNL     1      10.969  12.087  19.909  0.00  0.00    +0.000 NA
ATOM     23  C   UNL     1      10.977  11.947  18.567  0.00  0.00    +0.000 A 
ATOM     24  C   UNL     1      10.112  11.118  17.865  0.00  0.00    +0.000 A 
ENDBRANCH  17  19
ENDBRANCH  14  15
ENDBRANCH   8  14
TORSDOF 4
ENDMDL
MODEL 2
REMARK VINA RESULT:      -7.4      4.348      7.029
REMARK  Name = 
REMARK  6 active torsions:
REMARK  status: ('A' for Active; 'I' for Inactive)
REMARK    1  A    between atoms: C_1  and  C_2
REMARK    2  A    between atoms: C_2  and  C_3
REMARK    3  A    between atoms: C_2  and  C_4
REMARK    4  A    between atoms: N_11  and  C_12
REMARK    5  A    between atoms: C_12  and  C_13
REMARK    6  A    between atoms: N_15  and  C_16
REMARK                            x       y       z     vdW  Elec       q    Type
REMARK                         _______ _______ _______ _____ _____    ______ ____
ROOT
ATOM      1  C   UNL     1       6.464   4.178  14.485  0.00  0.00    +0.000 A 
ATOM      2  N   UNL     1       7.459   5.032  14.789  0.00  0.00    +0.000 NA
ATOM      3  C   UNL     1       7.523   5.453  16.066  0.00  0.00    +0.000 A 
ATOM      4  C   UNL     1       6.629   5.068  17.040  0.00  0.00    +0.000 A 
ATOM      5  C   UNL     1       5.654   4.170  16.642  0.00  0.00    +0.000 A 
ATOM      6  N   UNL     1       5.557   3.726  15.370  0.00  0.00    +0.000 NA
ATOM      7  C   UNL     1       4.578   3.715  17.605  0.00  0.00    +0.000 C 
ATOM      8  N   UNL     1       4.754   4.116  19.033  0.00  0.00    +0.000 NA
ATOM      9  C   UNL     1       5.318   5.479  19.115  0.00  0.00    +0.000 C 
ATOM     10  C   UNL     1       6.698   5.550  18.452  0.00  0.00    +0.000 C 
ENDROOT
BRANCH   1  12
ATOM     11  C   UNL     1       4.900   3.725  12.583  0.00  0.00    +0.000 C 
ATOM     12  C   UNL     1       6.355   3.714  13.050  0.00  0.00    +0.000 C 
ATOM     13  C   UNL     1       7.230   4.563  12.127  0.00  0.00    +0.000 C 
ENDBRANCH   1  12
BRANCH   8  14
ATOM     14  C   UNL     1       3.429   4.128  19.711  0.00  0.00    +0.000 C 
BRANCH  14  15
ATOM     15  C   UNL     1       2.546   5.304  19.294  0.00  0.00    +0.000 C 
ATOM     16  O   UNL     1       1.829   5.197  18.303  0.00  0.00    +0.000 OA
ATOM     17  N   UNL     1       2.704   6.440  20.067  0.00  0.00    +0.000 N 
ATOM     18  H   UNL     1       3.450   6.406  20.756  0.00  0.00    +0.000 HD
BRANCH  17  19
ATOM     19  C   UNL     1       1.959   7.632  19.932  0.00  0.00    +0.000 A 
ATOM     20  C   UNL     1       1.962   8.393  18.765  0.00  0.00    +0.000 A 
ATOM     21  C   UNL     1       1.253   9.578  18.739  0.00  0.00    +0.000 A 
ATOM     22  N   UNL     1       0.538  10.044  19.782  0.00  0.00    +0.000 NA
ATOM     23  C   UNL     1       0.520   9.275  20.890  0.00  0.00    +0.000 A 
ATOM     24  C   UNL     1       1.189   8.064  21.009  0.00  0.00    +0.000 A 
ENDBRANCH  17  19
ENDBRANCH  14  15
ENDBRANCH   8  14
TORSDOF 4
ENDMDL
MODEL 3
REMARK VINA RESULT:      -7.2      4.503      6.940
REMARK  Name = 
REMARK  6 active torsions:
REMARK  status: ('A' for Active; 'I' for Inactive)
REMARK    1  A    between atoms: C_1  and  C_2
REMARK    2  A    between atoms: C_2  and  C_3
REMARK    3  A    between atoms: C_2  and  C_4
REMARK    4  A    between atoms: N_11  and  C_12
REMARK    5  A    between atoms: C_12  and  C_13
REMARK    6  A    between atoms: N_15  and  C_16
REMARK                            x       y       z     vdW  Elec       q    Type
REMARK                         _______ _______ _______ _____ _____    ______ ____
ROOT
ATOM      1  C   UNL     1       6.322   4.523  14.291  0.00  0.00    +0.000 A 
ATOM      2  N   UNL     1       7.453   5.121  14.706  0.00  0.00    +0.000 NA
ATOM      3  C   UNL     1       7.618   5.240  16.038  0.00  0.00    +0.000 A 
ATOM      4  C   UNL     1       6.696   4.801  16.961  0.00  0.00    +0.000 A 
ATOM      5  C   UNL     1       5.574   4.177  16.442  0.00  0.00    +0.000 A 
ATOM      6  N   UNL     1       5.373   4.040  15.114  0.00  0.00    +0.000 NA
ATOM      7  C   UNL     1       4.461   3.702  17.352  0.00  0.00    +0.000 C 
ATOM      8  N   UNL     1       4.737   3.751  18.819  0.00  0.00    +0.000 NA
ATOM      9  C   UNL     1       5.524   4.957  19.151  0.00  0.00    +0.000 C 
ATOM     10  C   UNL     1       6.880   4.948  18.436  0.00  0.00    +0.000 C 
ENDROOT
BRANCH   1  12
ATOM     11  C   UNL     1       7.420   4.540  12.041  0.00  0.00    +0.000 C 
ATOM     12  C   UNL     1       6.101   4.403  12.799  0.00  0.00    +0.000 C 
ATOM     13  C   UNL     1       5.404   3.088  12.449  0.00  0.00    +0.000 C 
ENDBRANCH   1  12
BRANCH   8  14
ATOM     14  C   UNL     1       3.450   3.827  19.562  0.00  0.00    +0.000 C 
BRANCH  14  15
ATOM     15  C   UNL     1       2.574   5.007  19.139  0.00  0.00    +0.000 C 
ATOM     16  O   UNL     1       1.672   4.826  18.326  0.00  0.00    +0.000 OA
ATOM     17  N   UNL     1       2.949   6.222  19.685  0.00  0.00    +0.000 N 
ATOM     18  H   UNL     1       3.811   6.218  20.223  0.00  0.00    +0.000 HD
BRANCH  17  19
ATOM     19  C   UNL     1       2.264   7.445  19.508  0.00  0.00    +0.000 A 
ATOM     20  C   UNL     1       1.568   8.072  20.538  0.00  0.00    +0.000 A 
ATOM     21  C   UNL     1       0.875   9.235  20.264  0.00  0.00    +0.000 A 
ATOM     22  N   UNL     1       0.841   9.815  19.047  0.00  0.00    +0.000 NA
ATOM     23  C   UNL     1       1.552   9.210  18.073  0.00  0.00    +0.000 A 
ATOM     24  C   UNL     1       2.288   8.047  18.253  0.00  0.00    +0.000 A 
ENDBRANCH  17  19
ENDBRANCH  14  15
ENDBRANCH   8  14
TORSDOF 4
ENDMDL
MODEL 4
REMARK VINA RESULT:      -7.2      5.665      8.713
REMARK  Name = 
REMARK  6 active torsions:
REMARK  status: ('A' for Active; 'I' for Inactive)
REMARK    1  A    between atoms: C_1  and  C_2
REMARK    2  A    between atoms: C_2  and  C_3
REMARK    3  A    between atoms: C_2  and  C_4
REMARK    4  A    between atoms: N_11  and  C_12
REMARK    5  A    between atoms: C_12  and  C_13
REMARK    6  A    between atoms: N_15  and  C_16
REMARK                            x       y       z     vdW  Elec       q    Type
REMARK                         _______ _______ _______ _____ _____    ______ ____
ROOT
ATOM      1  C   UNL     1       5.016   5.559  17.249  0.00  0.00    +0.000 A 
ATOM      2  N   UNL     1       4.836   4.684  18.256  0.00  0.00    +0.000 NA
ATOM      3  C   UNL     1       3.884   4.992  19.158  0.00  0.00    +0.000 A 
ATOM      4  C   UNL     1       3.122   6.137  19.100  0.00  0.00    +0.000 A 
ATOM      5  C   UNL     1       3.361   6.966  18.017  0.00  0.00    +0.000 A 
ATOM      6  N   UNL     1       4.308   6.692  17.093  0.00  0.00    +0.000 NA
ATOM      7  C   UNL     1       2.629   8.284  17.872  0.00  0.00    +0.000 C 
ATOM      8  N   UNL     1       1.508   8.528  18.828  0.00  0.00    +0.000 NA
ATOM      9  C   UNL     1       1.849   7.993  20.163  0.00  0.00    +0.000 C 
ATOM     10  C   UNL     1       2.077   6.478  20.111  0.00  0.00    +0.000 C 
ENDROOT
BRANCH   1  12
ATOM     11  C   UNL     1       7.305   4.600  16.916  0.00  0.00    +0.000 C 
ATOM     12  C   UNL     1       6.099   5.250  16.239  0.00  0.00    +0.000 C 
ATOM     13  C   UNL     1       5.565   4.366  15.111  0.00  0.00    +0.000 C 
ENDBRANCH   1  12
BRANCH   8  14
ATOM     14  C   UNL     1       1.286   9.993  18.966  0.00  0.00    +0.000 C 
BRANCH  14  15
ATOM     15  C   UNL     1      -0.189  10.390  18.901  0.00  0.00    +0.000 C 
ATOM     16  O   UNL     1      -0.779  10.686  19.936  0.00  0.00    +0.000 OA
ATOM     17  N   UNL     1      -0.749  10.305  17.639  0.00  0.00    +0.000 N 
ATOM     18  H   UNL     1      -0.158   9.899  16.919  0.00  0.00    +0.000 HD
BRANCH  17  19
ATOM     19  C   UNL     1      -2.068  10.681  17.302  0.00  0.00    +0.000 A 
ATOM     20  C   UNL     1      -2.936  11.277  18.213  0.00  0.00    +0.000 A 
ATOM     21  C   UNL     1      -4.230  11.558  17.818  0.00  0.00    +0.000 A 
ATOM     22  N   UNL     1      -4.706  11.298  16.583  0.00  0.00    +0.000 NA
ATOM     23  C   UNL     1      -3.839  10.753  15.706  0.00  0.00    +0.000 A 
ATOM     24  C   UNL     1      -2.518  10.446  16.005  0.00  0.00    +0.000 A 
ENDBRANCH  17  19
ENDBRANCH  14  15
ENDBRANCH   8  14
TORSDOF 4
ENDMDL
MODEL 5
REMARK VINA RESULT:      -7.1      5.718      8.573
REMARK  Name = 
REMARK  6 active torsions:
REMARK  status: ('A' for Active; 'I' for Inactive)
REMARK    1  A    between atoms: C_1  and  C_2
REMARK    2  A    between atoms: C_2  and  C_3
REMARK    3  A    between atoms: C_2  and  C_4
REMARK    4  A    between atoms: N_11  and  C_12
REMARK    5  A    between atoms: C_12  and  C_13
REMARK    6  A    between atoms: N_15  and  C_16
REMARK                            x       y       z     vdW  Elec       q    Type
REMARK                         _______ _______ _______ _____ _____    ______ ____
ROOT
ATOM      1  C   UNL     1       2.852   4.625  19.724  0.00  0.00    +0.000 A 
ATOM      2  N   UNL     1       3.379   4.720  18.489  0.00  0.00    +0.000 NA
ATOM      3  C   UNL     1       3.291   5.922  17.888  0.00  0.00    +0.000 A 
ATOM      4  C   UNL     1       2.689   7.018  18.463  0.00  0.00    +0.000 A 
ATOM      5  C   UNL     1       2.196   6.833  19.743  0.00  0.00    +0.000 A 
ATOM      6  N   UNL     1       2.265   5.643  20.378  0.00  0.00    +0.000 NA
ATOM      7  C   UNL     1       1.461   7.946  20.460  0.00  0.00    +0.000 C 
ATOM      8  N   UNL     1       1.487   9.287  19.804  0.00  0.00    +0.000 NA
ATOM      9  C   UNL     1       1.396   9.142  18.336  0.00  0.00    +0.000 C 
ATOM     10  C   UNL     1       2.584   8.345  17.784  0.00  0.00    +0.000 C 
ENDROOT
BRANCH   1  12
ATOM     11  C   UNL     1       1.537   2.613  20.426  0.00  0.00    +0.000 C 
ATOM     12  C   UNL     1       2.913   3.277  20.408  0.00  0.00    +0.000 C 
ATOM     13  C   UNL     1       3.949   2.368  19.745  0.00  0.00    +0.000 C 
ENDBRANCH   1  12
BRANCH   8  14
ATOM     14  C   UNL     1       0.314  10.083  20.257  0.00  0.00    +0.000 C 
BRANCH  14  15
ATOM     15  C   UNL     1      -0.474  10.710  19.106  0.00  0.00    +0.000 C 
ATOM     16  O   UNL     1      -0.104  11.781  18.637  0.00  0.00    +0.000 OA
ATOM     17  N   UNL     1      -1.611  10.009  18.745  0.00  0.00    +0.000 N 
ATOM     18  H   UNL     1      -1.852   9.220  19.337  0.00  0.00    +0.000 HD
BRANCH  17  19
ATOM     19  C   UNL     1      -2.469  10.339  17.672  0.00  0.00    +0.000 A 
ATOM     20  C   UNL     1      -2.208   9.957  16.358  0.00  0.00    +0.000 A 
ATOM     21  C   UNL     1      -3.068  10.373  15.359  0.00  0.00    +0.000 A 
ATOM     22  N   UNL     1      -4.164  11.125  15.583  0.00  0.00    +0.000 NA
ATOM     23  C   UNL     1      -4.417  11.454  16.866  0.00  0.00    +0.000 A 
ATOM     24  C   UNL     1      -3.621  11.074  17.939  0.00  0.00    +0.000 A 
ENDBRANCH  17  19
ENDBRANCH  14  15
ENDBRANCH   8  14
TORSDOF 4
ENDMDL
MODEL 6
REMARK VINA RESULT:      -7.0      5.773      8.575
REMARK  Name = 
REMARK  6 active torsions:
REMARK  status: ('A' for Active; 'I' for Inactive)
REMARK    1  A    between atoms: C_1  and  C_2
REMARK    2  A    between atoms: C_2  and  C_3
REMARK    3  A    between atoms: C_2  and  C_4
REMARK    4  A    between atoms: N_11  and  C_12
REMARK    5  A    between atoms: C_12  and  C_13
REMARK    6  A    between atoms: N_15  and  C_16
REMARK                            x       y       z     vdW  Elec       q    Type
REMARK                         _______ _______ _______ _____ _____    ______ ____
ROOT
ATOM      1  C   UNL     1       2.905   4.816  19.695  0.00  0.00    +0.000 A 
ATOM      2  N   UNL     1       3.441   4.923  18.465  0.00  0.00    +0.000 NA
ATOM      3  C   UNL     1       3.343   6.125  17.867  0.00  0.00    +0.000 A 
ATOM      4  C   UNL     1       2.723   7.212  18.441  0.00  0.00    +0.000 A 
ATOM      5  C   UNL     1       2.223   7.016  19.717  0.00  0.00    +0.000 A 
ATOM      6  N   UNL     1       2.301   5.825  20.348  0.00  0.00    +0.000 NA
ATOM      7  C   UNL     1       1.468   8.118  20.432  0.00  0.00    +0.000 C 
ATOM      8  N   UNL     1       1.483   9.462  19.781  0.00  0.00    +0.000 NA
ATOM      9  C   UNL     1       1.405   9.320  18.312  0.00  0.00    +0.000 C 
ATOM     10  C   UNL     1       2.607   8.540  17.766  0.00  0.00    +0.000 C 
ENDROOT
BRANCH   1  12
ATOM     11  C   UNL     1       1.614   3.068  20.938  0.00  0.00    +0.000 C 
ATOM     12  C   UNL     1       2.977   3.467  20.375  0.00  0.00    +0.000 C 
ATOM     13  C   UNL     1       3.509   2.396  19.421  0.00  0.00    +0.000 C 
ENDBRANCH   1  12
BRANCH   8  14
ATOM     14  C   UNL     1       0.297  10.242  20.227  0.00  0.00    +0.000 C 
BRANCH  14  15
ATOM     15  C   UNL     1      -0.497  10.852  19.072  0.00  0.00    +0.000 C 
ATOM     16  O   UNL     1      -0.142  11.928  18.600  0.00  0.00    +0.000 OA
ATOM     17  N   UNL     1      -1.622  10.134  18.709  0.00  0.00    +0.000 N 
ATOM     18  H   UNL     1      -1.853   9.343  19.303  0.00  0.00    +0.000 HD
BRANCH  17  19
ATOM     19  C   UNL     1      -2.480  10.447  17.632  0.00  0.00    +0.000 A 
ATOM     20  C   UNL     1      -3.576  11.296  17.766  0.00  0.00    +0.000 A 
ATOM     21  C   UNL     1      -4.400  11.500  16.676  0.00  0.00    +0.000 A 
ATOM     22  N   UNL     1      -4.199  10.931  15.471  0.00  0.00    +0.000 NA
ATOM     23  C   UNL     1      -3.112  10.140  15.353  0.00  0.00    +0.000 A 
ATOM     24  C   UNL     1      -2.220   9.883  16.385  0.00  0.00    +0.000 A 
ENDBRANCH  17  19
ENDBRANCH  14  15
ENDBRANCH   8  14
TORSDOF 4
ENDMDL
MODEL 7
REMARK VINA RESULT:      -7.0      5.698      8.764
REMARK  Name = 
REMARK  6 active torsions:
REMARK  status: ('A' for Active; 'I' for Inactive)
REMARK    1  A    between atoms: C_1  and  C_2
REMARK    2  A    between atoms: C_2  and  C_3
REMARK    3  A    between atoms: C_2  and  C_4
REMARK    4  A    between atoms: N_11  and  C_12
REMARK    5  A    between atoms: C_12  and  C_13
REMARK    6  A    between atoms: N_15  and  C_16
REMARK                            x       y       z     vdW  Elec       q    Type
REMARK                         _______ _______ _______ _____ _____    ______ ____
ROOT
ATOM      1  C   UNL     1       4.202   5.583  17.866  0.00  0.00    +0.000 A 
ATOM      2  N   UNL     1       3.936   4.754  18.892  0.00  0.00    +0.000 NA
ATOM      3  C   UNL     1       3.045   5.189  19.803  0.00  0.00    +0.000 A 
ATOM      4  C   UNL     1       2.427   6.418  19.737  0.00  0.00    +0.000 A 
ATOM      5  C   UNL     1       2.744   7.193  18.635  0.00  0.00    +0.000 A 
ATOM      6  N   UNL     1       3.633   6.791  17.701  0.00  0.00    +0.000 NA
ATOM      7  C   UNL     1       2.174   8.587  18.478  0.00  0.00    +0.000 C 
ATOM      8  N   UNL     1       1.109   8.981  19.448  0.00  0.00    +0.000 NA
ATOM      9  C   UNL     1       1.408   8.431  20.787  0.00  0.00    +0.000 C 
ATOM     10  C   UNL     1       1.450   6.899  20.759  0.00  0.00    +0.000 C 
ENDROOT
BRANCH   1  12
ATOM     11  C   UNL     1       4.828   3.778  16.248  0.00  0.00    +0.000 C 
ATOM     12  C   UNL     1       5.221   5.129  16.844  0.00  0.00    +0.000 C 
ATOM     13  C   UNL     1       5.406   6.177  15.746  0.00  0.00    +0.000 C 
ENDBRANCH   1  12
BRANCH   8  14
ATOM     14  C   UNL     1       1.068  10.464  19.563  0.00  0.00    +0.000 C 
BRANCH  14  15
ATOM     15  C   UNL     1      -0.076  11.102  18.775  0.00  0.00    +0.000 C 
ATOM     16  O   UNL     1      -0.056  12.309  18.554  0.00  0.00    +0.000 OA
ATOM     17  N   UNL     1      -1.095  10.228  18.439  0.00  0.00    +0.000 N 
ATOM     18  H   UNL     1      -1.023   9.293  18.829  0.00  0.00    +0.000 HD
BRANCH  17  19
ATOM     19  C   UNL     1      -2.225  10.551  17.656  0.00  0.00    +0.000 A 
ATOM     20  C   UNL     1      -3.266  11.346  18.131  0.00  0.00    +0.000 A 
ATOM     21  C   UNL     1      -4.364  11.563  17.320  0.00  0.00    +0.000 A 
ATOM     22  N   UNL     1      -4.486  11.056  16.077  0.00  0.00    +0.000 NA
ATOM     23  C   UNL     1      -3.451  10.319  15.623  0.00  0.00    +0.000 A 
ATOM     24  C   UNL     1      -2.302  10.055  16.357  0.00  0.00    +0.000 A 
ENDBRANCH  17  19
ENDBRANCH  14  15
ENDBRANCH   8  14
TORSDOF 4
ENDMDL
MODEL 8
REMARK VINA RESULT:      -6.9      4.879      7.876
REMARK  Name = 
REMARK  6 active torsions:
REMARK  status: ('A' for Active; 'I' for Inactive)
REMARK    1  A    between atoms: C_1  and  C_2
REMARK    2  A    between atoms: C_2  and  C_3
REMARK    3  A    between atoms: C_2  and  C_4
REMARK    4  A    between atoms: N_11  and  C_12
REMARK    5  A    between atoms: C_12  and  C_13
REMARK    6  A    between atoms: N_15  and  C_16
REMARK                            x       y       z     vdW  Elec       q    Type
REMARK                         _______ _______ _______ _____ _____    ______ ____
ROOT
ATOM      1  C   UNL     1       4.587   5.074  16.711  0.00  0.00    +0.000 A 
ATOM      2  N   UNL     1       4.200   3.798  16.894  0.00  0.00    +0.000 NA
ATOM      3  C   UNL     1       3.263   3.581  17.836  0.00  0.00    +0.000 A 
ATOM      4  C   UNL     1       2.714   4.580  18.607  0.00  0.00    +0.000 A 
ATOM      5  C   UNL     1       3.154   5.864  18.333  0.00  0.00    +0.000 A 
ATOM      6  N   UNL     1       4.093   6.121  17.397  0.00  0.00    +0.000 NA
ATOM      7  C   UNL     1       2.667   7.042  19.151  0.00  0.00    +0.000 C 
ATOM      8  N   UNL     1       1.550   6.770  20.104  0.00  0.00    +0.000 NA
ATOM      9  C   UNL     1       1.715   5.437  20.720  0.00  0.00    +0.000 C 
ATOM     10  C   UNL     1       1.684   4.330  19.660  0.00  0.00    +0.000 C 
ENDROOT
BRANCH   1  12
ATOM     11  C   UNL     1       7.019   5.541  16.344  0.00  0.00    +0.000 C 
ATOM     12  C   UNL     1       5.659   5.340  15.678  0.00  0.00    +0.000 C 
ATOM     13  C   UNL     1       5.720   4.214  14.644  0.00  0.00    +0.000 C 
ENDBRANCH   1  12
BRANCH   8  14
ATOM     14  C   UNL     1       1.573   7.783  21.195  0.00  0.00    +0.000 C 
BRANCH  14  15
ATOM     15  C   UNL     1       0.306   8.636  21.257  0.00  0.00    +0.000 C 
ATOM     16  O   UNL     1      -0.712   8.166  21.757  0.00  0.00    +0.000 OA
ATOM     17  N   UNL     1       0.422   9.876  20.654  0.00  0.00    +0.000 N 
ATOM     18  H   UNL     1       1.291  10.046  20.156  0.00  0.00    +0.000 HD
BRANCH  17  19
ATOM     19  C   UNL     1      -0.578  10.874  20.637  0.00  0.00    +0.000 A 
ATOM     20  C   UNL     1      -0.909  11.625  21.761  0.00  0.00    +0.000 A 
ATOM     21  C   UNL     1      -1.942  12.539  21.673  0.00  0.00    +0.000 A 
ATOM     22  N   UNL     1      -2.649  12.760  20.547  0.00  0.00    +0.000 NA
ATOM     23  C   UNL     1      -2.288  12.047  19.460  0.00  0.00    +0.000 A 
ATOM     24  C   UNL     1      -1.259  11.116  19.446  0.00  0.00    +0.000 A 
ENDBRANCH  17  19
ENDBRANCH  14  15
ENDBRANCH   8  14
TORSDOF 4
ENDMDL
MODEL 9
REMARK VINA RESULT:      -6.9      5.572      8.783
REMARK  Name = 
REMARK  6 active torsions:
REMARK  status: ('A' for Active; 'I' for Inactive)
REMARK    1  A    between atoms: C_1  and  C_2
REMARK    2  A    between atoms: C_2  and  C_3
REMARK    3  A    between atoms: C_2  and  C_4
REMARK    4  A    between atoms: N_11  and  C_12
REMARK    5  A    between atoms: C_12  and  C_13
REMARK    6  A    between atoms: N_15  and  C_16
REMARK                            x       y       z     vdW  Elec       q    Type
REMARK                         _______ _______ _______ _____ _____    ______ ____
ROOT
ATOM      1  C   UNL     1       4.828   5.966  17.506  0.00  0.00    +0.000 A 
ATOM      2  N   UNL     1       4.650   4.947  18.366  0.00  0.00    +0.000 NA
ATOM      3  C   UNL     1       3.675   5.097  19.284  0.00  0.00    +0.000 A 
ATOM      4  C   UNL     1       2.888   6.222  19.382  0.00  0.00    +0.000 A 
ATOM      5  C   UNL     1       3.127   7.209  18.440  0.00  0.00    +0.000 A 
ATOM      6  N   UNL     1       4.097   7.096  17.506  0.00  0.00    +0.000 NA
ATOM      7  C   UNL     1       2.368   8.518  18.478  0.00  0.00    +0.000 C 
ATOM      8  N   UNL     1       1.225   8.594  19.436  0.00  0.00    +0.000 NA
ATOM      9  C   UNL     1       1.553   7.872  20.683  0.00  0.00    +0.000 C 
ATOM     10  C   UNL     1       1.818   6.386  20.410  0.00  0.00    +0.000 C 
ENDROOT
BRANCH   1  12
ATOM     11  C   UNL     1       7.057   4.939  17.011  0.00  0.00    +0.000 C 
ATOM     12  C   UNL     1       5.936   5.834  16.485  0.00  0.00    +0.000 C 
ATOM     13  C   UNL     1       5.399   5.309  15.153  0.00  0.00    +0.000 C 
ENDBRANCH   1  12
BRANCH   8  14
ATOM     14  C   UNL     1       0.966  10.016  19.787  0.00  0.00    +0.000 C 
BRANCH  14  15
ATOM     15  C   UNL     1      -0.023  10.703  18.845  0.00  0.00    +0.000 C 
ATOM     16  O   UNL     1       0.285  11.770  18.323  0.00  0.00    +0.000 OA
ATOM     17  N   UNL     1      -1.242  10.059  18.729  0.00  0.00    +0.000 N 
ATOM     18  H   UNL     1      -1.385   9.266  19.348  0.00  0.00    +0.000 HD
BRANCH  17  19
ATOM     19  C   UNL     1      -2.296  10.450  17.873  0.00  0.00    +0.000 A 
ATOM     20  C   UNL     1      -2.320  10.131  16.517  0.00  0.00    +0.000 A 
ATOM     21  C   UNL     1      -3.358  10.605  15.738  0.00  0.00    +0.000 A 
ATOM     22  N   UNL     1      -4.369  11.356  16.219  0.00  0.00    +0.000 NA
ATOM     23  C   UNL     1      -4.345  11.623  17.541  0.00  0.00    +0.000 A 
ATOM     24  C   UNL     1      -3.353  11.183  18.407  0.00  0.00    +0.000 A 
ENDBRANCH  17  19
ENDBRANCH  14  15
ENDBRANCH   8  14
TORSDOF 4
ENDMDL
