MODEL 1
REMARK VINA RESULT:      -7.5      0.000      0.000
REMARK  Name = 
REMARK  7 active torsions:
REMARK  status: ('A' for Active; 'I' for Inactive)
REMARK    1  A    between atoms: C_1  and  C_2
REMARK    2  A    between atoms: C_2  and  C_3
REMARK    3  A    between atoms: C_3  and  C_4
REMARK    4  A    between atoms: C_7  and  C_8
REMARK    5  A    between atoms: C_8  and  C_9
REMARK    6  A    between atoms: C_8  and  N_10
REMARK    7  A    between atoms: N_10  and  C_11
REMARK                            x       y       z     vdW  Elec       q    Type
REMARK                         _______ _______ _______ _____ _____    ______ ____
ROOT
ATOM      1  N   UNL     1       3.481   4.705  18.832  0.00  0.00    +0.000 N 
ATOM      2  H   UNL     1       2.990   4.949  17.975  0.00  0.00    +0.000 HD
ENDROOT
BRANCH   1   3
ATOM      3  C   UNL     1       4.866   4.905  18.590  0.00  0.00    +0.000 A 
ATOM      4  N   UNL     1       5.651   5.299  19.595  0.00  0.00    +0.000 NA
ATOM      5  C   UNL     1       6.958   5.511  19.330  0.00  0.00    +0.000 A 
ATOM      6  N   UNL     1       7.556   5.342  18.145  0.00  0.00    +0.000 NA
ATOM      7  C   UNL     1       6.774   4.912  17.139  0.00  0.00    +0.000 A 
ATOM      8  C   UNL     1       5.397   4.702  17.306  0.00  0.00    +0.000 A 
ATOM      9  C   UNL     1       4.609   4.202  16.123  0.00  0.00    +0.000 C 
ATOM     10  C   UNL     1       5.267   4.543  14.777  0.00  0.00    +0.000 C 
ATOM     11  N   UNL     1       6.652   4.076  14.747  0.00  0.00    +0.000 NA
ATOM     12  C   UNL     1       7.448   4.746  15.789  0.00  0.00    +0.000 C 
ATOM     13  H   UNL     1       7.069   4.274  13.839  0.00  0.00    +0.000 HD
ENDBRANCH   1   3
BRANCH   1  14
ATOM     14  C   UNL     1       2.876   5.423  19.977  0.00  0.00    +0.000 C 
ATOM     15  C   UNL     1       1.672   4.675  20.563  0.00  0.00    +0.000 C 
BRANCH  14  19
ATOM     16  C   UNL     1       1.209   9.275  18.827  0.00  0.00    +0.000 A 
ATOM     17  C   UNL     1       1.171   8.827  20.154  0.00  0.00    +0.000 A 
ATOM     18  C   UNL     1       1.820   7.647  20.532  0.00  0.00    +0.000 A 
ATOM     19  C   UNL     1       2.469   6.850  19.579  0.00  0.00    +0.000 A 
ATOM     20  C   UNL     1       2.561   7.339  18.261  0.00  0.00    +0.000 A 
ATOM     21  C   UNL     1       1.930   8.531  17.891  0.00  0.00    +0.000 A 
BRANCH  16  22
ATOM     22  C   UNL     1       0.453  10.511  18.403  0.00  0.00    +0.000 C 
BRANCH  22  24
ATOM     23  C   UNL     1      -1.722   9.943  17.261  0.00  0.00    +0.000 C 
ATOM     24  C   UNL     1      -1.060  10.359  18.564  0.00  0.00    +0.000 C 
ENDBRANCH  22  24
ENDBRANCH  16  22
ENDBRANCH  14  19
ENDBRANCH   1  14
TORSDOF 5
ENDMDL
MODEL 2
REMARK VINA RESULT:      -7.5      2.832      6.397
REMARK  Name = 
REMARK  7 active torsions:
REMARK  status: ('A' for Active; 'I' for Inactive)
REMARK    1  A    between atoms: C_1  and  C_2
REMARK    2  A    between atoms: C_2  and  C_3
REMARK    3  A    between atoms: C_3  and  C_4
REMARK    4  A    between atoms: C_7  and  C_8
REMARK    5  A    between atoms: C_8  and  C_9
REMARK    6  A    between atoms: C_8  and  N_10
REMARK    7  A    between atoms: N_10  and  C_11
REMARK                            x       y       z     vdW  Elec       q    Type
REMARK                         _______ _______ _______ _____ _____    ______ ____
ROOT
ATOM      1  N   UNL     1       5.379   3.429  17.952  0.00  0.00    +0.000 N 
ATOM      2  H   UNL     1       5.896   3.770  18.758  0.00  0.00    +0.000 HD
ENDROOT
BRANCH   1   3
ATOM      3  C   UNL     1       4.069   3.112  18.399  0.00  0.00    +0.000 A 
ATOM      4  N   UNL     1       3.553   1.917  18.103  0.00  0.00    +0.000 NA
ATOM      5  C   UNL     1       2.294   1.654  18.514  0.00  0.00    +0.000 A 
ATOM      6  N   UNL     1       1.509   2.478  19.217  0.00  0.00    +0.000 NA
ATOM      7  C   UNL     1       2.040   3.671  19.545  0.00  0.00    +0.000 A 
ATOM      8  C   UNL     1       3.324   4.051  19.131  0.00  0.00    +0.000 A 
ATOM      9  C   UNL     1       3.837   5.400  19.564  0.00  0.00    +0.000 C 
ATOM     10  C   UNL     1       2.710   6.394  19.887  0.00  0.00    +0.000 C 
ATOM     11  N   UNL     1       1.783   5.823  20.862  0.00  0.00    +0.000 NA
ATOM     12  C   UNL     1       1.139   4.616  20.320  0.00  0.00    +0.000 C 
ATOM     13  H   UNL     1       1.061   6.502  21.097  0.00  0.00    +0.000 HD
ENDBRANCH   1   3
BRANCH   1  14
ATOM     14  C   UNL     1       5.507   4.390  16.832  0.00  0.00    +0.000 C 
ATOM     15  C   UNL     1       5.925   3.708  15.524  0.00  0.00    +0.000 C 
BRANCH  14  19
ATOM     16  C   UNL     1       8.007   7.645  18.280  0.00  0.00    +0.000 A 
ATOM     17  C   UNL     1       8.162   6.335  18.753  0.00  0.00    +0.000 A 
ATOM     18  C   UNL     1       7.440   5.278  18.191  0.00  0.00    +0.000 A 
ATOM     19  C   UNL     1       6.494   5.514  17.182  0.00  0.00    +0.000 A 
ATOM     20  C   UNL     1       6.392   6.820  16.666  0.00  0.00    +0.000 A 
ATOM     21  C   UNL     1       7.132   7.871  17.215  0.00  0.00    +0.000 A 
BRANCH  16  22
ATOM     22  C   UNL     1       8.733   8.798  18.930  0.00  0.00    +0.000 C 
BRANCH  22  24
ATOM     23  C   UNL     1       9.384  11.228  18.769  0.00  0.00    +0.000 C 
ATOM     24  C   UNL     1       8.794  10.035  18.035  0.00  0.00    +0.000 C 
ENDBRANCH  22  24
ENDBRANCH  16  22
ENDBRANCH  14  19
ENDBRANCH   1  14
TORSDOF 5
ENDMDL
MODEL 3
REMARK VINA RESULT:      -7.4      2.865      7.111
REMARK  Name = 
REMARK  7 active torsions:
REMARK  status: ('A' for Active; 'I' for Inactive)
REMARK    1  A    between atoms: C_1  and  C_2
REMARK    2  A    between atoms: C_2  and  C_3
REMARK    3  A    between atoms: C_3  and  C_4
REMARK    4  A    between atoms: C_7  and  C_8
REMARK    5  A    between atoms: C_8  and  C_9
REMARK    6  A    between atoms: C_8  and  N_10
REMARK    7  A    between atoms: N_10  and  C_11
REMARK                            x       y       z     vdW  Elec       q    Type
REMARK                         _______ _______ _______ _____ _____    ______ ____
ROOT
ATOM      1  N   UNL     1       4.016   6.059  17.395  0.00  0.00    +0.000 N 
ATOM      2  H   UNL     1       3.577   5.726  16.540  0.00  0.00    +0.000 HD
ENDROOT
BRANCH   1   3
ATOM      3  C   UNL     1       3.125   5.768  18.462  0.00  0.00    +0.000 A 
ATOM      4  N   UNL     1       2.910   6.694  19.400  0.00  0.00    +0.000 NA
ATOM      5  C   UNL     1       2.083   6.379  20.419  0.00  0.00    +0.000 A 
ATOM      6  N   UNL     1       1.431   5.222  20.573  0.00  0.00    +0.000 NA
ATOM      7  C   UNL     1       1.619   4.300  19.611  0.00  0.00    +0.000 A 
ATOM      8  C   UNL     1       2.490   4.518  18.534  0.00  0.00    +0.000 A 
ATOM      9  C   UNL     1       2.620   3.432  17.498  0.00  0.00    +0.000 C 
ATOM     10  C   UNL     1       2.259   2.040  18.041  0.00  0.00    +0.000 C 
ATOM     11  N   UNL     1       0.932   2.054  18.654  0.00  0.00    +0.000 NA
ATOM     12  C   UNL     1       0.900   2.976  19.801  0.00  0.00    +0.000 C 
ATOM     13  H   UNL     1       0.686   1.121  18.977  0.00  0.00    +0.000 HD
ENDBRANCH   1   3
BRANCH   1  14
ATOM     14  C   UNL     1       5.394   5.526  17.489  0.00  0.00    +0.000 C 
ATOM     15  C   UNL     1       6.413   6.610  17.860  0.00  0.00    +0.000 C 
BRANCH  14  19
ATOM     16  C   UNL     1       6.390   4.024  13.528  0.00  0.00    +0.000 A 
ATOM     17  C   UNL     1       7.237   4.906  14.211  0.00  0.00    +0.000 A 
ATOM     18  C   UNL     1       6.968   5.282  15.531  0.00  0.00    +0.000 A 
ATOM     19  C   UNL     1       5.808   4.836  16.181  0.00  0.00    +0.000 A 
ATOM     20  C   UNL     1       4.997   3.898  15.513  0.00  0.00    +0.000 A 
ATOM     21  C   UNL     1       5.280   3.506  14.201  0.00  0.00    +0.000 A 
BRANCH  16  22
ATOM     22  C   UNL     1       6.640   3.671  12.081  0.00  0.00    +0.000 C 
BRANCH  22  24
ATOM     23  C   UNL     1       6.557   1.312  11.197  0.00  0.00    +0.000 C 
ATOM     24  C   UNL     1       5.743   2.534  11.591  0.00  0.00    +0.000 C 
ENDBRANCH  22  24
ENDBRANCH  16  22
ENDBRANCH  14  19
ENDBRANCH   1  14
TORSDOF 5
ENDMDL
MODEL 4
REMARK VINA RESULT:      -7.3      2.585      7.195
REMARK  Name = 
REMARK  7 active torsions:
REMARK  status: ('A' for Active; 'I' for Inactive)
REMARK    1  A    between atoms: C_1  and  C_2
REMARK    2  A    between atoms: C_2  and  C_3
REMARK    3  A    between atoms: C_3  and  C_4
REMARK    4  A    between atoms: C_7  and  C_8
REMARK    5  A    between atoms: C_8  and  C_9
REMARK    6  A    between atoms: C_8  and  N_10
REMARK    7  A    between atoms: N_10  and  C_11
REMARK                            x       y       z     vdW  Elec       q    Type
REMARK                         _______ _______ _______ _____ _____    ______ ____
ROOT
ATOM      1  N   UNL     1       2.327   6.636  20.443  0.00  0.00    +0.000 N 
ATOM      2  H   UNL     1       3.327   6.709  20.614  0.00  0.00    +0.000 HD
ENDROOT
BRANCH   1   3
ATOM      3  C   UNL     1       1.937   7.812  19.747  0.00  0.00    +0.000 A 
ATOM      4  N   UNL     1       2.350   7.990  18.490  0.00  0.00    +0.000 NA
ATOM      5  C   UNL     1       1.989   9.130  17.864  0.00  0.00    +0.000 A 
ATOM      6  N   UNL     1       1.230  10.104  18.379  0.00  0.00    +0.000 NA
ATOM      7  C   UNL     1       0.786   9.910  19.634  0.00  0.00    +0.000 A 
ATOM      8  C   UNL     1       1.138   8.777  20.381  0.00  0.00    +0.000 A 
ATOM      9  C   UNL     1       0.575   8.642  21.772  0.00  0.00    +0.000 C 
ATOM     10  C   UNL     1       0.187   9.993  22.394  0.00  0.00    +0.000 C 
ATOM     11  N   UNL     1      -0.715  10.729  21.509  0.00  0.00    +0.000 NA
ATOM     12  C   UNL     1      -0.053  11.028  20.228  0.00  0.00    +0.000 C 
ATOM     13  H   UNL     1      -0.995  11.605  21.945  0.00  0.00    +0.000 HD
ENDBRANCH   1   3
BRANCH   1  14
ATOM     14  C   UNL     1       2.021   5.333  19.811  0.00  0.00    +0.000 C 
ATOM     15  C   UNL     1       1.613   4.269  20.837  0.00  0.00    +0.000 C 
BRANCH  14  19
ATOM     16  C   UNL     1       5.436   4.437  17.267  0.00  0.00    +0.000 A 
ATOM     17  C   UNL     1       5.598   5.004  18.537  0.00  0.00    +0.000 A 
ATOM     18  C   UNL     1       4.505   5.171  19.394  0.00  0.00    +0.000 A 
ATOM     19  C   UNL     1       3.210   4.834  18.975  0.00  0.00    +0.000 A 
ATOM     20  C   UNL     1       3.064   4.203  17.725  0.00  0.00    +0.000 A 
ATOM     21  C   UNL     1       4.162   4.016  16.880  0.00  0.00    +0.000 A 
BRANCH  16  22
ATOM     22  C   UNL     1       6.602   4.319  16.314  0.00  0.00    +0.000 C 
BRANCH  22  24
ATOM     23  C   UNL     1       6.932   4.757  13.854  0.00  0.00    +0.000 C 
ATOM     24  C   UNL     1       6.167   3.956  14.895  0.00  0.00    +0.000 C 
ENDBRANCH  22  24
ENDBRANCH  16  22
ENDBRANCH  14  19
ENDBRANCH   1  14
TORSDOF 5
ENDMDL
MODEL 5
REMARK VINA RESULT:      -7.3      2.899      7.104
REMARK  Name = 
REMARK  7 active torsions:
REMARK  status: ('A' for Active; 'I' for Inactive)
REMARK    1  A    between atoms: C_1  and  C_2
REMARK    2  A    between atoms: C_2  and  C_3
REMARK    3  A    between atoms: C_3  and  C_4
REMARK    4  A    between atoms: C_7  and  C_8
REMARK    5  A    between atoms: C_8  and  C_9
REMARK    6  A    between atoms: C_8  and  N_10
REMARK    7  A    between atoms: N_10  and  C_11
REMARK                            x       y       z     vdW  Elec       q    Type
REMARK                         _______ _______ _______ _____ _____    ______ ____
ROOT
ATOM      1  N   UNL     1       4.010   6.074  17.572  0.00  0.00    +0.000 N 
ATOM      2  H   UNL     1       3.507   6.014  16.691  0.00  0.00    +0.000 HD
ENDROOT
BRANCH   1   3
ATOM      3  C   UNL     1       3.096   5.715  18.599  0.00  0.00    +0.000 A 
ATOM      4  N   UNL     1       2.812   6.602  19.555  0.00  0.00    +0.000 NA
ATOM      5  C   UNL     1       1.965   6.223  20.536  0.00  0.00    +0.000 A 
ATOM      6  N   UNL     1       1.356   5.036  20.633  0.00  0.00    +0.000 NA
ATOM      7  C   UNL     1       1.615   4.152  19.652  0.00  0.00    +0.000 A 
ATOM      8  C   UNL     1       2.512   4.438  18.612  0.00  0.00    +0.000 A 
ATOM      9  C   UNL     1       2.722   3.390  17.550  0.00  0.00    +0.000 C 
ATOM     10  C   UNL     1       2.400   1.969  18.040  0.00  0.00    +0.000 C 
ATOM     11  N   UNL     1       1.054   1.911  18.606  0.00  0.00    +0.000 NA
ATOM     12  C   UNL     1       0.946   2.796  19.778  0.00  0.00    +0.000 C 
ATOM     13  H   UNL     1       0.836   0.959  18.894  0.00  0.00    +0.000 HD
ENDBRANCH   1   3
BRANCH   1  14
ATOM     14  C   UNL     1       5.273   5.306  17.481  0.00  0.00    +0.000 C 
ATOM     15  C   UNL     1       6.422   5.984  18.236  0.00  0.00    +0.000 C 
BRANCH  14  19
ATOM     16  C   UNL     1       6.408   4.107  13.454  0.00  0.00    +0.000 A 
ATOM     17  C   UNL     1       5.079   4.035  13.893  0.00  0.00    +0.000 A 
ATOM     18  C   UNL     1       4.708   4.540  15.143  0.00  0.00    +0.000 A 
ATOM     19  C   UNL     1       5.669   5.071  16.015  0.00  0.00    +0.000 A 
ATOM     20  C   UNL     1       6.989   5.202  15.541  0.00  0.00    +0.000 A 
ATOM     21  C   UNL     1       7.353   4.717  14.282  0.00  0.00    +0.000 A 
BRANCH  16  22
ATOM     22  C   UNL     1       6.824   3.501  12.135  0.00  0.00    +0.000 C 
BRANCH  22  24
ATOM     23  C   UNL     1       6.559   1.210  11.119  0.00  0.00    +0.000 C 
ATOM     24  C   UNL     1       5.839   2.444  11.637  0.00  0.00    +0.000 C 
ENDBRANCH  22  24
ENDBRANCH  16  22
ENDBRANCH  14  19
ENDBRANCH   1  14
TORSDOF 5
ENDMDL
MODEL 6
REMARK VINA RESULT:      -7.3      2.899      6.737
REMARK  Name = 
REMARK  7 active torsions:
REMARK  status: ('A' for Active; 'I' for Inactive)
REMARK    1  A    between atoms: C_1  and  C_2
REMARK    2  A    between atoms: C_2  and  C_3
REMARK    3  A    between atoms: C_3  and  C_4
REMARK    4  A    between atoms: C_7  and  C_8
REMARK    5  A    between atoms: C_8  and  C_9
REMARK    6  A    between atoms: C_8  and  N_10
REMARK    7  A    between atoms: N_10  and  C_11
REMARK                            x       y       z     vdW  Elec       q    Type
REMARK                         _______ _______ _______ _____ _____    ______ ____
ROOT
ATOM      1  N   UNL     1       5.125   5.561  18.942  0.00  0.00    +0.000 N 
ATOM      2  H   UNL     1       5.586   6.038  19.712  0.00  0.00    +0.000 HD
ENDROOT
BRANCH   1   3
ATOM      3  C   UNL     1       3.811   5.240  19.378  0.00  0.00    +0.000 A 
ATOM      4  N   UNL     1       3.115   6.148  20.065  0.00  0.00    +0.000 NA
ATOM      5  C   UNL     1       1.881   5.805  20.493  0.00  0.00    +0.000 A 
ATOM      6  N   UNL     1       1.271   4.635  20.276  0.00  0.00    +0.000 NA
ATOM      7  C   UNL     1       1.959   3.730  19.555  0.00  0.00    +0.000 A 
ATOM      8  C   UNL     1       3.262   3.978  19.100  0.00  0.00    +0.000 A 
ATOM      9  C   UNL     1       3.942   2.909  18.285  0.00  0.00    +0.000 C 
ATOM     10  C   UNL     1       3.379   1.504  18.551  0.00  0.00    +0.000 C 
ATOM     11  N   UNL     1       1.928   1.487  18.371  0.00  0.00    +0.000 NA
ATOM     12  C   UNL     1       1.277   2.392  19.332  0.00  0.00    +0.000 C 
ATOM     13  H   UNL     1       1.569   0.545  18.514  0.00  0.00    +0.000 HD
ENDBRANCH   1   3
BRANCH   1  14
ATOM     14  C   UNL     1       5.258   6.362  17.705  0.00  0.00    +0.000 C 
ATOM     15  C   UNL     1       3.988   7.160  17.388  0.00  0.00    +0.000 C 
BRANCH  14  19
ATOM     16  C   UNL     1       6.380   4.305  14.037  0.00  0.00    +0.000 A 
ATOM     17  C   UNL     1       7.342   4.870  14.884  0.00  0.00    +0.000 A 
ATOM     18  C   UNL     1       6.980   5.417  16.119  0.00  0.00    +0.000 A 
ATOM     19  C   UNL     1       5.634   5.472  16.511  0.00  0.00    +0.000 A 
ATOM     20  C   UNL     1       4.681   4.843  15.686  0.00  0.00    +0.000 A 
ATOM     21  C   UNL     1       5.049   4.276  14.462  0.00  0.00    +0.000 A 
BRANCH  16  22
ATOM     22  C   UNL     1       6.759   3.776  12.674  0.00  0.00    +0.000 C 
BRANCH  22  24
ATOM     23  C   UNL     1       6.154   1.740  11.318  0.00  0.00    +0.000 C 
ATOM     24  C   UNL     1       5.629   2.983  12.017  0.00  0.00    +0.000 C 
ENDBRANCH  22  24
ENDBRANCH  16  22
ENDBRANCH  14  19
ENDBRANCH   1  14
TORSDOF 5
ENDMDL
MODEL 7
REMARK VINA RESULT:      -7.2      2.908      6.494
REMARK  Name = 
REMARK  7 active torsions:
REMARK  status: ('A' for Active; 'I' for Inactive)
REMARK    1  A    between atoms: C_1  and  C_2
REMARK    2  A    between atoms: C_2  and  C_3
REMARK    3  A    between atoms: C_3  and  C_4
REMARK    4  A    between atoms: C_7  and  C_8
REMARK    5  A    between atoms: C_8  and  C_9
REMARK    6  A    between atoms: C_8  and  N_10
REMARK    7  A    between atoms: N_10  and  C_11
REMARK                            x       y       z     vdW  Elec       q    Type
REMARK                         _______ _______ _______ _____ _____    ______ ____
ROOT
ATOM      1  N   UNL     1       5.057   5.632  19.097  0.00  0.00    +0.000 N 
ATOM      2  H   UNL     1       5.491   5.993  19.942  0.00  0.00    +0.000 HD
ENDROOT
BRANCH   1   3
ATOM      3  C   UNL     1       3.745   5.214  19.448  0.00  0.00    +0.000 A 
ATOM      4  N   UNL     1       3.018   5.977  20.267  0.00  0.00    +0.000 NA
ATOM      5  C   UNL     1       1.787   5.540  20.608  0.00  0.00    +0.000 A 
ATOM      6  N   UNL     1       1.208   4.411  20.183  0.00  0.00    +0.000 NA
ATOM      7  C   UNL     1       1.927   3.658  19.331  0.00  0.00    +0.000 A 
ATOM      8  C   UNL     1       3.230   4.007  18.949  0.00  0.00    +0.000 A 
ATOM      9  C   UNL     1       3.947   3.107  17.976  0.00  0.00    +0.000 C 
ATOM     10  C   UNL     1       3.413   1.666  17.988  0.00  0.00    +0.000 C 
ATOM     11  N   UNL     1       1.966   1.650  17.782  0.00  0.00    +0.000 NA
ATOM     12  C   UNL     1       1.280   2.363  18.872  0.00  0.00    +0.000 C 
ATOM     13  H   UNL     1       1.627   0.690  17.755  0.00  0.00    +0.000 HD
ENDBRANCH   1   3
BRANCH   1  14
ATOM     14  C   UNL     1       5.190   6.621  18.004  0.00  0.00    +0.000 C 
ATOM     15  C   UNL     1       3.864   7.325  17.690  0.00  0.00    +0.000 C 
BRANCH  14  19
ATOM     16  C   UNL     1       6.383   4.394  14.460  0.00  0.00    +0.000 A 
ATOM     17  C   UNL     1       5.339   5.328  14.422  0.00  0.00    +0.000 A 
ATOM     18  C   UNL     1       5.048   6.126  15.532  0.00  0.00    +0.000 A 
ATOM     19  C   UNL     1       5.753   5.965  16.734  0.00  0.00    +0.000 A 
ATOM     20  C   UNL     1       6.844   5.074  16.744  0.00  0.00    +0.000 A 
ATOM     21  C   UNL     1       7.147   4.294  15.625  0.00  0.00    +0.000 A 
BRANCH  16  22
ATOM     22  C   UNL     1       6.655   3.484  13.286  0.00  0.00    +0.000 C 
BRANCH  22  24
ATOM     23  C   UNL     1       5.462   2.188  11.483  0.00  0.00    +0.000 C 
ATOM     24  C   UNL     1       5.520   3.492  12.261  0.00  0.00    +0.000 C 
ENDBRANCH  22  24
ENDBRANCH  16  22
ENDBRANCH  14  19
ENDBRANCH   1  14
TORSDOF 5
ENDMDL
MODEL 8
REMARK VINA RESULT:      -7.2      2.938      6.838
REMARK  Name = 
REMARK  7 active torsions:
REMARK  status: ('A' for Active; 'I' for Inactive)
REMARK    1  A    between atoms: C_1  and  C_2
REMARK    2  A    between atoms: C_2  and  C_3
REMARK    3  A    between atoms: C_3  and  C_4
REMARK    4  A    between atoms: C_7  and  C_8
REMARK    5  A    between atoms: C_8  and  C_9
REMARK    6  A    between atoms: C_8  and  N_10
REMARK    7  A    between atoms: N_10  and  C_11
REMARK                            x       y       z     vdW  Elec       q    Type
REMARK                         _______ _______ _______ _____ _____    ______ ____
ROOT
ATOM      1  N   UNL     1       6.153   4.232  18.425  0.00  0.00    +0.000 N 
ATOM      2  H   UNL     1       6.415   4.329  19.402  0.00  0.00    +0.000 HD
ENDROOT
BRANCH   1   3
ATOM      3  C   UNL     1       4.844   4.767  18.290  0.00  0.00    +0.000 A 
ATOM      4  N   UNL     1       4.694   6.081  18.109  0.00  0.00    +0.000 NA
ATOM      5  C   UNL     1       3.438   6.566  18.015  0.00  0.00    +0.000 A 
ATOM      6  N   UNL     1       2.312   5.845  18.063  0.00  0.00    +0.000 NA
ATOM      7  C   UNL     1       2.462   4.516  18.211  0.00  0.00    +0.000 A 
ATOM      8  C   UNL     1       3.724   3.923  18.358  0.00  0.00    +0.000 A 
ATOM      9  C   UNL     1       3.789   2.424  18.499  0.00  0.00    +0.000 C 
ATOM     10  C   UNL     1       2.486   1.817  19.044  0.00  0.00    +0.000 C 
ATOM     11  N   UNL     1       1.343   2.240  18.238  0.00  0.00    +0.000 NA
ATOM     12  C   UNL     1       1.183   3.702  18.293  0.00  0.00    +0.000 C 
ATOM     13  H   UNL     1       0.490   1.804  18.584  0.00  0.00    +0.000 HD
ENDBRANCH   1   3
BRANCH   1  14
ATOM     14  C   UNL     1       7.216   4.797  17.563  0.00  0.00    +0.000 C 
ATOM     15  C   UNL     1       7.520   6.262  17.899  0.00  0.00    +0.000 C 
BRANCH  14  19
ATOM     16  C   UNL     1       6.492   3.961  13.353  0.00  0.00    +0.000 A 
ATOM     17  C   UNL     1       5.787   3.295  14.365  0.00  0.00    +0.000 A 
ATOM     18  C   UNL     1       5.938   3.661  15.706  0.00  0.00    +0.000 A 
ATOM     19  C   UNL     1       6.849   4.661  16.077  0.00  0.00    +0.000 A 
ATOM     20  C   UNL     1       7.503   5.371  15.052  0.00  0.00    +0.000 A 
ATOM     21  C   UNL     1       7.333   5.019  13.710  0.00  0.00    +0.000 A 
BRANCH  16  22
ATOM     22  C   UNL     1       6.383   3.524  11.912  0.00  0.00    +0.000 C 
BRANCH  22  24
ATOM     23  C   UNL     1       3.986   3.364  11.151  0.00  0.00    +0.000 C 
ATOM     24  C   UNL     1       5.192   2.597  11.668  0.00  0.00    +0.000 C 
ENDBRANCH  22  24
ENDBRANCH  16  22
ENDBRANCH  14  19
ENDBRANCH   1  14
TORSDOF 5
ENDMDL
MODEL 9
REMARK VINA RESULT:      -7.2      0.815      1.233
REMARK  Name = 
REMARK  7 active torsions:
REMARK  status: ('A' for Active; 'I' for Inactive)
REMARK    1  A    between atoms: C_1  and  C_2
REMARK    2  A    between atoms: C_2  and  C_3
REMARK    3  A    between atoms: C_3  and  C_4
REMARK    4  A    between atoms: C_7  and  C_8
REMARK    5  A    between atoms: C_8  and  C_9
REMARK    6  A    between atoms: C_8  and  N_10
REMARK    7  A    between atoms: N_10  and  C_11
REMARK                            x       y       z     vdW  Elec       q    Type
REMARK                         _______ _______ _______ _____ _____    ______ ____
ROOT
ATOM      1  N   UNL     1       3.258   5.227  18.674  0.00  0.00    +0.000 N 
ATOM      2  H   UNL     1       2.909   5.691  17.840  0.00  0.00    +0.000 HD
ENDROOT
BRANCH   1   3
ATOM      3  C   UNL     1       4.669   5.131  18.538  0.00  0.00    +0.000 A 
ATOM      4  N   UNL     1       5.444   5.415  19.587  0.00  0.00    +0.000 NA
ATOM      5  C   UNL     1       6.782   5.345  19.420  0.00  0.00    +0.000 A 
ATOM      6  N   UNL     1       7.416   4.994  18.296  0.00  0.00    +0.000 NA
ATOM      7  C   UNL     1       6.636   4.675  17.247  0.00  0.00    +0.000 A 
ATOM      8  C   UNL     1       5.237   4.755  17.310  0.00  0.00    +0.000 A 
ATOM      9  C   UNL     1       4.450   4.360  16.088  0.00  0.00    +0.000 C 
ATOM     10  C   UNL     1       5.259   4.488  14.787  0.00  0.00    +0.000 C 
ATOM     11  N   UNL     1       6.518   3.751  14.888  0.00  0.00    +0.000 NA
ATOM     12  C   UNL     1       7.357   4.304  15.964  0.00  0.00    +0.000 C 
ATOM     13  H   UNL     1       7.030   3.811  14.010  0.00  0.00    +0.000 HD
ENDBRANCH   1   3
BRANCH   1  14
ATOM     14  C   UNL     1       2.732   5.905  19.881  0.00  0.00    +0.000 C 
ATOM     15  C   UNL     1       1.598   5.115  20.545  0.00  0.00    +0.000 C 
BRANCH  14  19
ATOM     16  C   UNL     1       0.889   9.732  18.932  0.00  0.00    +0.000 A 
ATOM     17  C   UNL     1       0.912   9.234  20.241  0.00  0.00    +0.000 A 
ATOM     18  C   UNL     1       1.615   8.067  20.553  0.00  0.00    +0.000 A 
ATOM     19  C   UNL     1       2.261   7.329  19.550  0.00  0.00    +0.000 A 
ATOM     20  C   UNL     1       2.291   7.870  18.250  0.00  0.00    +0.000 A 
ATOM     21  C   UNL     1       1.606   9.050  17.945  0.00  0.00    +0.000 A 
BRANCH  16  22
ATOM     22  C   UNL     1       0.075  10.953  18.578  0.00  0.00    +0.000 C 
BRANCH  22  24
ATOM     23  C   UNL     1       1.885  12.688  18.846  0.00  0.00    +0.000 C 
ATOM     24  C   UNL     1       0.530  12.202  19.335  0.00  0.00    +0.000 C 
ENDBRANCH  22  24
ENDBRANCH  16  22
ENDBRANCH  14  19
ENDBRANCH   1  14
TORSDOF 5
ENDMDL
