MODEL 1
REMARK VINA RESULT:      -8.0      0.000      0.000
REMARK  Name = 
REMARK  9 active torsions:
REMARK  status: ('A' for Active; 'I' for Inactive)
REMARK    1  A    between atoms: N_1  and  C_2
REMARK    2  A    between atoms: C_2  and  C_3
REMARK    3  A    between atoms: C_3  and  O_4
REMARK    4  A    between atoms: O_4  and  C_5
REMARK    5  A    between atoms: C_5  and  C_6
REMARK    6  A    between atoms: C_6  and  O_7
REMARK    7  A    between atoms: O_7  and  C_8
REMARK    8  A    between atoms: C_13  and  C_14
REMARK    9  A    between atoms: C_25  and  N_26
REMARK                            x       y       z     vdW  Elec       q    Type
REMARK                         _______ _______ _______ _____ _____    ______ ____
ROOT
ATOM      1  C   UNL     1       3.556   6.427  17.672  0.00  0.00    +0.000 C 
ATOM      2  C   UNL     1       3.399   6.515  19.008  0.00  0.00    +0.000 C 
ATOM      3  C   UNL     1       2.286   7.356  19.519  0.00  0.00    +0.000 A 
ATOM      4  C   UNL     1       1.967   8.683  19.271  0.00  0.00    +0.000 A 
ATOM      5  C   UNL     1       0.937   9.253  20.019  0.00  0.00    +0.000 A 
ATOM      6  C   UNL     1       0.260   8.495  20.990  0.00  0.00    +0.000 A 
ATOM      7  C   UNL     1       0.567   7.142  21.196  0.00  0.00    +0.000 A 
ATOM      8  C   UNL     1       1.574   6.570  20.441  0.00  0.00    +0.000 A 
ATOM      9  C   UNL     1       2.153   5.234  20.474  0.00  0.00    +0.000 A 
ATOM     10  C   UNL     1       1.627   4.050  20.955  0.00  0.00    +0.000 A 
ATOM     11  C   UNL     1       2.407   2.892  20.836  0.00  0.00    +0.000 A 
ATOM     12  C   UNL     1       3.710   2.954  20.288  0.00  0.00    +0.000 A 
ATOM     13  C   UNL     1       4.213   4.132  19.732  0.00  0.00    +0.000 A 
ATOM     14  C   UNL     1       3.389   5.237  19.771  0.00  0.00    +0.000 A 
ENDROOT
BRANCH   1  20
ATOM     15  C   UNL     1       5.988   6.559  16.822  0.00  0.00    +0.000 A 
ATOM     16  C   UNL     1       6.986   5.976  16.015  0.00  0.00    +0.000 A 
ATOM     17  C   UNL     1       6.768   4.787  15.320  0.00  0.00    +0.000 A 
ATOM     18  C   UNL     1       5.546   4.146  15.434  0.00  0.00    +0.000 A 
ATOM     19  C   UNL     1       4.546   4.712  16.225  0.00  0.00    +0.000 A 
ATOM     20  C   UNL     1       4.714   5.951  16.887  0.00  0.00    +0.000 A 
BRANCH  15  21
ATOM     21  O   UNL     1       6.451   7.709  17.422  0.00  0.00    +0.000 OA
BRANCH  21  22
ATOM     22  C   UNL     1       7.847   7.853  17.635  0.00  0.00    +0.000 C 
BRANCH  22  23
ATOM     23  C   UNL     1       8.246   9.304  17.880  0.00  0.00    +0.000 C 
BRANCH  23  24
ATOM     24  O   UNL     1       9.056   9.321  19.060  0.00  0.00    +0.000 OA
BRANCH  24  25
ATOM     25  C   UNL     1       9.639  10.602  19.305  0.00  0.00    +0.000 C 
BRANCH  25  26
ATOM     26  C   UNL     1       9.754  11.359  17.973  0.00  0.00    +0.000 C 
BRANCH  26  27
ATOM     27  N   UNL     1      11.153  11.628  17.621  0.00  0.00    +0.000 NA
ATOM     28  H   UNL     1      11.761  11.257  18.349  0.00  0.00    +0.000 HD
ATOM     29  H   UNL     1      11.283  12.643  17.628  0.00  0.00    +0.000 HD
ENDBRANCH  26  27
ENDBRANCH  25  26
ENDBRANCH  24  25
ENDBRANCH  23  24
ENDBRANCH  22  23
ENDBRANCH  21  22
ENDBRANCH  15  21
ENDBRANCH   1  20
BRANCH  12  30
ATOM     30  N   UNL     1       4.545   1.759  20.289  0.00  0.00    +0.000 N 
ATOM     31  O   UNL     1       4.474   0.993  19.307  0.00  0.00    +0.000 OA
ATOM     32  O   UNL     1       5.296   1.564  21.263  0.00  0.00    +0.000 OA
ENDBRANCH  12  30
TORSDOF 9
ENDMDL
MODEL 2
REMARK VINA RESULT:      -7.7      1.861      2.283
REMARK  Name = 
REMARK  9 active torsions:
REMARK  status: ('A' for Active; 'I' for Inactive)
REMARK    1  A    between atoms: N_1  and  C_2
REMARK    2  A    between atoms: C_2  and  C_3
REMARK    3  A    between atoms: C_3  and  O_4
REMARK    4  A    between atoms: O_4  and  C_5
REMARK    5  A    between atoms: C_5  and  C_6
REMARK    6  A    between atoms: C_6  and  O_7
REMARK    7  A    between atoms: O_7  and  C_8
REMARK    8  A    between atoms: C_13  and  C_14
REMARK    9  A    between atoms: C_25  and  N_26
REMARK                            x       y       z     vdW  Elec       q    Type
REMARK                         _______ _______ _______ _____ _____    ______ ____
ROOT
ATOM      1  C   UNL     1       3.436   5.917  17.506  0.00  0.00    +0.000 C 
ATOM      2  C   UNL     1       3.450   6.155  18.833  0.00  0.00    +0.000 C 
ATOM      3  C   UNL     1       2.413   7.066  19.382  0.00  0.00    +0.000 A 
ATOM      4  C   UNL     1       2.067   8.361  19.029  0.00  0.00    +0.000 A 
ATOM      5  C   UNL     1       1.141   9.027  19.832  0.00  0.00    +0.000 A 
ATOM      6  C   UNL     1       0.591   8.393  20.959  0.00  0.00    +0.000 A 
ATOM      7  C   UNL     1       0.919   7.067  21.276  0.00  0.00    +0.000 A 
ATOM      8  C   UNL     1       1.822   6.399  20.469  0.00  0.00    +0.000 A 
ATOM      9  C   UNL     1       2.398   5.065  20.579  0.00  0.00    +0.000 A 
ATOM     10  C   UNL     1       1.936   3.951  21.252  0.00  0.00    +0.000 A 
ATOM     11  C   UNL     1       2.692   2.775  21.167  0.00  0.00    +0.000 A 
ATOM     12  C   UNL     1       3.915   2.754  20.456  0.00  0.00    +0.000 A 
ATOM     13  C   UNL     1       4.345   3.855  19.712  0.00  0.00    +0.000 A 
ATOM     14  C   UNL     1       3.535   4.970  19.730  0.00  0.00    +0.000 A 
ENDROOT
BRANCH   1  20
ATOM     15  C   UNL     1       5.579   6.030  16.073  0.00  0.00    +0.000 A 
ATOM     16  C   UNL     1       6.490   5.325  15.261  0.00  0.00    +0.000 A 
ATOM     17  C   UNL     1       6.371   3.953  15.042  0.00  0.00    +0.000 A 
ATOM     18  C   UNL     1       5.343   3.253  15.651  0.00  0.00    +0.000 A 
ATOM     19  C   UNL     1       4.430   3.936  16.455  0.00  0.00    +0.000 A 
ATOM     20  C   UNL     1       4.484   5.337  16.641  0.00  0.00    +0.000 A 
BRANCH  15  21
ATOM     21  O   UNL     1       5.922   7.361  16.155  0.00  0.00    +0.000 OA
BRANCH  21  22
ATOM     22  C   UNL     1       6.358   7.879  17.403  0.00  0.00    +0.000 C 
BRANCH  22  23
ATOM     23  C   UNL     1       7.873   8.034  17.465  0.00  0.00    +0.000 C 
BRANCH  23  24
ATOM     24  O   UNL     1       8.312   7.365  18.651  0.00  0.00    +0.000 OA
BRANCH  24  25
ATOM     25  C   UNL     1       8.080   5.956  18.602  0.00  0.00    +0.000 C 
BRANCH  25  26
ATOM     26  C   UNL     1       7.361   5.525  19.889  0.00  0.00    +0.000 C 
BRANCH  26  27
ATOM     27  N   UNL     1       8.311   5.209  20.962  0.00  0.00    +0.000 NA
ATOM     28  H   UNL     1       7.922   4.474  21.551  0.00  0.00    +0.000 HD
ATOM     29  H   UNL     1       8.395   6.038  21.555  0.00  0.00    +0.000 HD
ENDBRANCH  26  27
ENDBRANCH  25  26
ENDBRANCH  24  25
ENDBRANCH  23  24
ENDBRANCH  22  23
ENDBRANCH  21  22
ENDBRANCH  15  21
ENDBRANCH   1  20
BRANCH  12  30
ATOM     30  N   UNL     1       4.742   1.553  20.487  0.00  0.00    +0.000 N 
ATOM     31  O   UNL     1       5.411   1.330  21.515  0.00  0.00    +0.000 OA
ATOM     32  O   UNL     1       4.733   0.803  19.494  0.00  0.00    +0.000 OA
ENDBRANCH  12  30
TORSDOF 9
ENDMDL
MODEL 3
REMARK VINA RESULT:      -7.6      1.217      1.470
REMARK  Name = 
REMARK  9 active torsions:
REMARK  status: ('A' for Active; 'I' for Inactive)
REMARK    1  A    between atoms: N_1  and  C_2
REMARK    2  A    between atoms: C_2  and  C_3
REMARK    3  A    between atoms: C_3  and  O_4
REMARK    4  A    between atoms: O_4  and  C_5
REMARK    5  A    between atoms: C_5  and  C_6
REMARK    6  A    between atoms: C_6  and  O_7
REMARK    7  A    between atoms: O_7  and  C_8
REMARK    8  A    between atoms: C_13  and  C_14
REMARK    9  A    between atoms: C_25  and  N_26
REMARK                            x       y       z     vdW  Elec       q    Type
REMARK                         _______ _______ _______ _____ _____    ______ ____
ROOT
ATOM      1  C   UNL     1       3.734   6.672  17.127  0.00  0.00    +0.000 C 
ATOM      2  C   UNL     1       3.497   7.084  18.388  0.00  0.00    +0.000 C 
ATOM      3  C   UNL     1       2.480   8.149  18.585  0.00  0.00    +0.000 A 
ATOM      4  C   UNL     1       2.368   9.411  18.020  0.00  0.00    +0.000 A 
ATOM      5  C   UNL     1       1.378  10.258  18.516  0.00  0.00    +0.000 A 
ATOM      6  C   UNL     1       0.534   9.834  19.556  0.00  0.00    +0.000 A 
ATOM      7  C   UNL     1       0.632   8.539  20.086  0.00  0.00    +0.000 A 
ATOM      8  C   UNL     1       1.600   7.690  19.581  0.00  0.00    +0.000 A 
ATOM      9  C   UNL     1       1.982   6.338  19.966  0.00  0.00    +0.000 A 
ATOM     10  C   UNL     1       1.262   5.370  20.640  0.00  0.00    +0.000 A 
ATOM     11  C   UNL     1       1.878   4.131  20.858  0.00  0.00    +0.000 A 
ATOM     12  C   UNL     1       3.213   3.906  20.445  0.00  0.00    +0.000 A 
ATOM     13  C   UNL     1       3.914   4.854  19.697  0.00  0.00    +0.000 A 
ATOM     14  C   UNL     1       3.253   6.029  19.408  0.00  0.00    +0.000 A 
ENDROOT
BRANCH   1  20
ATOM     15  C   UNL     1       6.191   6.352  16.406  0.00  0.00    +0.000 A 
ATOM     16  C   UNL     1       7.155   5.474  15.870  0.00  0.00    +0.000 A 
ATOM     17  C   UNL     1       6.853   4.148  15.563  0.00  0.00    +0.000 A 
ATOM     18  C   UNL     1       5.578   3.667  15.804  0.00  0.00    +0.000 A 
ATOM     19  C   UNL     1       4.610   4.523  16.330  0.00  0.00    +0.000 A 
ATOM     20  C   UNL     1       4.867   5.890  16.588  0.00  0.00    +0.000 A 
BRANCH  15  21
ATOM     21  O   UNL     1       6.736   7.592  16.648  0.00  0.00    +0.000 OA
BRANCH  21  22
ATOM     22  C   UNL     1       7.674   7.733  17.704  0.00  0.00    +0.000 C 
BRANCH  22  23
ATOM     23  C   UNL     1       8.225   9.150  17.802  0.00  0.00    +0.000 C 
BRANCH  23  24
ATOM     24  O   UNL     1       8.865   9.263  19.077  0.00  0.00    +0.000 OA
BRANCH  24  25
ATOM     25  C   UNL     1       9.666  10.441  19.185  0.00  0.00    +0.000 C 
BRANCH  25  26
ATOM     26  C   UNL     1       9.043  11.370  20.238  0.00  0.00    +0.000 C 
BRANCH  26  27
ATOM     27  N   UNL     1       9.348  10.927  21.602  0.00  0.00    +0.000 NA
ATOM     28  H   UNL     1       8.498  10.581  22.043  0.00  0.00    +0.000 HD
ATOM     29  H   UNL     1       9.635  11.751  22.138  0.00  0.00    +0.000 HD
ENDBRANCH  26  27
ENDBRANCH  25  26
ENDBRANCH  24  25
ENDBRANCH  23  24
ENDBRANCH  22  23
ENDBRANCH  21  22
ENDBRANCH  15  21
ENDBRANCH   1  20
BRANCH  12  30
ATOM     30  N   UNL     1       3.870   2.652  20.795  0.00  0.00    +0.000 N 
ATOM     31  O   UNL     1       3.433   2.016  21.775  0.00  0.00    +0.000 OA
ATOM     32  O   UNL     1       4.825   2.270  20.095  0.00  0.00    +0.000 OA
ENDBRANCH  12  30
TORSDOF 9
ENDMDL
MODEL 4
REMARK VINA RESULT:      -6.6      6.478      9.918
REMARK  Name = 
REMARK  9 active torsions:
REMARK  status: ('A' for Active; 'I' for Inactive)
REMARK    1  A    between atoms: N_1  and  C_2
REMARK    2  A    between atoms: C_2  and  C_3
REMARK    3  A    between atoms: C_3  and  O_4
REMARK    4  A    between atoms: O_4  and  C_5
REMARK    5  A    between atoms: C_5  and  C_6
REMARK    6  A    between atoms: C_6  and  O_7
REMARK    7  A    between atoms: O_7  and  C_8
REMARK    8  A    between atoms: C_13  and  C_14
REMARK    9  A    between atoms: C_25  and  N_26
REMARK                            x       y       z     vdW  Elec       q    Type
REMARK                         _______ _______ _______ _____ _____    ______ ____
ROOT
ATOM      1  C   UNL     1       1.639  11.625  19.198  0.00  0.00    +0.000 C 
ATOM      2  C   UNL     1       0.914  10.502  19.378  0.00  0.00    +0.000 C 
ATOM      3  C   UNL     1       1.597   9.200  19.169  0.00  0.00    +0.000 A 
ATOM      4  C   UNL     1       2.308   8.714  18.082  0.00  0.00    +0.000 A 
ATOM      5  C   UNL     1       2.713   7.379  18.115  0.00  0.00    +0.000 A 
ATOM      6  C   UNL     1       2.398   6.568  19.219  0.00  0.00    +0.000 A 
ATOM      7  C   UNL     1       1.717   7.088  20.329  0.00  0.00    +0.000 A 
ATOM      8  C   UNL     1       1.332   8.416  20.306  0.00  0.00    +0.000 A 
ATOM      9  C   UNL     1       0.569   9.208  21.261  0.00  0.00    +0.000 A 
ATOM     10  C   UNL     1       0.357   9.008  22.612  0.00  0.00    +0.000 A 
ATOM     11  C   UNL     1      -0.412   9.955  23.300  0.00  0.00    +0.000 A 
ATOM     12  C   UNL     1      -0.992  11.048  22.615  0.00  0.00    +0.000 A 
ATOM     13  C   UNL     1      -0.717  11.295  21.269  0.00  0.00    +0.000 A 
ATOM     14  C   UNL     1       0.123  10.404  20.634  0.00  0.00    +0.000 A 
ENDROOT
BRANCH   1  20
ATOM     15  C   UNL     1      -0.005  13.441  18.387  0.00  0.00    +0.000 A 
ATOM     16  C   UNL     1      -0.285  14.819  18.297  0.00  0.00    +0.000 A 
ATOM     17  C   UNL     1       0.556  15.779  18.861  0.00  0.00    +0.000 A 
ATOM     18  C   UNL     1       1.688  15.373  19.545  0.00  0.00    +0.000 A 
ATOM     19  C   UNL     1       1.983  14.013  19.641  0.00  0.00    +0.000 A 
ATOM     20  C   UNL     1       1.186  13.021  19.022  0.00  0.00    +0.000 A 
BRANCH  15  21
ATOM     21  O   UNL     1      -0.992  12.699  17.778  0.00  0.00    +0.000 OA
BRANCH  21  22
ATOM     22  C   UNL     1      -2.163  12.384  18.515  0.00  0.00    +0.000 C 
BRANCH  22  23
ATOM     23  C   UNL     1      -2.830  11.105  18.021  0.00  0.00    +0.000 C 
BRANCH  23  24
ATOM     24  O   UNL     1      -3.781  11.489  17.023  0.00  0.00    +0.000 OA
BRANCH  24  25
ATOM     25  C   UNL     1      -5.034  11.885  17.586  0.00  0.00    +0.000 C 
BRANCH  25  26
ATOM     26  C   UNL     1      -5.660  10.681  18.305  0.00  0.00    +0.000 C 
BRANCH  26  27
ATOM     27  N   UNL     1      -7.102  10.859  18.505  0.00  0.00    +0.000 NA
ATOM     28  H   UNL     1      -7.483  10.035  18.967  0.00  0.00    +0.000 HD
ATOM     29  H   UNL     1      -7.540  10.898  17.582  0.00  0.00    +0.000 HD
ENDBRANCH  26  27
ENDBRANCH  25  26
ENDBRANCH  24  25
ENDBRANCH  23  24
ENDBRANCH  22  23
ENDBRANCH  21  22
ENDBRANCH  15  21
ENDBRANCH   1  20
BRANCH  12  30
ATOM     30  N   UNL     1      -1.888  11.949  23.331  0.00  0.00    +0.000 N 
ATOM     31  O   UNL     1      -3.016  11.521  23.649  0.00  0.00    +0.000 OA
ATOM     32  O   UNL     1      -1.484  13.094  23.601  0.00  0.00    +0.000 OA
ENDBRANCH  12  30
TORSDOF 9
ENDMDL
MODEL 5
REMARK VINA RESULT:      -6.6      6.433      9.508
REMARK  Name = 
REMARK  9 active torsions:
REMARK  status: ('A' for Active; 'I' for Inactive)
REMARK    1  A    between atoms: N_1  and  C_2
REMARK    2  A    between atoms: C_2  and  C_3
REMARK    3  A    between atoms: C_3  and  O_4
REMARK    4  A    between atoms: O_4  and  C_5
REMARK    5  A    between atoms: C_5  and  C_6
REMARK    6  A    between atoms: C_6  and  O_7
REMARK    7  A    between atoms: O_7  and  C_8
REMARK    8  A    between atoms: C_13  and  C_14
REMARK    9  A    between atoms: C_25  and  N_26
REMARK                            x       y       z     vdW  Elec       q    Type
REMARK                         _______ _______ _______ _____ _____    ______ ____
ROOT
ATOM      1  C   UNL     1       1.581  11.629  19.208  0.00  0.00    +0.000 C 
ATOM      2  C   UNL     1       0.857  10.510  19.414  0.00  0.00    +0.000 C 
ATOM      3  C   UNL     1       1.541   9.203  19.233  0.00  0.00    +0.000 A 
ATOM      4  C   UNL     1       2.250   8.694  18.156  0.00  0.00    +0.000 A 
ATOM      5  C   UNL     1       2.656   7.361  18.219  0.00  0.00    +0.000 A 
ATOM      6  C   UNL     1       2.343   6.574  19.341  0.00  0.00    +0.000 A 
ATOM      7  C   UNL     1       1.663   7.118  20.440  0.00  0.00    +0.000 A 
ATOM      8  C   UNL     1       1.278   8.446  20.388  0.00  0.00    +0.000 A 
ATOM      9  C   UNL     1       0.515   9.258  21.326  0.00  0.00    +0.000 A 
ATOM     10  C   UNL     1       0.305   9.087  22.681  0.00  0.00    +0.000 A 
ATOM     11  C   UNL     1      -0.463  10.049  23.350  0.00  0.00    +0.000 A 
ATOM     12  C   UNL     1      -1.044  11.127  22.641  0.00  0.00    +0.000 A 
ATOM     13  C   UNL     1      -0.771  11.344  21.289  0.00  0.00    +0.000 A 
ATOM     14  C   UNL     1       0.068  10.440  20.674  0.00  0.00    +0.000 A 
ENDROOT
BRANCH   1  20
ATOM     15  C   UNL     1      -0.203  13.443  18.782  0.00  0.00    +0.000 A 
ATOM     16  C   UNL     1      -0.465  14.815  18.596  0.00  0.00    +0.000 A 
ATOM     17  C   UNL     1       0.545  15.774  18.672  0.00  0.00    +0.000 A 
ATOM     18  C   UNL     1       1.841  15.376  18.956  0.00  0.00    +0.000 A 
ATOM     19  C   UNL     1       2.118  14.022  19.140  0.00  0.00    +0.000 A 
ATOM     20  C   UNL     1       1.128  13.020  19.002  0.00  0.00    +0.000 A 
BRANCH  15  21
ATOM     21  O   UNL     1      -1.361  12.705  18.685  0.00  0.00    +0.000 OA
BRANCH  21  22
ATOM     22  C   UNL     1      -1.600  11.961  17.500  0.00  0.00    +0.000 C 
BRANCH  22  23
ATOM     23  C   UNL     1      -3.053  11.516  17.381  0.00  0.00    +0.000 C 
BRANCH  23  24
ATOM     24  O   UNL     1      -3.045  10.089  17.270  0.00  0.00    +0.000 OA
BRANCH  24  25
ATOM     25  C   UNL     1      -2.631   9.643  15.977  0.00  0.00    +0.000 C 
BRANCH  25  26
ATOM     26  C   UNL     1      -3.488  10.343  14.912  0.00  0.00    +0.000 C 
BRANCH  26  27
ATOM     27  N   UNL     1      -2.919  10.187  13.569  0.00  0.00    +0.000 NA
ATOM     28  H   UNL     1      -2.102  10.787  13.476  0.00  0.00    +0.000 HD
ATOM     29  H   UNL     1      -3.609  10.535  12.898  0.00  0.00    +0.000 HD
ENDBRANCH  26  27
ENDBRANCH  25  26
ENDBRANCH  24  25
ENDBRANCH  23  24
ENDBRANCH  22  23
ENDBRANCH  21  22
ENDBRANCH  15  21
ENDBRANCH   1  20
BRANCH  12  30
ATOM     30  N   UNL     1      -1.940  12.043  23.338  0.00  0.00    +0.000 N 
ATOM     31  O   UNL     1      -3.062  11.617  23.681  0.00  0.00    +0.000 OA
ATOM     32  O   UNL     1      -1.542  13.199  23.569  0.00  0.00    +0.000 OA
ENDBRANCH  12  30
TORSDOF 9
ENDMDL
MODEL 6
REMARK VINA RESULT:      -6.5      6.995     10.188
REMARK  Name = 
REMARK  9 active torsions:
REMARK  status: ('A' for Active; 'I' for Inactive)
REMARK    1  A    between atoms: N_1  and  C_2
REMARK    2  A    between atoms: C_2  and  C_3
REMARK    3  A    between atoms: C_3  and  O_4
REMARK    4  A    between atoms: O_4  and  C_5
REMARK    5  A    between atoms: C_5  and  C_6
REMARK    6  A    between atoms: C_6  and  O_7
REMARK    7  A    between atoms: O_7  and  C_8
REMARK    8  A    between atoms: C_13  and  C_14
REMARK    9  A    between atoms: C_25  and  N_26
REMARK                            x       y       z     vdW  Elec       q    Type
REMARK                         _______ _______ _______ _____ _____    ______ ____
ROOT
ATOM      1  C   UNL     1      -1.655  13.871  20.390  0.00  0.00    +0.000 C 
ATOM      2  C   UNL     1      -2.529  12.880  20.660  0.00  0.00    +0.000 C 
ATOM      3  C   UNL     1      -3.627  13.170  21.618  0.00  0.00    +0.000 A 
ATOM      4  C   UNL     1      -3.591  13.658  22.916  0.00  0.00    +0.000 A 
ATOM      5  C   UNL     1      -4.788  13.686  23.631  0.00  0.00    +0.000 A 
ATOM      6  C   UNL     1      -5.979  13.227  23.044  0.00  0.00    +0.000 A 
ATOM      7  C   UNL     1      -6.005  12.777  21.716  0.00  0.00    +0.000 A 
ATOM      8  C   UNL     1      -4.823  12.768  20.998  0.00  0.00    +0.000 A 
ATOM      9  C   UNL     1      -4.526  12.304  19.649  0.00  0.00    +0.000 A 
ATOM     10  C   UNL     1      -5.367  12.124  18.567  0.00  0.00    +0.000 A 
ATOM     11  C   UNL     1      -4.799  11.682  17.365  0.00  0.00    +0.000 A 
ATOM     12  C   UNL     1      -3.419  11.383  17.287  0.00  0.00    +0.000 A 
ATOM     13  C   UNL     1      -2.555  11.637  18.353  0.00  0.00    +0.000 A 
ATOM     14  C   UNL     1      -3.119  12.166  19.496  0.00  0.00    +0.000 A 
ENDROOT
BRANCH   1  20
ATOM     15  C   UNL     1       0.589  12.728  19.832  0.00  0.00    +0.000 A 
ATOM     16  C   UNL     1       1.829  12.830  19.169  0.00  0.00    +0.000 A 
ATOM     17  C   UNL     1       2.161  13.944  18.398  0.00  0.00    +0.000 A 
ATOM     18  C   UNL     1       1.246  14.973  18.260  0.00  0.00    +0.000 A 
ATOM     19  C   UNL     1       0.016  14.890  18.912  0.00  0.00    +0.000 A 
ATOM     20  C   UNL     1      -0.323  13.805  19.755  0.00  0.00    +0.000 A 
BRANCH  15  21
ATOM     21  O   UNL     1       0.488  11.530  20.503  0.00  0.00    +0.000 OA
BRANCH  21  22
ATOM     22  C   UNL     1       0.579  10.322  19.762  0.00  0.00    +0.000 C 
BRANCH  22  23
ATOM     23  C   UNL     1       0.905   9.125  20.648  0.00  0.00    +0.000 C 
BRANCH  23  24
ATOM     24  O   UNL     1      -0.250   8.878  21.457  0.00  0.00    +0.000 OA
BRANCH  24  25
ATOM     25  C   UNL     1      -0.046   9.239  22.825  0.00  0.00    +0.000 C 
BRANCH  25  26
ATOM     26  C   UNL     1      -1.077  10.308  23.216  0.00  0.00    +0.000 C 
BRANCH  26  27
ATOM     27  N   UNL     1      -0.519  11.661  23.121  0.00  0.00    +0.000 NA
ATOM     28  H   UNL     1      -0.527  11.962  22.148  0.00  0.00    +0.000 HD
ATOM     29  H   UNL     1       0.464  11.610  23.397  0.00  0.00    +0.000 HD
ENDBRANCH  26  27
ENDBRANCH  25  26
ENDBRANCH  24  25
ENDBRANCH  23  24
ENDBRANCH  22  23
ENDBRANCH  21  22
ENDBRANCH  15  21
ENDBRANCH   1  20
BRANCH  12  30
ATOM     30  N   UNL     1      -2.879  10.808  16.060  0.00  0.00    +0.000 N 
ATOM     31  O   UNL     1      -2.001   9.928  16.163  0.00  0.00    +0.000 OA
ATOM     32  O   UNL     1      -3.325  11.213  14.971  0.00  0.00    +0.000 OA
ENDBRANCH  12  30
TORSDOF 9
ENDMDL
MODEL 7
REMARK VINA RESULT:      -6.4      6.779     10.284
REMARK  Name = 
REMARK  9 active torsions:
REMARK  status: ('A' for Active; 'I' for Inactive)
REMARK    1  A    between atoms: N_1  and  C_2
REMARK    2  A    between atoms: C_2  and  C_3
REMARK    3  A    between atoms: C_3  and  O_4
REMARK    4  A    between atoms: O_4  and  C_5
REMARK    5  A    between atoms: C_5  and  C_6
REMARK    6  A    between atoms: C_6  and  O_7
REMARK    7  A    between atoms: O_7  and  C_8
REMARK    8  A    between atoms: C_13  and  C_14
REMARK    9  A    between atoms: C_25  and  N_26
REMARK                            x       y       z     vdW  Elec       q    Type
REMARK                         _______ _______ _______ _____ _____    ______ ____
ROOT
ATOM      1  C   UNL     1      -2.387  13.822  20.841  0.00  0.00    +0.000 C 
ATOM      2  C   UNL     1      -3.296  12.830  20.925  0.00  0.00    +0.000 C 
ATOM      3  C   UNL     1      -4.547  13.103  21.679  0.00  0.00    +0.000 A 
ATOM      4  C   UNL     1      -4.742  13.558  22.974  0.00  0.00    +0.000 A 
ATOM      5  C   UNL     1      -6.048  13.576  23.465  0.00  0.00    +0.000 A 
ATOM      6  C   UNL     1      -7.115  13.139  22.663  0.00  0.00    +0.000 A 
ATOM      7  C   UNL     1      -6.904  12.723  21.340  0.00  0.00    +0.000 A 
ATOM      8  C   UNL     1      -5.613  12.724  20.845  0.00  0.00    +0.000 A 
ATOM      9  C   UNL     1      -5.081  12.292  19.559  0.00  0.00    +0.000 A 
ATOM     10  C   UNL     1      -5.715  12.143  18.341  0.00  0.00    +0.000 A 
ATOM     11  C   UNL     1      -4.943  11.729  17.248  0.00  0.00    +0.000 A 
ATOM     12  C   UNL     1      -3.571  11.423  17.410  0.00  0.00    +0.000 A 
ATOM     13  C   UNL     1      -2.911  11.645  18.620  0.00  0.00    +0.000 A 
ATOM     14  C   UNL     1      -3.670  12.149  19.656  0.00  0.00    +0.000 A 
ENDROOT
BRANCH   1  20
ATOM     15  C   UNL     1       0.052  13.020  21.098  0.00  0.00    +0.000 A 
ATOM     16  C   UNL     1       1.370  13.082  20.601  0.00  0.00    +0.000 A 
ATOM     17  C   UNL     1       1.692  13.816  19.460  0.00  0.00    +0.000 A 
ATOM     18  C   UNL     1       0.693  14.491  18.780  0.00  0.00    +0.000 A 
ATOM     19  C   UNL     1      -0.616  14.444  19.261  0.00  0.00    +0.000 A 
ATOM     20  C   UNL     1      -0.962  13.765  20.453  0.00  0.00    +0.000 A 
BRANCH  15  21
ATOM     21  O   UNL     1      -0.015  12.215  22.213  0.00  0.00    +0.000 OA
BRANCH  21  22
ATOM     22  C   UNL     1      -0.448  10.872  22.061  0.00  0.00    +0.000 C 
BRANCH  22  23
ATOM     23  C   UNL     1       0.688   9.942  21.651  0.00  0.00    +0.000 C 
BRANCH  23  24
ATOM     24  O   UNL     1       0.215   9.167  20.545  0.00  0.00    +0.000 OA
BRANCH  24  25
ATOM     25  C   UNL     1       0.276   9.883  19.309  0.00  0.00    +0.000 C 
BRANCH  25  26
ATOM     26  C   UNL     1       1.463   9.357  18.488  0.00  0.00    +0.000 C 
BRANCH  26  27
ATOM     27  N   UNL     1       1.955  10.363  17.540  0.00  0.00    +0.000 NA
ATOM     28  H   UNL     1       1.389  11.206  17.618  0.00  0.00    +0.000 HD
ATOM     29  H   UNL     1       1.801  10.000  16.596  0.00  0.00    +0.000 HD
ENDBRANCH  26  27
ENDBRANCH  25  26
ENDBRANCH  24  25
ENDBRANCH  23  24
ENDBRANCH  22  23
ENDBRANCH  21  22
ENDBRANCH  15  21
ENDBRANCH   1  20
BRANCH  12  30
ATOM     30  N   UNL     1      -2.822  10.876  16.285  0.00  0.00    +0.000 N 
ATOM     31  O   UNL     1      -1.897  10.075  16.531  0.00  0.00    +0.000 OA
ATOM     32  O   UNL     1      -3.145  11.223  15.134  0.00  0.00    +0.000 OA
ENDBRANCH  12  30
TORSDOF 9
ENDMDL
MODEL 8
REMARK VINA RESULT:      -6.4      7.117     10.435
REMARK  Name = 
REMARK  9 active torsions:
REMARK  status: ('A' for Active; 'I' for Inactive)
REMARK    1  A    between atoms: N_1  and  C_2
REMARK    2  A    between atoms: C_2  and  C_3
REMARK    3  A    between atoms: C_3  and  O_4
REMARK    4  A    between atoms: O_4  and  C_5
REMARK    5  A    between atoms: C_5  and  C_6
REMARK    6  A    between atoms: C_6  and  O_7
REMARK    7  A    between atoms: O_7  and  C_8
REMARK    8  A    between atoms: C_13  and  C_14
REMARK    9  A    between atoms: C_25  and  N_26
REMARK                            x       y       z     vdW  Elec       q    Type
REMARK                         _______ _______ _______ _____ _____    ______ ____
ROOT
ATOM      1  C   UNL     1      -2.084  12.221  19.944  0.00  0.00    +0.000 C 
ATOM      2  C   UNL     1      -3.176  12.955  20.235  0.00  0.00    +0.000 C 
ATOM      3  C   UNL     1      -4.502  12.399  19.860  0.00  0.00    +0.000 A 
ATOM      4  C   UNL     1      -4.981  11.945  18.640  0.00  0.00    +0.000 A 
ATOM      5  C   UNL     1      -6.333  11.614  18.557  0.00  0.00    +0.000 A 
ATOM      6  C   UNL     1      -7.169  11.748  19.679  0.00  0.00    +0.000 A 
ATOM      7  C   UNL     1      -6.658  12.167  20.916  0.00  0.00    +0.000 A 
ATOM      8  C   UNL     1      -5.313  12.475  21.005  0.00  0.00    +0.000 A 
ATOM      9  C   UNL     1      -4.521  12.991  22.114  0.00  0.00    +0.000 A 
ATOM     10  C   UNL     1      -4.761  12.942  23.474  0.00  0.00    +0.000 A 
ATOM     11  C   UNL     1      -3.804  13.506  24.327  0.00  0.00    +0.000 A 
ATOM     12  C   UNL     1      -2.659  14.150  23.801  0.00  0.00    +0.000 A 
ATOM     13  C   UNL     1      -2.377  14.134  22.434  0.00  0.00    +0.000 A 
ATOM     14  C   UNL     1      -3.283  13.486  21.621  0.00  0.00    +0.000 A 
ENDROOT
BRANCH   1  20
ATOM     15  C   UNL     1       0.357  12.194  20.780  0.00  0.00    +0.000 A 
ATOM     16  C   UNL     1       1.667  12.681  20.601  0.00  0.00    +0.000 A 
ATOM     17  C   UNL     1       1.998  13.535  19.548  0.00  0.00    +0.000 A 
ATOM     18  C   UNL     1       1.021  13.904  18.639  0.00  0.00    +0.000 A 
ATOM     19  C   UNL     1      -0.282  13.434  18.804  0.00  0.00    +0.000 A 
ATOM     20  C   UNL     1      -0.663  12.623  19.899  0.00  0.00    +0.000 A 
BRANCH  15  21
ATOM     21  O   UNL     1       0.290  11.353  21.867  0.00  0.00    +0.000 OA
BRANCH  21  22
ATOM     22  C   UNL     1       0.907  10.077  21.784  0.00  0.00    +0.000 C 
BRANCH  22  23
ATOM     23  C   UNL     1       0.338   9.235  20.647  0.00  0.00    +0.000 C 
BRANCH  23  24
ATOM     24  O   UNL     1       1.334   8.266  20.307  0.00  0.00    +0.000 OA
BRANCH  24  25
ATOM     25  C   UNL     1       1.919   8.508  19.026  0.00  0.00    +0.000 C 
BRANCH  25  26
ATOM     26  C   UNL     1       1.073   9.552  18.283  0.00  0.00    +0.000 C 
BRANCH  26  27
ATOM     27  N   UNL     1       1.910  10.503  17.544  0.00  0.00    +0.000 NA
ATOM     28  H   UNL     1       1.432  11.401  17.489  0.00  0.00    +0.000 HD
ATOM     29  H   UNL     1       1.991  10.162  16.583  0.00  0.00    +0.000 HD
ENDBRANCH  26  27
ENDBRANCH  25  26
ENDBRANCH  24  25
ENDBRANCH  23  24
ENDBRANCH  22  23
ENDBRANCH  21  22
ENDBRANCH  15  21
ENDBRANCH   1  20
BRANCH  12  30
ATOM     30  N   UNL     1      -1.744  14.836  24.705  0.00  0.00    +0.000 N 
ATOM     31  O   UNL     1      -0.592  15.084  24.296  0.00  0.00    +0.000 OA
ATOM     32  O   UNL     1      -2.156  15.152  25.836  0.00  0.00    +0.000 OA
ENDBRANCH  12  30
TORSDOF 9
ENDMDL
MODEL 9
REMARK VINA RESULT:      -6.3      5.489      8.016
REMARK  Name = 
REMARK  9 active torsions:
REMARK  status: ('A' for Active; 'I' for Inactive)
REMARK    1  A    between atoms: N_1  and  C_2
REMARK    2  A    between atoms: C_2  and  C_3
REMARK    3  A    between atoms: C_3  and  O_4
REMARK    4  A    between atoms: O_4  and  C_5
REMARK    5  A    between atoms: C_5  and  C_6
REMARK    6  A    between atoms: C_6  and  O_7
REMARK    7  A    between atoms: O_7  and  C_8
REMARK    8  A    between atoms: C_13  and  C_14
REMARK    9  A    between atoms: C_25  and  N_26
REMARK                            x       y       z     vdW  Elec       q    Type
REMARK                         _______ _______ _______ _____ _____    ______ ____
ROOT
ATOM      1  C   UNL     1       1.779  11.814  19.175  0.00  0.00    +0.000 C 
ATOM      2  C   UNL     1       1.020  10.706  19.285  0.00  0.00    +0.000 C 
ATOM      3  C   UNL     1       1.663   9.397  19.003  0.00  0.00    +0.000 A 
ATOM      4  C   UNL     1       2.366   8.954  17.893  0.00  0.00    +0.000 A 
ATOM      5  C   UNL     1       2.729   7.608  17.850  0.00  0.00    +0.000 A 
ATOM      6  C   UNL     1       2.383   6.744  18.902  0.00  0.00    +0.000 A 
ATOM      7  C   UNL     1       1.711   7.218  20.038  0.00  0.00    +0.000 A 
ATOM      8  C   UNL     1       1.368   8.557  20.091  0.00  0.00    +0.000 A 
ATOM      9  C   UNL     1       0.623   9.315  21.088  0.00  0.00    +0.000 A 
ATOM     10  C   UNL     1       0.396   9.042  22.423  0.00  0.00    +0.000 A 
ATOM     11  C   UNL     1      -0.347   9.971  23.163  0.00  0.00    +0.000 A 
ATOM     12  C   UNL     1      -0.889  11.120  22.540  0.00  0.00    +0.000 A 
ATOM     13  C   UNL     1      -0.598  11.437  21.212  0.00  0.00    +0.000 A 
ATOM     14  C   UNL     1       0.218  10.559  20.530  0.00  0.00    +0.000 A 
ENDROOT
BRANCH   1  20
ATOM     15  C   UNL     1       2.186  14.356  19.342  0.00  0.00    +0.000 A 
ATOM     16  C   UNL     1       1.636  15.647  19.209  0.00  0.00    +0.000 A 
ATOM     17  C   UNL     1       0.325  15.847  18.776  0.00  0.00    +0.000 A 
ATOM     18  C   UNL     1      -0.457  14.754  18.448  0.00  0.00    +0.000 A 
ATOM     19  C   UNL     1       0.070  13.469  18.577  0.00  0.00    +0.000 A 
ATOM     20  C   UNL     1       1.371  13.231  19.079  0.00  0.00    +0.000 A 
BRANCH  15  21
ATOM     21  O   UNL     1       3.497  14.422  19.758  0.00  0.00    +0.000 OA
BRANCH  21  22
ATOM     22  C   UNL     1       4.373  15.334  19.115  0.00  0.00    +0.000 C 
BRANCH  22  23
ATOM     23  C   UNL     1       5.108  14.697  17.941  0.00  0.00    +0.000 C 
BRANCH  23  24
ATOM     24  O   UNL     1       6.426  15.256  17.921  0.00  0.00    +0.000 OA
BRANCH  24  25
ATOM     25  C   UNL     1       7.443  14.256  17.838  0.00  0.00    +0.000 C 
BRANCH  25  26
ATOM     26  C   UNL     1       8.783  14.873  18.263  0.00  0.00    +0.000 C 
BRANCH  26  27
ATOM     27  N   UNL     1       9.301  15.797  17.248  0.00  0.00    +0.000 NA
ATOM     28  H   UNL     1       9.009  15.482  16.324  0.00  0.00    +0.000 HD
ATOM     29  H   UNL     1      10.322  15.734  17.264  0.00  0.00    +0.000 HD
ENDBRANCH  26  27
ENDBRANCH  25  26
ENDBRANCH  24  25
ENDBRANCH  23  24
ENDBRANCH  22  23
ENDBRANCH  21  22
ENDBRANCH  15  21
ENDBRANCH   1  20
BRANCH  12  30
ATOM     30  N   UNL     1      -1.762  12.004  23.304  0.00  0.00    +0.000 N 
ATOM     31  O   UNL     1      -1.303  13.105  23.673  0.00  0.00    +0.000 OA
ATOM     32  O   UNL     1      -2.923  11.627  23.543  0.00  0.00    +0.000 OA
ENDBRANCH  12  30
TORSDOF 9
ENDMDL
