MODEL 1
REMARK VINA RESULT:      -7.6      0.000      0.000
REMARK  Name = 
REMARK  5 active torsions:
REMARK  status: ('A' for Active; 'I' for Inactive)
REMARK    1  A    between atoms: C_1  and  C_2
REMARK    2  A    between atoms: C_3  and  C_4
REMARK    3  A    between atoms: C_13  and  C_14
REMARK    4  A    between atoms: C_26  and  S_27
REMARK    5  A    between atoms: S_27  and  C_28
REMARK                            x       y       z     vdW  Elec       q    Type
REMARK                         _______ _______ _______ _____ _____    ______ ____
ROOT
ATOM      1  C   UNL     1      -3.880  13.046  23.959  0.00  0.00    +0.000 C 
ATOM      2  O   UNL     1      -3.823  12.653  25.122  0.00  0.00    +0.000 OA
ATOM      3  N   UNL     1      -5.092  13.433  23.359  0.00  0.00    +0.000 N 
ATOM      4  C   UNL     1      -6.323  13.377  24.168  0.00  0.00    +0.000 C 
ATOM      5  C   UNL     1      -7.466  12.532  23.575  0.00  0.00    +0.000 C 
ATOM      6  O   UNL     1      -7.916  12.965  22.286  0.00  0.00    +0.000 OA
ATOM      7  C   UNL     1      -7.104  12.487  21.286  0.00  0.00    +0.000 A 
ATOM      8  C   UNL     1      -7.593  11.471  20.466  0.00  0.00    +0.000 A 
ATOM      9  C   UNL     1      -6.824  11.001  19.399  0.00  0.00    +0.000 A 
ATOM     10  C   UNL     1      -5.575  11.571  19.091  0.00  0.00    +0.000 A 
ATOM     11  C   UNL     1      -5.136  12.624  19.921  0.00  0.00    +0.000 A 
ATOM     12  C   UNL     1      -5.854  13.048  21.054  0.00  0.00    +0.000 A 
ATOM     13  C   UNL     1      -5.258  14.036  22.026  0.00  0.00    +0.000 C 
ENDROOT
BRANCH  10  14
ATOM     14  C   UNL     1      -4.739  11.086  17.968  0.00  0.00    +0.000 A 
ATOM     15  C   UNL     1      -3.682  10.185  18.141  0.00  0.00    +0.000 A 
ATOM     16  C   UNL     1      -2.906   9.773  17.052  0.00  0.00    +0.000 A 
ATOM     17  C   UNL     1      -3.193  10.274  15.794  0.00  0.00    +0.000 A 
ATOM     18  N   UNL     1      -2.422   9.921  14.692  0.00  0.00    +0.000 N 
ATOM     19  N   UNL     1      -4.186  11.143  15.577  0.00  0.00    +0.000 NA
ATOM     20  C   UNL     1      -4.930  11.518  16.651  0.00  0.00    +0.000 A 
ATOM     21  H   UNL     1      -2.374   8.917  14.572  0.00  0.00    +0.000 HD
ATOM     22  H   UNL     1      -2.838  10.379  13.883  0.00  0.00    +0.000 HD
ENDBRANCH  10  14
BRANCH   1  25
ATOM     23  C   UNL     1      -1.655  15.157  24.390  0.00  0.00    +0.000 C 
ATOM     24  C   UNL     1      -1.607  14.064  23.366  0.00  0.00    +0.000 A 
ATOM     25  C   UNL     1      -2.596  13.072  23.188  0.00  0.00    +0.000 A 
ATOM     26  C   UNL     1      -2.322  11.998  22.325  0.00  0.00    +0.000 A 
ATOM     27  C   UNL     1      -1.192  11.983  21.504  0.00  0.00    +0.000 A 
ATOM     28  C   UNL     1      -0.273  13.019  21.609  0.00  0.00    +0.000 A 
ATOM     29  C   UNL     1      -0.474  14.036  22.532  0.00  0.00    +0.000 A 
ATOM     30  F   UNL     1       0.447  15.004  22.666  0.00  0.00    +0.000 F 
BRANCH  28  31
ATOM     31  S   UNL     1       1.203  13.021  20.647  0.00  0.00    +0.000 S 
ATOM     32  C   UNL     1       1.023  14.417  19.565  0.00  0.00    +0.000 C 
ATOM     33  O   UNL     1       2.303  13.322  21.549  0.00  0.00    +0.000 OA
ATOM     34  O   UNL     1       1.212  11.801  19.862  0.00  0.00    +0.000 OA
ENDBRANCH  28  31
ENDBRANCH   1  25
TORSDOF 3
ENDMDL
MODEL 2
REMARK VINA RESULT:      -7.4      0.840      1.179
REMARK  Name = 
REMARK  5 active torsions:
REMARK  status: ('A' for Active; 'I' for Inactive)
REMARK    1  A    between atoms: C_1  and  C_2
REMARK    2  A    between atoms: C_3  and  C_4
REMARK    3  A    between atoms: C_13  and  C_14
REMARK    4  A    between atoms: C_26  and  S_27
REMARK    5  A    between atoms: S_27  and  C_28
REMARK                            x       y       z     vdW  Elec       q    Type
REMARK                         _______ _______ _______ _____ _____    ______ ____
ROOT
ATOM      1  C   UNL     1      -3.867  13.043  23.841  0.00  0.00    +0.000 C 
ATOM      2  O   UNL     1      -3.769  12.652  25.002  0.00  0.00    +0.000 OA
ATOM      3  N   UNL     1      -5.110  13.355  23.260  0.00  0.00    +0.000 N 
ATOM      4  C   UNL     1      -6.323  13.220  24.086  0.00  0.00    +0.000 C 
ATOM      5  C   UNL     1      -7.419  12.305  23.507  0.00  0.00    +0.000 C 
ATOM      6  O   UNL     1      -7.914  12.711  22.226  0.00  0.00    +0.000 OA
ATOM      7  C   UNL     1      -7.088  12.288  21.213  0.00  0.00    +0.000 A 
ATOM      8  C   UNL     1      -7.524  11.245  20.397  0.00  0.00    +0.000 A 
ATOM      9  C   UNL     1      -6.742  10.827  19.317  0.00  0.00    +0.000 A 
ATOM     10  C   UNL     1      -5.536  11.475  18.993  0.00  0.00    +0.000 A 
ATOM     11  C   UNL     1      -5.153  12.551  19.821  0.00  0.00    +0.000 A 
ATOM     12  C   UNL     1      -5.880  12.927  20.964  0.00  0.00    +0.000 A 
ATOM     13  C   UNL     1      -5.333  13.949  21.931  0.00  0.00    +0.000 C 
ENDROOT
BRANCH  10  14
ATOM     14  C   UNL     1      -4.688  11.045  17.857  0.00  0.00    +0.000 A 
ATOM     15  C   UNL     1      -4.857  11.533  16.556  0.00  0.00    +0.000 A 
ATOM     16  C   UNL     1      -4.044  11.079  15.510  0.00  0.00    +0.000 A 
ATOM     17  C   UNL     1      -3.071  10.133  15.776  0.00  0.00    +0.000 A 
ATOM     18  N   UNL     1      -2.270   9.626  14.759  0.00  0.00    +0.000 N 
ATOM     19  N   UNL     1      -2.876   9.629  17.000  0.00  0.00    +0.000 NA
ATOM     20  C   UNL     1      -3.672  10.095  17.999  0.00  0.00    +0.000 A 
ATOM     21  H   UNL     1      -1.791  10.362  14.255  0.00  0.00    +0.000 HD
ATOM     22  H   UNL     1      -1.615   8.979  15.195  0.00  0.00    +0.000 HD
ENDBRANCH  10  14
BRANCH   1  25
ATOM     23  C   UNL     1      -1.893  15.419  24.073  0.00  0.00    +0.000 C 
ATOM     24  C   UNL     1      -1.727  14.260  23.138  0.00  0.00    +0.000 A 
ATOM     25  C   UNL     1      -2.599  13.152  23.052  0.00  0.00    +0.000 A 
ATOM     26  C   UNL     1      -2.210  12.050  22.273  0.00  0.00    +0.000 A 
ATOM     27  C   UNL     1      -1.090  12.097  21.439  0.00  0.00    +0.000 A 
ATOM     28  C   UNL     1      -0.293  13.234  21.450  0.00  0.00    +0.000 A 
ATOM     29  C   UNL     1      -0.603  14.293  22.292  0.00  0.00    +0.000 A 
ATOM     30  F   UNL     1       0.202  15.366  22.336  0.00  0.00    +0.000 F 
BRANCH  28  31
ATOM     31  S   UNL     1       1.168  13.326  20.468  0.00  0.00    +0.000 S 
ATOM     32  C   UNL     1       1.217  11.777  19.604  0.00  0.00    +0.000 C 
ATOM     33  O   UNL     1       0.951  14.362  19.472  0.00  0.00    +0.000 OA
ATOM     34  O   UNL     1       2.296  13.408  21.377  0.00  0.00    +0.000 OA
ENDBRANCH  28  31
ENDBRANCH   1  25
TORSDOF 3
ENDMDL
MODEL 3
REMARK VINA RESULT:      -7.3      2.752      4.087
REMARK  Name = 
REMARK  5 active torsions:
REMARK  status: ('A' for Active; 'I' for Inactive)
REMARK    1  A    between atoms: C_1  and  C_2
REMARK    2  A    between atoms: C_3  and  C_4
REMARK    3  A    between atoms: C_13  and  C_14
REMARK    4  A    between atoms: C_26  and  S_27
REMARK    5  A    between atoms: S_27  and  C_28
REMARK                            x       y       z     vdW  Elec       q    Type
REMARK                         _______ _______ _______ _____ _____    ______ ____
ROOT
ATOM      1  C   UNL     1      -1.456  15.047  24.111  0.00  0.00    +0.000 C 
ATOM      2  O   UNL     1      -0.844  15.122  25.174  0.00  0.00    +0.000 OA
ATOM      3  N   UNL     1      -2.493  15.938  23.780  0.00  0.00    +0.000 N 
ATOM      4  C   UNL     1      -2.834  17.002  24.742  0.00  0.00    +0.000 C 
ATOM      5  C   UNL     1      -4.307  17.041  25.190  0.00  0.00    +0.000 C 
ATOM      6  O   UNL     1      -5.247  17.220  24.124  0.00  0.00    +0.000 OA
ATOM      7  C   UNL     1      -5.517  16.031  23.490  0.00  0.00    +0.000 A 
ATOM      8  C   UNL     1      -6.761  15.438  23.701  0.00  0.00    +0.000 A 
ATOM      9  C   UNL     1      -7.099  14.262  23.027  0.00  0.00    +0.000 A 
ATOM     10  C   UNL     1      -6.229  13.683  22.085  0.00  0.00    +0.000 A 
ATOM     11  C   UNL     1      -4.998  14.338  21.873  0.00  0.00    +0.000 A 
ATOM     12  C   UNL     1      -4.603  15.470  22.608  0.00  0.00    +0.000 A 
ATOM     13  C   UNL     1      -3.202  16.021  22.493  0.00  0.00    +0.000 C 
ENDROOT
BRANCH  10  14
ATOM     14  C   UNL     1      -6.564  12.434  21.362  0.00  0.00    +0.000 A 
ATOM     15  C   UNL     1      -6.020  12.109  20.114  0.00  0.00    +0.000 A 
ATOM     16  C   UNL     1      -6.385  10.927  19.459  0.00  0.00    +0.000 A 
ATOM     17  C   UNL     1      -7.300  10.080  20.060  0.00  0.00    +0.000 A 
ATOM     18  N   UNL     1      -7.720   8.916  19.425  0.00  0.00    +0.000 N 
ATOM     19  N   UNL     1      -7.854  10.349  21.247  0.00  0.00    +0.000 NA
ATOM     20  C   UNL     1      -7.475  11.499  21.865  0.00  0.00    +0.000 A 
ATOM     21  H   UNL     1      -6.939   8.324  19.171  0.00  0.00    +0.000 HD
ATOM     22  H   UNL     1      -8.358   8.447  20.065  0.00  0.00    +0.000 HD
ENDBRANCH  10  14
BRANCH   1  25
ATOM     23  C   UNL     1       0.787  15.288  21.988  0.00  0.00    +0.000 C 
ATOM     24  C   UNL     1      -0.070  14.075  22.190  0.00  0.00    +0.000 A 
ATOM     25  C   UNL     1      -1.067  13.939  23.181  0.00  0.00    +0.000 A 
ATOM     26  C   UNL     1      -1.650  12.677  23.378  0.00  0.00    +0.000 A 
ATOM     27  C   UNL     1      -1.411  11.611  22.506  0.00  0.00    +0.000 A 
ATOM     28  C   UNL     1      -0.506  11.785  21.468  0.00  0.00    +0.000 A 
ATOM     29  C   UNL     1       0.160  12.994  21.320  0.00  0.00    +0.000 A 
ATOM     30  F   UNL     1       1.073  13.135  20.347  0.00  0.00    +0.000 F 
BRANCH  28  31
ATOM     31  S   UNL     1      -0.115  10.458  20.375  0.00  0.00    +0.000 S 
ATOM     32  C   UNL     1      -1.112  10.761  18.938  0.00  0.00    +0.000 C 
ATOM     33  O   UNL     1       1.272  10.627  19.974  0.00  0.00    +0.000 OA
ATOM     34  O   UNL     1      -0.549   9.229  21.012  0.00  0.00    +0.000 OA
ENDBRANCH  28  31
ENDBRANCH   1  25
TORSDOF 3
ENDMDL
MODEL 4
REMARK VINA RESULT:      -7.2      3.860      6.082
REMARK  Name = 
REMARK  5 active torsions:
REMARK  status: ('A' for Active; 'I' for Inactive)
REMARK    1  A    between atoms: C_1  and  C_2
REMARK    2  A    between atoms: C_3  and  C_4
REMARK    3  A    between atoms: C_13  and  C_14
REMARK    4  A    between atoms: C_26  and  S_27
REMARK    5  A    between atoms: S_27  and  C_28
REMARK                            x       y       z     vdW  Elec       q    Type
REMARK                         _______ _______ _______ _____ _____    ______ ____
ROOT
ATOM      1  C   UNL     1      -4.012  13.913  21.200  0.00  0.00    +0.000 C 
ATOM      2  O   UNL     1      -5.114  13.450  20.914  0.00  0.00    +0.000 OA
ATOM      3  N   UNL     1      -3.771  15.298  21.241  0.00  0.00    +0.000 N 
ATOM      4  C   UNL     1      -4.890  16.212  20.947  0.00  0.00    +0.000 C 
ATOM      5  C   UNL     1      -4.638  17.222  19.812  0.00  0.00    +0.000 C 
ATOM      6  O   UNL     1      -3.523  18.096  20.032  0.00  0.00    +0.000 OA
ATOM      7  C   UNL     1      -2.338  17.488  19.695  0.00  0.00    +0.000 A 
ATOM      8  C   UNL     1      -1.686  17.909  18.536  0.00  0.00    +0.000 A 
ATOM      9  C   UNL     1      -0.448  17.361  18.192  0.00  0.00    +0.000 A 
ATOM     10  C   UNL     1       0.195  16.425  19.023  0.00  0.00    +0.000 A 
ATOM     11  C   UNL     1      -0.481  16.058  20.205  0.00  0.00    +0.000 A 
ATOM     12  C   UNL     1      -1.768  16.529  20.523  0.00  0.00    +0.000 A 
ATOM     13  C   UNL     1      -2.537  15.961  21.691  0.00  0.00    +0.000 C 
ENDROOT
BRANCH  10  14
ATOM     14  C   UNL     1       1.505  15.827  18.675  0.00  0.00    +0.000 A 
ATOM     15  C   UNL     1       1.857  14.516  19.017  0.00  0.00    +0.000 A 
ATOM     16  C   UNL     1       3.116  14.003  18.686  0.00  0.00    +0.000 A 
ATOM     17  C   UNL     1       4.019  14.813  18.019  0.00  0.00    +0.000 A 
ATOM     18  N   UNL     1       5.294  14.355  17.708  0.00  0.00    +0.000 N 
ATOM     19  N   UNL     1       3.734  16.075  17.678  0.00  0.00    +0.000 NA
ATOM     20  C   UNL     1       2.500  16.544  18.003  0.00  0.00    +0.000 A 
ATOM     21  H   UNL     1       5.266  13.496  17.174  0.00  0.00    +0.000 HD
ATOM     22  H   UNL     1       5.757  15.104  17.196  0.00  0.00    +0.000 HD
ENDBRANCH  10  14
BRANCH   1  25
ATOM     23  C   UNL     1      -1.949  12.985  19.084  0.00  0.00    +0.000 C 
ATOM     24  C   UNL     1      -2.006  12.487  20.497  0.00  0.00    +0.000 A 
ATOM     25  C   UNL     1      -2.916  12.932  21.480  0.00  0.00    +0.000 A 
ATOM     26  C   UNL     1      -2.722  12.521  22.810  0.00  0.00    +0.000 A 
ATOM     27  C   UNL     1      -1.781  11.546  23.149  0.00  0.00    +0.000 A 
ATOM     28  C   UNL     1      -0.958  11.033  22.154  0.00  0.00    +0.000 A 
ATOM     29  C   UNL     1      -1.064  11.504  20.853  0.00  0.00    +0.000 A 
ATOM     30  F   UNL     1      -0.228  11.043  19.909  0.00  0.00    +0.000 F 
BRANCH  28  31
ATOM     31  S   UNL     1       0.291   9.849  22.533  0.00  0.00    +0.000 S 
ATOM     32  C   UNL     1      -0.228   8.375  21.691  0.00  0.00    +0.000 C 
ATOM     33  O   UNL     1       1.515  10.296  21.890  0.00  0.00    +0.000 OA
ATOM     34  O   UNL     1       0.255   9.623  23.965  0.00  0.00    +0.000 OA
ENDBRANCH  28  31
ENDBRANCH   1  25
TORSDOF 3
ENDMDL
MODEL 5
REMARK VINA RESULT:      -7.2      3.797      5.905
REMARK  Name = 
REMARK  5 active torsions:
REMARK  status: ('A' for Active; 'I' for Inactive)
REMARK    1  A    between atoms: C_1  and  C_2
REMARK    2  A    between atoms: C_3  and  C_4
REMARK    3  A    between atoms: C_13  and  C_14
REMARK    4  A    between atoms: C_26  and  S_27
REMARK    5  A    between atoms: S_27  and  C_28
REMARK                            x       y       z     vdW  Elec       q    Type
REMARK                         _______ _______ _______ _____ _____    ______ ____
ROOT
ATOM      1  C   UNL     1      -4.409  13.842  20.649  0.00  0.00    +0.000 C 
ATOM      2  O   UNL     1      -5.478  13.367  20.272  0.00  0.00    +0.000 OA
ATOM      3  N   UNL     1      -4.245  15.220  20.885  0.00  0.00    +0.000 N 
ATOM      4  C   UNL     1      -5.405  16.107  20.685  0.00  0.00    +0.000 C 
ATOM      5  C   UNL     1      -5.183  17.275  19.704  0.00  0.00    +0.000 C 
ATOM      6  O   UNL     1      -4.123  18.165  20.073  0.00  0.00    +0.000 OA
ATOM      7  C   UNL     1      -2.899  17.671  19.692  0.00  0.00    +0.000 A 
ATOM      8  C   UNL     1      -2.246  18.278  18.620  0.00  0.00    +0.000 A 
ATOM      9  C   UNL     1      -0.972  17.847  18.241  0.00  0.00    +0.000 A 
ATOM     10  C   UNL     1      -0.298  16.840  18.957  0.00  0.00    +0.000 A 
ATOM     11  C   UNL     1      -0.979  16.280  20.058  0.00  0.00    +0.000 A 
ATOM     12  C   UNL     1      -2.296  16.638  20.399  0.00  0.00    +0.000 A 
ATOM     13  C   UNL     1      -3.058  15.877  21.456  0.00  0.00    +0.000 C 
ENDROOT
BRANCH  10  14
ATOM     14  C   UNL     1       1.050  16.362  18.570  0.00  0.00    +0.000 A 
ATOM     15  C   UNL     1       1.949  17.141  17.830  0.00  0.00    +0.000 A 
ATOM     16  C   UNL     1       3.203  16.636  17.469  0.00  0.00    +0.000 A 
ATOM     17  C   UNL     1       3.546  15.350  17.847  0.00  0.00    +0.000 A 
ATOM     18  N   UNL     1       4.767  14.798  17.475  0.00  0.00    +0.000 N 
ATOM     19  N   UNL     1       2.720  14.564  18.547  0.00  0.00    +0.000 NA
ATOM     20  C   UNL     1       1.513  15.082  18.892  0.00  0.00    +0.000 A 
ATOM     21  H   UNL     1       5.546  15.375  17.765  0.00  0.00    +0.000 HD
ATOM     22  H   UNL     1       4.808  13.869  17.891  0.00  0.00    +0.000 HD
ENDBRANCH  10  14
BRANCH   1  25
ATOM     23  C   UNL     1      -3.536  12.691  23.389  0.00  0.00    +0.000 C 
ATOM     24  C   UNL     1      -2.854  12.403  22.086  0.00  0.00    +0.000 A 
ATOM     25  C   UNL     1      -3.267  12.890  20.827  0.00  0.00    +0.000 A 
ATOM     26  C   UNL     1      -2.650  12.377  19.673  0.00  0.00    +0.000 A 
ATOM     27  C   UNL     1      -1.525  11.552  19.745  0.00  0.00    +0.000 A 
ATOM     28  C   UNL     1      -1.059  11.162  20.994  0.00  0.00    +0.000 A 
ATOM     29  C   UNL     1      -1.719  11.573  22.143  0.00  0.00    +0.000 A 
ATOM     30  F   UNL     1      -1.295  11.147  23.343  0.00  0.00    +0.000 F 
BRANCH  28  31
ATOM     31  S   UNL     1       0.317  10.071  21.146  0.00  0.00    +0.000 S 
ATOM     32  C   UNL     1       0.837   9.779  19.475  0.00  0.00    +0.000 C 
ATOM     33  O   UNL     1       1.382  10.813  21.800  0.00  0.00    +0.000 OA
ATOM     34  O   UNL     1      -0.173   8.832  21.722  0.00  0.00    +0.000 OA
ENDBRANCH  28  31
ENDBRANCH   1  25
TORSDOF 3
ENDMDL
MODEL 6
REMARK VINA RESULT:      -7.1      3.041      4.664
REMARK  Name = 
REMARK  5 active torsions:
REMARK  status: ('A' for Active; 'I' for Inactive)
REMARK    1  A    between atoms: C_1  and  C_2
REMARK    2  A    between atoms: C_3  and  C_4
REMARK    3  A    between atoms: C_13  and  C_14
REMARK    4  A    between atoms: C_26  and  S_27
REMARK    5  A    between atoms: S_27  and  C_28
REMARK                            x       y       z     vdW  Elec       q    Type
REMARK                         _______ _______ _______ _____ _____    ______ ____
ROOT
ATOM      1  C   UNL     1      -6.359  12.284  22.295  0.00  0.00    +0.000 C 
ATOM      2  O   UNL     1      -7.044  11.622  23.071  0.00  0.00    +0.000 OA
ATOM      3  N   UNL     1      -6.524  12.207  20.900  0.00  0.00    +0.000 N 
ATOM      4  C   UNL     1      -7.568  11.314  20.367  0.00  0.00    +0.000 C 
ATOM      5  C   UNL     1      -7.082  10.260  19.354  0.00  0.00    +0.000 C 
ATOM      6  O   UNL     1      -6.460  10.805  18.184  0.00  0.00    +0.000 OA
ATOM      7  C   UNL     1      -5.144  11.121  18.419  0.00  0.00    +0.000 A 
ATOM      8  C   UNL     1      -4.159  10.314  17.851  0.00  0.00    +0.000 A 
ATOM      9  C   UNL     1      -2.809  10.638  18.013  0.00  0.00    +0.000 A 
ATOM     10  C   UNL     1      -2.413  11.802  18.696  0.00  0.00    +0.000 A 
ATOM     11  C   UNL     1      -3.443  12.611  19.221  0.00  0.00    +0.000 A 
ATOM     12  C   UNL     1      -4.802  12.255  19.146  0.00  0.00    +0.000 A 
ATOM     13  C   UNL     1      -5.853  13.042  19.890  0.00  0.00    +0.000 C 
ENDROOT
BRANCH  10  14
ATOM     14  C   UNL     1      -0.988  12.162  18.886  0.00  0.00    +0.000 A 
ATOM     15  C   UNL     1      -0.118  11.421  19.694  0.00  0.00    +0.000 A 
ATOM     16  C   UNL     1       1.215  11.815  19.860  0.00  0.00    +0.000 A 
ATOM     17  C   UNL     1       1.665  12.955  19.218  0.00  0.00    +0.000 A 
ATOM     18  N   UNL     1       2.970  13.402  19.388  0.00  0.00    +0.000 N 
ATOM     19  N   UNL     1       0.871  13.701  18.442  0.00  0.00    +0.000 NA
ATOM     20  C   UNL     1      -0.415  13.291  18.290  0.00  0.00    +0.000 A 
ATOM     21  H   UNL     1       3.647  12.685  19.158  0.00  0.00    +0.000 HD
ATOM     22  H   UNL     1       3.077  14.226  18.799  0.00  0.00    +0.000 HD
ENDBRANCH  10  14
BRANCH   1  25
ATOM     23  C   UNL     1      -6.981  14.932  23.775  0.00  0.00    +0.000 C 
ATOM     24  C   UNL     1      -5.604  14.392  23.536  0.00  0.00    +0.000 A 
ATOM     25  C   UNL     1      -5.310  13.167  22.898  0.00  0.00    +0.000 A 
ATOM     26  C   UNL     1      -3.986  12.698  22.923  0.00  0.00    +0.000 A 
ATOM     27  C   UNL     1      -2.933  13.489  23.387  0.00  0.00    +0.000 A 
ATOM     28  C   UNL     1      -3.218  14.741  23.918  0.00  0.00    +0.000 A 
ATOM     29  C   UNL     1      -4.533  15.179  23.999  0.00  0.00    +0.000 A 
ATOM     30  F   UNL     1      -4.805  16.366  24.563  0.00  0.00    +0.000 F 
BRANCH  28  31
ATOM     31  S   UNL     1      -1.939  15.758  24.578  0.00  0.00    +0.000 S 
ATOM     32  C   UNL     1      -1.866  17.147  23.476  0.00  0.00    +0.000 C 
ATOM     33  O   UNL     1      -2.407  16.257  25.860  0.00  0.00    +0.000 OA
ATOM     34  O   UNL     1      -0.701  15.008  24.491  0.00  0.00    +0.000 OA
ENDBRANCH  28  31
ENDBRANCH   1  25
TORSDOF 3
ENDMDL
MODEL 7
REMARK VINA RESULT:      -7.0      3.028      4.247
REMARK  Name = 
REMARK  5 active torsions:
REMARK  status: ('A' for Active; 'I' for Inactive)
REMARK    1  A    between atoms: C_1  and  C_2
REMARK    2  A    between atoms: C_3  and  C_4
REMARK    3  A    between atoms: C_13  and  C_14
REMARK    4  A    between atoms: C_26  and  S_27
REMARK    5  A    between atoms: S_27  and  C_28
REMARK                            x       y       z     vdW  Elec       q    Type
REMARK                         _______ _______ _______ _____ _____    ______ ____
ROOT
ATOM      1  C   UNL     1      -0.730  15.110  22.672  0.00  0.00    +0.000 C 
ATOM      2  O   UNL     1      -0.022  15.272  23.663  0.00  0.00    +0.000 OA
ATOM      3  N   UNL     1      -1.764  16.003  22.337  0.00  0.00    +0.000 N 
ATOM      4  C   UNL     1      -1.984  17.175  23.203  0.00  0.00    +0.000 C 
ATOM      5  C   UNL     1      -3.409  17.321  23.771  0.00  0.00    +0.000 C 
ATOM      6  O   UNL     1      -4.435  17.424  22.777  0.00  0.00    +0.000 OA
ATOM      7  C   UNL     1      -4.798  16.187  22.302  0.00  0.00    +0.000 A 
ATOM      8  C   UNL     1      -6.036  15.670  22.683  0.00  0.00    +0.000 A 
ATOM      9  C   UNL     1      -6.470  14.444  22.172  0.00  0.00    +0.000 A 
ATOM     10  C   UNL     1      -5.707  13.734  21.227  0.00  0.00    +0.000 A 
ATOM     11  C   UNL     1      -4.480  14.313  20.839  0.00  0.00    +0.000 A 
ATOM     12  C   UNL     1      -3.985  15.499  21.410  0.00  0.00    +0.000 A 
ATOM     13  C   UNL     1      -2.584  15.977  21.115  0.00  0.00    +0.000 C 
ENDROOT
BRANCH  10  14
ATOM     14  C   UNL     1      -6.144  12.430  20.676  0.00  0.00    +0.000 A 
ATOM     15  C   UNL     1      -5.716  11.948  19.434  0.00  0.00    +0.000 A 
ATOM     16  C   UNL     1      -6.176  10.720  18.946  0.00  0.00    +0.000 A 
ATOM     17  C   UNL     1      -7.068   9.985  19.706  0.00  0.00    +0.000 A 
ATOM     18  N   UNL     1      -7.580   8.779  19.240  0.00  0.00    +0.000 N 
ATOM     19  N   UNL     1      -7.514  10.406  20.895  0.00  0.00    +0.000 NA
ATOM     20  C   UNL     1      -7.044  11.597  21.349  0.00  0.00    +0.000 A 
ATOM     21  H   UNL     1      -6.845   8.128  18.993  0.00  0.00    +0.000 HD
ATOM     22  H   UNL     1      -8.180   8.410  19.975  0.00  0.00    +0.000 HD
ENDBRANCH  10  14
BRANCH   1  25
ATOM     23  C   UNL     1      -2.140  12.385  23.093  0.00  0.00    +0.000 C 
ATOM     24  C   UNL     1      -1.082  12.648  22.065  0.00  0.00    +0.000 A 
ATOM     25  C   UNL     1      -0.461  13.896  21.837  0.00  0.00    +0.000 A 
ATOM     26  C   UNL     1       0.367  14.038  20.711  0.00  0.00    +0.000 A 
ATOM     27  C   UNL     1       0.740  12.943  19.928  0.00  0.00    +0.000 A 
ATOM     28  C   UNL     1       0.206  11.695  20.224  0.00  0.00    +0.000 A 
ATOM     29  C   UNL     1      -0.697  11.554  21.269  0.00  0.00    +0.000 A 
ATOM     30  F   UNL     1      -1.249  10.355  21.513  0.00  0.00    +0.000 F 
BRANCH  28  31
ATOM     31  S   UNL     1       0.589  10.289  19.233  0.00  0.00    +0.000 S 
ATOM     32  C   UNL     1       1.944  10.820  18.217  0.00  0.00    +0.000 C 
ATOM     33  O   UNL     1       1.103   9.263  20.125  0.00  0.00    +0.000 OA
ATOM     34  O   UNL     1      -0.565  10.021  18.396  0.00  0.00    +0.000 OA
ENDBRANCH  28  31
ENDBRANCH   1  25
TORSDOF 3
ENDMDL
MODEL 8
REMARK VINA RESULT:      -6.9      1.063      1.146
REMARK  Name = 
REMARK  5 active torsions:
REMARK  status: ('A' for Active; 'I' for Inactive)
REMARK    1  A    between atoms: C_1  and  C_2
REMARK    2  A    between atoms: C_3  and  C_4
REMARK    3  A    between atoms: C_13  and  C_14
REMARK    4  A    between atoms: C_26  and  S_27
REMARK    5  A    between atoms: S_27  and  C_28
REMARK                            x       y       z     vdW  Elec       q    Type
REMARK                         _______ _______ _______ _____ _____    ______ ____
ROOT
ATOM      1  C   UNL     1      -3.842  13.685  23.611  0.00  0.00    +0.000 C 
ATOM      2  O   UNL     1      -3.630  13.426  24.793  0.00  0.00    +0.000 OA
ATOM      3  N   UNL     1      -5.145  13.801  23.094  0.00  0.00    +0.000 N 
ATOM      4  C   UNL     1      -6.283  13.623  24.014  0.00  0.00    +0.000 C 
ATOM      5  C   UNL     1      -7.301  12.542  23.604  0.00  0.00    +0.000 C 
ATOM      6  O   UNL     1      -7.917  12.761  22.329  0.00  0.00    +0.000 OA
ATOM      7  C   UNL     1      -7.111  12.327  21.304  0.00  0.00    +0.000 A 
ATOM      8  C   UNL     1      -7.476  11.166  20.623  0.00  0.00    +0.000 A 
ATOM      9  C   UNL     1      -6.718  10.726  19.535  0.00  0.00    +0.000 A 
ATOM     10  C   UNL     1      -5.616  11.463  19.065  0.00  0.00    +0.000 A 
ATOM     11  C   UNL     1      -5.306  12.652  19.758  0.00  0.00    +0.000 A 
ATOM     12  C   UNL     1      -6.000  13.063  20.910  0.00  0.00    +0.000 A 
ATOM     13  C   UNL     1      -5.515  14.230  21.735  0.00  0.00    +0.000 C 
ENDROOT
BRANCH  10  14
ATOM     14  C   UNL     1      -4.795  11.013  17.916  0.00  0.00    +0.000 A 
ATOM     15  C   UNL     1      -3.827  10.007  18.022  0.00  0.00    +0.000 A 
ATOM     16  C   UNL     1      -3.060   9.633  16.912  0.00  0.00    +0.000 A 
ATOM     17  C   UNL     1      -3.266  10.275  15.704  0.00  0.00    +0.000 A 
ATOM     18  N   UNL     1      -2.499   9.961  14.588  0.00  0.00    +0.000 N 
ATOM     19  N   UNL     1      -4.173  11.247  15.554  0.00  0.00    +0.000 NA
ATOM     20  C   UNL     1      -4.910  11.584  16.644  0.00  0.00    +0.000 A 
ATOM     21  H   UNL     1      -2.536   8.972  14.371  0.00  0.00    +0.000 HD
ATOM     22  H   UNL     1      -2.850  10.530  13.820  0.00  0.00    +0.000 HD
ENDBRANCH  10  14
BRANCH   1  25
ATOM     23  C   UNL     1      -2.254  16.329  23.331  0.00  0.00    +0.000 C 
ATOM     24  C   UNL     1      -1.953  15.069  22.577  0.00  0.00    +0.000 A 
ATOM     25  C   UNL     1      -2.645  13.847  22.726  0.00  0.00    +0.000 A 
ATOM     26  C   UNL     1      -2.126  12.701  22.100  0.00  0.00    +0.000 A 
ATOM     27  C   UNL     1      -1.067  12.774  21.192  0.00  0.00    +0.000 A 
ATOM     28  C   UNL     1      -0.458  14.002  20.969  0.00  0.00    +0.000 A 
ATOM     29  C   UNL     1      -0.889  15.128  21.658  0.00  0.00    +0.000 A 
ATOM     30  F   UNL     1      -0.259  16.299  21.478  0.00  0.00    +0.000 F 
BRANCH  28  31
ATOM     31  S   UNL     1       0.923  14.145  19.884  0.00  0.00    +0.000 S 
ATOM     32  C   UNL     1       0.900  12.642  18.940  0.00  0.00    +0.000 C 
ATOM     33  O   UNL     1       0.633  15.231  18.962  0.00  0.00    +0.000 OA
ATOM     34  O   UNL     1       2.118  14.180  20.705  0.00  0.00    +0.000 OA
ENDBRANCH  28  31
ENDBRANCH   1  25
TORSDOF 3
ENDMDL
MODEL 9
REMARK VINA RESULT:      -6.9      3.833      6.038
REMARK  Name = 
REMARK  5 active torsions:
REMARK  status: ('A' for Active; 'I' for Inactive)
REMARK    1  A    between atoms: C_1  and  C_2
REMARK    2  A    between atoms: C_3  and  C_4
REMARK    3  A    between atoms: C_13  and  C_14
REMARK    4  A    between atoms: C_26  and  S_27
REMARK    5  A    between atoms: S_27  and  C_28
REMARK                            x       y       z     vdW  Elec       q    Type
REMARK                         _______ _______ _______ _____ _____    ______ ____
ROOT
ATOM      1  C   UNL     1      -4.150  13.864  20.779  0.00  0.00    +0.000 C 
ATOM      2  O   UNL     1      -5.248  13.441  20.423  0.00  0.00    +0.000 OA
ATOM      3  N   UNL     1      -3.914  15.232  21.007  0.00  0.00    +0.000 N 
ATOM      4  C   UNL     1      -5.032  16.175  20.826  0.00  0.00    +0.000 C 
ATOM      5  C   UNL     1      -4.771  17.328  19.839  0.00  0.00    +0.000 C 
ATOM      6  O   UNL     1      -3.662  18.165  20.185  0.00  0.00    +0.000 OA
ATOM      7  C   UNL     1      -2.471  17.610  19.782  0.00  0.00    +0.000 A 
ATOM      8  C   UNL     1      -1.810  18.182  18.696  0.00  0.00    +0.000 A 
ATOM      9  C   UNL     1      -0.566  17.688  18.294  0.00  0.00    +0.000 A 
ATOM     10  C   UNL     1       0.071  16.650  18.999  0.00  0.00    +0.000 A 
ATOM     11  C   UNL     1      -0.616  16.127  20.115  0.00  0.00    +0.000 A 
ATOM     12  C   UNL     1      -1.907  16.550  20.480  0.00  0.00    +0.000 A 
ATOM     13  C   UNL     1      -2.685  15.830  21.554  0.00  0.00    +0.000 C 
ENDROOT
BRANCH  10  14
ATOM     14  C   UNL     1       1.386  16.106  18.588  0.00  0.00    +0.000 A 
ATOM     15  C   UNL     1       1.713  14.748  18.691  0.00  0.00    +0.000 A 
ATOM     16  C   UNL     1       2.978  14.285  18.311  0.00  0.00    +0.000 A 
ATOM     17  C   UNL     1       3.911  15.190  17.836  0.00  0.00    +0.000 A 
ATOM     18  N   UNL     1       5.191  14.778  17.485  0.00  0.00    +0.000 N 
ATOM     19  N   UNL     1       3.650  16.498  17.727  0.00  0.00    +0.000 NA
ATOM     20  C   UNL     1       2.412  16.918  18.093  0.00  0.00    +0.000 A 
ATOM     21  H   UNL     1       5.173  14.033  16.800  0.00  0.00    +0.000 HD
ATOM     22  H   UNL     1       5.680  15.600  17.136  0.00  0.00    +0.000 HD
ENDBRANCH  10  14
BRANCH   1  25
ATOM     23  C   UNL     1      -3.330  12.624  23.496  0.00  0.00    +0.000 C 
ATOM     24  C   UNL     1      -2.663  12.328  22.187  0.00  0.00    +0.000 A 
ATOM     25  C   UNL     1      -3.054  12.856  20.937  0.00  0.00    +0.000 A 
ATOM     26  C   UNL     1      -2.462  12.336  19.774  0.00  0.00    +0.000 A 
ATOM     27  C   UNL     1      -1.376  11.458  19.829  0.00  0.00    +0.000 A 
ATOM     28  C   UNL     1      -0.928  11.024  21.070  0.00  0.00    +0.000 A 
ATOM     29  C   UNL     1      -1.567  11.445  22.228  0.00  0.00    +0.000 A 
ATOM     30  F   UNL     1      -1.162  10.978  23.419  0.00  0.00    +0.000 F 
BRANCH  28  31
ATOM     31  S   UNL     1       0.396   9.868  21.201  0.00  0.00    +0.000 S 
ATOM     32  C   UNL     1      -0.377   8.373  21.764  0.00  0.00    +0.000 C 
ATOM     33  O   UNL     1       0.879   9.615  19.853  0.00  0.00    +0.000 OA
ATOM     34  O   UNL     1       1.301  10.358  22.223  0.00  0.00    +0.000 OA
ENDBRANCH  28  31
ENDBRANCH   1  25
TORSDOF 3
ENDMDL
