MODEL 1
REMARK VINA RESULT:      -7.4      0.000      0.000
REMARK  Name = 
REMARK  5 active torsions:
REMARK  status: ('A' for Active; 'I' for Inactive)
REMARK    1  A    between atoms: C_1  and  O_2
REMARK    2  A    between atoms: O_2  and  C_3
REMARK    3  A    between atoms: C_3  and  C_5
REMARK    4  A    between atoms: C_11  and  C_12
REMARK    5  A    between atoms: C_17  and  C_18
REMARK                            x       y       z     vdW  Elec       q    Type
REMARK                         _______ _______ _______ _____ _____    ______ ____
ROOT
ATOM      1  C   UNL     1       2.765   5.147  19.145  0.00  0.00    +0.000 C 
ATOM      2  C   UNL     1       1.481   4.263  18.964  0.00  0.00    +0.000 C 
ATOM      3  C   UNL     1       1.551   2.916  19.716  0.00  0.00    +0.000 C 
ATOM      4  C   UNL     1       1.943   1.887  18.651  0.00  0.00    +0.000 C 
ATOM      5  C   UNL     1       2.446   2.754  17.509  0.00  0.00    +0.000 C 
ATOM      6  C   UNL     1       3.850   3.357  17.795  0.00  0.00    +0.000 C 
ATOM      7  C   UNL     1       3.732   4.889  17.964  0.00  0.00    +0.000 C 
ATOM      8  N   UNL     1       1.415   3.811  17.553  0.00  0.00    +0.000 NA
ATOM      9  H   UNL     1       0.496   3.412  17.362  0.00  0.00    +0.000 HD
ENDROOT
BRANCH   7  10
ATOM     10  C   UNL     1       5.071   5.595  17.933  0.00  0.00    +0.000 A 
ATOM     11  C   UNL     1       5.377   6.652  17.072  0.00  0.00    +0.000 A 
ATOM     12  C   UNL     1       6.609   7.307  17.187  0.00  0.00    +0.000 A 
ATOM     13  C   UNL     1       7.531   6.915  18.159  0.00  0.00    +0.000 A 
ATOM     14  F   UNL     1       8.688   7.585  18.264  0.00  0.00    +0.000 F 
ATOM     15  C   UNL     1       7.261   5.858  19.023  0.00  0.00    +0.000 A 
ATOM     16  C   UNL     1       8.219   5.427  20.085  0.00  0.00    +0.000 C 
ATOM     17  C   UNL     1       6.035   5.196  18.886  0.00  0.00    +0.000 A 
ENDBRANCH   7  10
BRANCH   1  18
ATOM     18  C   UNL     1       2.389   6.614  19.198  0.00  0.00    +0.000 C 
ATOM     19  O   UNL     1       2.362   7.304  20.211  0.00  0.00    +0.000 OA
BRANCH  18  21
ATOM     20  C   UNL     1       2.173   8.489  17.812  0.00  0.00    +0.000 C 
ATOM     21  O   UNL     1       2.073   7.068  17.952  0.00  0.00    +0.000 OA
ENDBRANCH  18  21
ENDBRANCH   1  18
TORSDOF 3
ENDMDL
MODEL 2
REMARK VINA RESULT:      -7.3      2.713      4.688
REMARK  Name = 
REMARK  5 active torsions:
REMARK  status: ('A' for Active; 'I' for Inactive)
REMARK    1  A    between atoms: C_1  and  O_2
REMARK    2  A    between atoms: O_2  and  C_3
REMARK    3  A    between atoms: C_3  and  C_5
REMARK    4  A    between atoms: C_11  and  C_12
REMARK    5  A    between atoms: C_17  and  C_18
REMARK                            x       y       z     vdW  Elec       q    Type
REMARK                         _______ _______ _______ _____ _____    ______ ____
ROOT
ATOM      1  C   UNL     1       3.759   4.779  18.311  0.00  0.00    +0.000 C 
ATOM      2  C   UNL     1       4.044   3.268  18.622  0.00  0.00    +0.000 C 
ATOM      3  C   UNL     1       3.101   2.297  17.877  0.00  0.00    +0.000 C 
ATOM      4  C   UNL     1       2.035   1.912  18.908  0.00  0.00    +0.000 C 
ATOM      5  C   UNL     1       2.210   2.965  19.989  0.00  0.00    +0.000 C 
ATOM      6  C   UNL     1       1.650   4.351  19.564  0.00  0.00    +0.000 C 
ATOM      7  C   UNL     1       2.814   5.353  19.395  0.00  0.00    +0.000 C 
ATOM      8  N   UNL     1       3.686   3.002  20.037  0.00  0.00    +0.000 NA
ATOM      9  H   UNL     1       4.050   2.091  20.319  0.00  0.00    +0.000 HD
ENDROOT
BRANCH   7  10
ATOM     10  C   UNL     1       2.352   6.790  19.291  0.00  0.00    +0.000 A 
ATOM     11  C   UNL     1       2.331   7.521  18.100  0.00  0.00    +0.000 A 
ATOM     12  C   UNL     1       1.792   8.813  18.087  0.00  0.00    +0.000 A 
ATOM     13  C   UNL     1       1.271   9.374  19.253  0.00  0.00    +0.000 A 
ATOM     14  F   UNL     1       0.732  10.601  19.199  0.00  0.00    +0.000 F 
ATOM     15  C   UNL     1       1.288   8.678  20.457  0.00  0.00    +0.000 A 
ATOM     16  C   UNL     1       0.721   9.243  21.719  0.00  0.00    +0.000 C 
ATOM     17  C   UNL     1       1.848   7.394  20.465  0.00  0.00    +0.000 A 
ENDBRANCH   7  10
BRANCH   1  18
ATOM     18  C   UNL     1       5.055   5.563  18.283  0.00  0.00    +0.000 C 
ATOM     19  O   UNL     1       5.417   6.303  17.374  0.00  0.00    +0.000 OA
BRANCH  18  21
ATOM     20  C   UNL     1       7.175   5.596  19.275  0.00  0.00    +0.000 C 
ATOM     21  O   UNL     1       5.776   5.327  19.415  0.00  0.00    +0.000 OA
ENDBRANCH  18  21
ENDBRANCH   1  18
TORSDOF 3
ENDMDL
MODEL 3
REMARK VINA RESULT:      -7.3      3.318      5.298
REMARK  Name = 
REMARK  5 active torsions:
REMARK  status: ('A' for Active; 'I' for Inactive)
REMARK    1  A    between atoms: C_1  and  O_2
REMARK    2  A    between atoms: O_2  and  C_3
REMARK    3  A    between atoms: C_3  and  C_5
REMARK    4  A    between atoms: C_11  and  C_12
REMARK    5  A    between atoms: C_17  and  C_18
REMARK                            x       y       z     vdW  Elec       q    Type
REMARK                         _______ _______ _______ _____ _____    ______ ____
ROOT
ATOM      1  C   UNL     1       6.310   6.105  16.554  0.00  0.00    +0.000 C 
ATOM      2  C   UNL     1       7.275   5.203  15.706  0.00  0.00    +0.000 C 
ATOM      3  C   UNL     1       6.868   5.092  14.221  0.00  0.00    +0.000 C 
ATOM      4  C   UNL     1       6.136   3.751  14.109  0.00  0.00    +0.000 C 
ATOM      5  C   UNL     1       5.836   3.405  15.558  0.00  0.00    +0.000 C 
ATOM      6  C   UNL     1       4.683   4.264  16.147  0.00  0.00    +0.000 C 
ATOM      7  C   UNL     1       5.243   5.211  17.232  0.00  0.00    +0.000 C 
ATOM      8  N   UNL     1       7.127   3.798  16.159  0.00  0.00    +0.000 NA
ATOM      9  H   UNL     1       7.881   3.231  15.772  0.00  0.00    +0.000 HD
ENDROOT
BRANCH   7  10
ATOM     10  C   UNL     1       4.163   5.856  18.074  0.00  0.00    +0.000 A 
ATOM     11  C   UNL     1       3.782   5.402  19.339  0.00  0.00    +0.000 A 
ATOM     12  C   UNL     1       2.842   6.125  20.084  0.00  0.00    +0.000 A 
ATOM     13  C   UNL     1       2.286   7.298  19.572  0.00  0.00    +0.000 A 
ATOM     14  F   UNL     1       1.413   7.984  20.325  0.00  0.00    +0.000 F 
ATOM     15  C   UNL     1       2.634   7.770  18.311  0.00  0.00    +0.000 A 
ATOM     16  C   UNL     1       2.072   9.032  17.744  0.00  0.00    +0.000 C 
ATOM     17  C   UNL     1       3.560   7.029  17.566  0.00  0.00    +0.000 A 
ENDBRANCH   7  10
BRANCH   1  18
ATOM     18  C   UNL     1       7.092   6.868  17.604  0.00  0.00    +0.000 C 
ATOM     19  O   UNL     1       7.461   6.415  18.683  0.00  0.00    +0.000 OA
BRANCH  18  21
ATOM     20  C   UNL     1       8.192   8.885  18.052  0.00  0.00    +0.000 C 
ATOM     21  O   UNL     1       7.328   8.143  17.186  0.00  0.00    +0.000 OA
ENDBRANCH  18  21
ENDBRANCH   1  18
TORSDOF 3
ENDMDL
MODEL 4
REMARK VINA RESULT:      -7.2      3.365      5.145
REMARK  Name = 
REMARK  5 active torsions:
REMARK  status: ('A' for Active; 'I' for Inactive)
REMARK    1  A    between atoms: C_1  and  O_2
REMARK    2  A    between atoms: O_2  and  C_3
REMARK    3  A    between atoms: C_3  and  C_5
REMARK    4  A    between atoms: C_11  and  C_12
REMARK    5  A    between atoms: C_17  and  C_18
REMARK                            x       y       z     vdW  Elec       q    Type
REMARK                         _______ _______ _______ _____ _____    ______ ____
ROOT
ATOM      1  C   UNL     1       6.316   6.086  16.562  0.00  0.00    +0.000 C 
ATOM      2  C   UNL     1       7.249   5.191  15.672  0.00  0.00    +0.000 C 
ATOM      3  C   UNL     1       6.795   5.103  14.198  0.00  0.00    +0.000 C 
ATOM      4  C   UNL     1       6.052   3.768  14.091  0.00  0.00    +0.000 C 
ATOM      5  C   UNL     1       5.795   3.403  15.543  0.00  0.00    +0.000 C 
ATOM      6  C   UNL     1       4.666   4.260  16.180  0.00  0.00    +0.000 C 
ATOM      7  C   UNL     1       5.265   5.189  17.260  0.00  0.00    +0.000 C 
ATOM      8  N   UNL     1       7.106   3.781  16.110  0.00  0.00    +0.000 NA
ATOM      9  H   UNL     1       7.845   3.214  15.691  0.00  0.00    +0.000 HD
ENDROOT
BRANCH   7  10
ATOM     10  C   UNL     1       4.215   5.827  18.144  0.00  0.00    +0.000 A 
ATOM     11  C   UNL     1       3.622   7.065  17.885  0.00  0.00    +0.000 A 
ATOM     12  C   UNL     1       2.588   7.527  18.709  0.00  0.00    +0.000 A 
ATOM     13  C   UNL     1       2.142   6.756  19.783  0.00  0.00    +0.000 A 
ATOM     14  F   UNL     1       1.127   7.212  20.532  0.00  0.00    +0.000 F 
ATOM     15  C   UNL     1       2.720   5.525  20.075  0.00  0.00    +0.000 A 
ATOM     16  C   UNL     1       2.253   4.668  21.207  0.00  0.00    +0.000 C 
ATOM     17  C   UNL     1       3.768   5.082  19.258  0.00  0.00    +0.000 A 
ENDBRANCH   7  10
BRANCH   1  18
ATOM     18  C   UNL     1       7.135   6.829  17.597  0.00  0.00    +0.000 C 
ATOM     19  O   UNL     1       7.671   6.321  18.577  0.00  0.00    +0.000 OA
BRANCH  18  21
ATOM     20  C   UNL     1       8.209   8.869  18.004  0.00  0.00    +0.000 C 
ATOM     21  O   UNL     1       7.191   8.156  17.294  0.00  0.00    +0.000 OA
ENDBRANCH  18  21
ENDBRANCH   1  18
TORSDOF 3
ENDMDL
MODEL 5
REMARK VINA RESULT:      -7.1      0.819      1.137
REMARK  Name = 
REMARK  5 active torsions:
REMARK  status: ('A' for Active; 'I' for Inactive)
REMARK    1  A    between atoms: C_1  and  O_2
REMARK    2  A    between atoms: O_2  and  C_3
REMARK    3  A    between atoms: C_3  and  C_5
REMARK    4  A    between atoms: C_11  and  C_12
REMARK    5  A    between atoms: C_17  and  C_18
REMARK                            x       y       z     vdW  Elec       q    Type
REMARK                         _______ _______ _______ _____ _____    ______ ____
ROOT
ATOM      1  C   UNL     1       2.619   4.990  19.365  0.00  0.00    +0.000 C 
ATOM      2  C   UNL     1       1.349   4.071  19.426  0.00  0.00    +0.000 C 
ATOM      3  C   UNL     1       1.575   2.758  20.208  0.00  0.00    +0.000 C 
ATOM      4  C   UNL     1       1.824   1.694  19.134  0.00  0.00    +0.000 C 
ATOM      5  C   UNL     1       2.114   2.523  17.894  0.00  0.00    +0.000 C 
ATOM      6  C   UNL     1       3.527   3.169  17.929  0.00  0.00    +0.000 C 
ATOM      7  C   UNL     1       3.394   4.703  18.056  0.00  0.00    +0.000 C 
ATOM      8  N   UNL     1       1.073   3.558  18.061  0.00  0.00    +0.000 NA
ATOM      9  H   UNL     1       0.147   3.130  18.035  0.00  0.00    +0.000 HD
ENDROOT
BRANCH   7  10
ATOM     10  C   UNL     1       4.689   5.438  17.785  0.00  0.00    +0.000 A 
ATOM     11  C   UNL     1       4.866   6.354  16.745  0.00  0.00    +0.000 A 
ATOM     12  C   UNL     1       6.072   7.057  16.635  0.00  0.00    +0.000 A 
ATOM     13  C   UNL     1       7.096   6.853  17.561  0.00  0.00    +0.000 A 
ATOM     14  F   UNL     1       8.225   7.568  17.447  0.00  0.00    +0.000 F 
ATOM     15  C   UNL     1       6.956   5.940  18.600  0.00  0.00    +0.000 A 
ATOM     16  C   UNL     1       8.026   5.713  19.618  0.00  0.00    +0.000 C 
ATOM     17  C   UNL     1       5.754   5.225  18.689  0.00  0.00    +0.000 A 
ENDBRANCH   7  10
BRANCH   1  18
ATOM     18  C   UNL     1       2.214   6.449  19.421  0.00  0.00    +0.000 C 
ATOM     19  O   UNL     1       2.267   7.237  18.482  0.00  0.00    +0.000 OA
BRANCH  18  21
ATOM     20  C   UNL     1       1.425   8.152  20.821  0.00  0.00    +0.000 C 
ATOM     21  O   UNL     1       1.783   6.774  20.672  0.00  0.00    +0.000 OA
ENDBRANCH  18  21
ENDBRANCH   1  18
TORSDOF 3
ENDMDL
MODEL 6
REMARK VINA RESULT:      -7.0      3.799      4.804
REMARK  Name = 
REMARK  5 active torsions:
REMARK  status: ('A' for Active; 'I' for Inactive)
REMARK    1  A    between atoms: C_1  and  O_2
REMARK    2  A    between atoms: O_2  and  C_3
REMARK    3  A    between atoms: C_3  and  C_5
REMARK    4  A    between atoms: C_11  and  C_12
REMARK    5  A    between atoms: C_17  and  C_18
REMARK                            x       y       z     vdW  Elec       q    Type
REMARK                         _______ _______ _______ _____ _____    ______ ____
ROOT
ATOM      1  C   UNL     1       5.797   4.045  17.849  0.00  0.00    +0.000 C 
ATOM      2  C   UNL     1       4.866   4.124  19.109  0.00  0.00    +0.000 C 
ATOM      3  C   UNL     1       4.066   2.827  19.366  0.00  0.00    +0.000 C 
ATOM      4  C   UNL     1       2.672   3.101  18.793  0.00  0.00    +0.000 C 
ATOM      5  C   UNL     1       2.895   4.328  17.925  0.00  0.00    +0.000 C 
ATOM      6  C   UNL     1       3.642   3.992  16.603  0.00  0.00    +0.000 C 
ATOM      7  C   UNL     1       5.049   4.628  16.625  0.00  0.00    +0.000 C 
ATOM      8  N   UNL     1       3.777   5.092  18.831  0.00  0.00    +0.000 NA
ATOM      9  H   UNL     1       3.283   5.313  19.696  0.00  0.00    +0.000 HD
ENDROOT
BRANCH   7  10
ATOM     10  C   UNL     1       5.726   4.623  15.271  0.00  0.00    +0.000 A 
ATOM     11  C   UNL     1       6.981   5.184  15.022  0.00  0.00    +0.000 A 
ATOM     12  C   UNL     1       7.568   5.042  13.759  0.00  0.00    +0.000 A 
ATOM     13  C   UNL     1       6.910   4.339  12.749  0.00  0.00    +0.000 A 
ATOM     14  F   UNL     1       7.514   4.192  11.560  0.00  0.00    +0.000 F 
ATOM     15  C   UNL     1       5.654   3.779  12.961  0.00  0.00    +0.000 A 
ATOM     16  C   UNL     1       4.932   3.005  11.906  0.00  0.00    +0.000 C 
ATOM     17  C   UNL     1       5.066   3.945  14.222  0.00  0.00    +0.000 A 
ENDBRANCH   7  10
BRANCH   1  18
ATOM     18  C   UNL     1       7.077   4.818  18.093  0.00  0.00    +0.000 C 
ATOM     19  O   UNL     1       8.212   4.368  17.975  0.00  0.00    +0.000 OA
BRANCH  18  21
ATOM     20  C   UNL     1       7.801   7.044  18.107  0.00  0.00    +0.000 C 
ATOM     21  O   UNL     1       6.794   6.096  18.474  0.00  0.00    +0.000 OA
ENDBRANCH  18  21
ENDBRANCH   1  18
TORSDOF 3
ENDMDL
MODEL 7
REMARK VINA RESULT:      -7.0      2.804      5.020
REMARK  Name = 
REMARK  5 active torsions:
REMARK  status: ('A' for Active; 'I' for Inactive)
REMARK    1  A    between atoms: C_1  and  O_2
REMARK    2  A    between atoms: O_2  and  C_3
REMARK    3  A    between atoms: C_3  and  C_5
REMARK    4  A    between atoms: C_11  and  C_12
REMARK    5  A    between atoms: C_17  and  C_18
REMARK                            x       y       z     vdW  Elec       q    Type
REMARK                         _______ _______ _______ _____ _____    ______ ____
ROOT
ATOM      1  C   UNL     1       3.108   4.989  18.571  0.00  0.00    +0.000 C 
ATOM      2  C   UNL     1       4.105   3.969  17.916  0.00  0.00    +0.000 C 
ATOM      3  C   UNL     1       5.440   3.835  18.681  0.00  0.00    +0.000 C 
ATOM      4  C   UNL     1       6.430   4.713  17.908  0.00  0.00    +0.000 C 
ATOM      5  C   UNL     1       5.522   5.566  17.038  0.00  0.00    +0.000 C 
ATOM      6  C   UNL     1       4.793   6.674  17.849  0.00  0.00    +0.000 C 
ATOM      7  C   UNL     1       3.279   6.373  17.897  0.00  0.00    +0.000 C 
ATOM      8  N   UNL     1       4.562   4.525  16.618  0.00  0.00    +0.000 NA
ATOM      9  H   UNL     1       5.043   3.800  16.084  0.00  0.00    +0.000 HD
ENDROOT
BRANCH   7  10
ATOM     10  C   UNL     1       2.454   7.543  18.388  0.00  0.00    +0.000 A 
ATOM     11  C   UNL     1       1.895   8.511  17.551  0.00  0.00    +0.000 A 
ATOM     12  C   UNL     1       1.063   9.501  18.091  0.00  0.00    +0.000 A 
ATOM     13  C   UNL     1       0.786   9.523  19.458  0.00  0.00    +0.000 A 
ATOM     14  F   UNL     1      -0.041  10.464  19.937  0.00  0.00    +0.000 F 
ATOM     15  C   UNL     1       1.337   8.580  20.320  0.00  0.00    +0.000 A 
ATOM     16  C   UNL     1       1.044   8.566  21.785  0.00  0.00    +0.000 C 
ATOM     17  C   UNL     1       2.184   7.607  19.774  0.00  0.00    +0.000 A 
ENDBRANCH   7  10
BRANCH   1  18
ATOM     18  C   UNL     1       1.682   4.505  18.410  0.00  0.00    +0.000 C 
ATOM     19  O   UNL     1       1.110   4.324  17.340  0.00  0.00    +0.000 OA
BRANCH  18  21
ATOM     20  C   UNL     1       1.226   2.956  20.106  0.00  0.00    +0.000 C 
ATOM     21  O   UNL     1       1.109   4.301  19.630  0.00  0.00    +0.000 OA
ENDBRANCH  18  21
ENDBRANCH   1  18
TORSDOF 3
ENDMDL
MODEL 8
REMARK VINA RESULT:      -7.0      3.385      5.209
REMARK  Name = 
REMARK  5 active torsions:
REMARK  status: ('A' for Active; 'I' for Inactive)
REMARK    1  A    between atoms: C_1  and  O_2
REMARK    2  A    between atoms: O_2  and  C_3
REMARK    3  A    between atoms: C_3  and  C_5
REMARK    4  A    between atoms: C_11  and  C_12
REMARK    5  A    between atoms: C_17  and  C_18
REMARK                            x       y       z     vdW  Elec       q    Type
REMARK                         _______ _______ _______ _____ _____    ______ ____
ROOT
ATOM      1  C   UNL     1       6.448   5.954  16.437  0.00  0.00    +0.000 C 
ATOM      2  C   UNL     1       7.291   4.967  15.556  0.00  0.00    +0.000 C 
ATOM      3  C   UNL     1       6.918   5.007  14.057  0.00  0.00    +0.000 C 
ATOM      4  C   UNL     1       5.995   3.803  13.846  0.00  0.00    +0.000 C 
ATOM      5  C   UNL     1       5.601   3.422  15.262  0.00  0.00    +0.000 C 
ATOM      6  C   UNL     1       4.573   4.413  15.879  0.00  0.00    +0.000 C 
ATOM      7  C   UNL     1       5.236   5.197  17.034  0.00  0.00    +0.000 C 
ATOM      8  N   UNL     1       6.917   3.577  15.916  0.00  0.00    +0.000 NA
ATOM      9  H   UNL     1       7.588   2.924  15.510  0.00  0.00    +0.000 HD
ENDROOT
BRANCH   7  10
ATOM     10  C   UNL     1       4.241   5.949  17.891  0.00  0.00    +0.000 A 
ATOM     11  C   UNL     1       3.757   7.225  17.591  0.00  0.00    +0.000 A 
ATOM     12  C   UNL     1       2.762   7.798  18.393  0.00  0.00    +0.000 A 
ATOM     13  C   UNL     1       2.247   7.100  19.486  0.00  0.00    +0.000 A 
ATOM     14  F   UNL     1       1.271   7.664  20.214  0.00  0.00    +0.000 F 
ATOM     15  C   UNL     1       2.716   5.834  19.819  0.00  0.00    +0.000 A 
ATOM     16  C   UNL     1       2.171   5.054  20.971  0.00  0.00    +0.000 C 
ATOM     17  C   UNL     1       3.726   5.278  19.023  0.00  0.00    +0.000 A 
ENDBRANCH   7  10
BRANCH   1  18
ATOM     18  C   UNL     1       7.303   6.525  17.550  0.00  0.00    +0.000 C 
ATOM     19  O   UNL     1       7.517   7.718  17.741  0.00  0.00    +0.000 OA
BRANCH  18  21
ATOM     20  C   UNL     1       7.677   5.740  19.723  0.00  0.00    +0.000 C 
ATOM     21  O   UNL     1       7.817   5.521  18.316  0.00  0.00    +0.000 OA
ENDBRANCH  18  21
ENDBRANCH   1  18
TORSDOF 3
ENDMDL
MODEL 9
REMARK VINA RESULT:      -7.0      3.301      5.339
REMARK  Name = 
REMARK  5 active torsions:
REMARK  status: ('A' for Active; 'I' for Inactive)
REMARK    1  A    between atoms: C_1  and  O_2
REMARK    2  A    between atoms: O_2  and  C_3
REMARK    3  A    between atoms: C_3  and  C_5
REMARK    4  A    between atoms: C_11  and  C_12
REMARK    5  A    between atoms: C_17  and  C_18
REMARK                            x       y       z     vdW  Elec       q    Type
REMARK                         _______ _______ _______ _____ _____    ______ ____
ROOT
ATOM      1  C   UNL     1       6.320   6.007  16.490  0.00  0.00    +0.000 C 
ATOM      2  C   UNL     1       7.245   5.103  15.603  0.00  0.00    +0.000 C 
ATOM      3  C   UNL     1       6.841   5.084  14.112  0.00  0.00    +0.000 C 
ATOM      4  C   UNL     1       6.047   3.786  13.933  0.00  0.00    +0.000 C 
ATOM      5  C   UNL     1       5.723   3.385  15.362  0.00  0.00    +0.000 C 
ATOM      6  C   UNL     1       4.609   4.268  15.989  0.00  0.00    +0.000 C 
ATOM      7  C   UNL     1       5.207   5.134  17.120  0.00  0.00    +0.000 C 
ATOM      8  N   UNL     1       7.028   3.686  15.986  0.00  0.00    +0.000 NA
ATOM      9  H   UNL     1       7.756   3.103  15.574  0.00  0.00    +0.000 HD
ENDROOT
BRANCH   7  10
ATOM     10  C   UNL     1       4.155   5.788  17.990  0.00  0.00    +0.000 A 
ATOM     11  C   UNL     1       3.778   5.316  19.250  0.00  0.00    +0.000 A 
ATOM     12  C   UNL     1       2.866   6.047  20.021  0.00  0.00    +0.000 A 
ATOM     13  C   UNL     1       2.334   7.245  19.542  0.00  0.00    +0.000 A 
ATOM     14  F   UNL     1       1.489   7.937  20.320  0.00  0.00    +0.000 F 
ATOM     15  C   UNL     1       2.679   7.734  18.286  0.00  0.00    +0.000 A 
ATOM     16  C   UNL     1       2.142   9.022  17.753  0.00  0.00    +0.000 C 
ATOM     17  C   UNL     1       3.576   6.986  17.514  0.00  0.00    +0.000 A 
ENDBRANCH   7  10
BRANCH   1  18
ATOM     18  C   UNL     1       7.132   6.680  17.578  0.00  0.00    +0.000 C 
ATOM     19  O   UNL     1       7.143   7.884  17.814  0.00  0.00    +0.000 OA
BRANCH  18  21
ATOM     20  C   UNL     1       7.635   5.774  19.678  0.00  0.00    +0.000 C 
ATOM     21  O   UNL     1       7.862   5.757  18.265  0.00  0.00    +0.000 OA
ENDBRANCH  18  21
ENDBRANCH   1  18
TORSDOF 3
ENDMDL
