MODEL 1
REMARK VINA RESULT:      -8.5      0.000      0.000
REMARK  Name = 
REMARK  8 active torsions:
REMARK  status: ('A' for Active; 'I' for Inactive)
REMARK    1  A    between atoms: C_1  and  C_2
REMARK    2  A    between atoms: C_2  and  C_3
REMARK    3  A    between atoms: C_3  and  S_4
REMARK    4  A    between atoms: S_4  and  N_7
REMARK    5  A    between atoms: N_10  and  C_11
REMARK    6  A    between atoms: C_11  and  C_12
REMARK    7  A    between atoms: C_12  and  N_13
REMARK    8  A    between atoms: C_14  and  C_16
REMARK                            x       y       z     vdW  Elec       q    Type
REMARK                         _______ _______ _______ _____ _____    ______ ____
ROOT
ATOM      1  C   UNL     1       2.641   5.174  19.671  0.00  0.00    +0.000 C 
ATOM      2  C   UNL     1       1.673   4.967  18.441  0.00  0.00    +0.000 C 
ATOM      3  C   UNL     1       1.678   3.506  18.117  0.00  0.00    +0.000 C 
ATOM      4  C   UNL     1       0.918   2.512  18.959  0.00  0.00    +0.000 C 
ATOM      5  C   UNL     1       2.382   2.764  19.198  0.00  0.00    +0.000 C 
ATOM      6  C   UNL     1       2.831   3.730  20.248  0.00  0.00    +0.000 C 
ENDROOT
BRANCH   1  10
ATOM      7  N   UNL     1       5.485   4.674  17.068  0.00  0.00    +0.000 NA
ATOM      8  C   UNL     1       5.647   4.215  18.486  0.00  0.00    +0.000 C 
ATOM      9  C   UNL     1       5.181   5.260  19.522  0.00  0.00    +0.000 C 
ATOM     10  N   UNL     1       3.878   5.921  19.270  0.00  0.00    +0.000 NA
ATOM     11  C   UNL     1       3.916   6.453  17.893  0.00  0.00    +0.000 C 
ATOM     12  C   UNL     1       4.223   5.417  16.803  0.00  0.00    +0.000 C 
BRANCH   7  13
ATOM     13  S   UNL     1       6.862   5.280  16.301  0.00  0.00    +0.000 S 
ATOM     14  O   UNL     1       7.948   4.338  16.504  0.00  0.00    +0.000 OA
ATOM     15  O   UNL     1       6.992   6.674  16.656  0.00  0.00    +0.000 OA
BRANCH  13  16
ATOM     16  C   UNL     1       6.352   5.163  14.580  0.00  0.00    +0.000 C 
BRANCH  16  18
ATOM     17  C   UNL     1       6.214   3.586  12.644  0.00  0.00    +0.000 C 
ATOM     18  C   UNL     1       6.207   3.711  14.155  0.00  0.00    +0.000 C 
ENDBRANCH  16  18
ENDBRANCH  13  16
ENDBRANCH   7  13
ENDBRANCH   1  10
BRANCH   1  19
ATOM     19  C   UNL     1       1.837   6.006  20.723  0.00  0.00    +0.000 C 
BRANCH  19  20
ATOM     20  N   UNL     1       1.842   7.426  20.428  0.00  0.00    +0.000 N 
ATOM     21  C   UNL     1       0.777   8.235  20.750  0.00  0.00    +0.000 C 
ATOM     22  O   UNL     1      -0.226   7.815  21.318  0.00  0.00    +0.000 OA
ATOM     23  H   UNL     1       2.665   7.797  19.962  0.00  0.00    +0.000 HD
BRANCH  21  24
ATOM     24  C   UNL     1       0.884   9.658  20.368  0.00  0.00    +0.000 A 
ATOM     25  C   UNL     1       1.202  10.051  19.068  0.00  0.00    +0.000 A 
ATOM     26  F   UNL     1       1.456   9.144  18.112  0.00  0.00    +0.000 F 
ATOM     27  C   UNL     1       1.263  11.400  18.717  0.00  0.00    +0.000 A 
ATOM     28  C   UNL     1       1.009  12.379  19.676  0.00  0.00    +0.000 A 
ATOM     29  C   UNL     1       0.703  11.999  20.982  0.00  0.00    +0.000 A 
ATOM     30  C   UNL     1       0.637  10.647  21.321  0.00  0.00    +0.000 A 
ATOM     31  F   UNL     1       0.369  10.338  22.596  0.00  0.00    +0.000 F 
ENDBRANCH  21  24
ENDBRANCH  19  20
ENDBRANCH   1  19
TORSDOF 7
ENDMDL
MODEL 2
REMARK VINA RESULT:      -8.5      1.309      2.363
REMARK  Name = 
REMARK  8 active torsions:
REMARK  status: ('A' for Active; 'I' for Inactive)
REMARK    1  A    between atoms: C_1  and  C_2
REMARK    2  A    between atoms: C_2  and  C_3
REMARK    3  A    between atoms: C_3  and  S_4
REMARK    4  A    between atoms: S_4  and  N_7
REMARK    5  A    between atoms: N_10  and  C_11
REMARK    6  A    between atoms: C_11  and  C_12
REMARK    7  A    between atoms: C_12  and  N_13
REMARK    8  A    between atoms: C_14  and  C_16
REMARK                            x       y       z     vdW  Elec       q    Type
REMARK                         _______ _______ _______ _____ _____    ______ ____
ROOT
ATOM      1  C   UNL     1       2.601   5.068  19.621  0.00  0.00    +0.000 C 
ATOM      2  C   UNL     1       1.592   4.914  18.417  0.00  0.00    +0.000 C 
ATOM      3  C   UNL     1       1.520   3.456  18.086  0.00  0.00    +0.000 C 
ATOM      4  C   UNL     1       0.737   2.493  18.943  0.00  0.00    +0.000 C 
ATOM      5  C   UNL     1       2.217   2.676  19.143  0.00  0.00    +0.000 C 
ATOM      6  C   UNL     1       2.739   3.613  20.186  0.00  0.00    +0.000 C 
ENDROOT
BRANCH   1  10
ATOM      7  N   UNL     1       5.573   4.239  17.257  0.00  0.00    +0.000 NA
ATOM      8  C   UNL     1       5.660   3.971  18.729  0.00  0.00    +0.000 C 
ATOM      9  C   UNL     1       5.145   5.141  19.594  0.00  0.00    +0.000 C 
ATOM     10  N   UNL     1       3.860   5.759  19.190  0.00  0.00    +0.000 NA
ATOM     11  C   UNL     1       3.971   6.106  17.759  0.00  0.00    +0.000 C 
ATOM     12  C   UNL     1       4.330   4.937  16.831  0.00  0.00    +0.000 C 
BRANCH   7  13
ATOM     13  S   UNL     1       6.991   4.743  16.489  0.00  0.00    +0.000 S 
ATOM     14  O   UNL     1       6.870   4.453  15.072  0.00  0.00    +0.000 OA
ATOM     15  O   UNL     1       8.112   4.268  17.268  0.00  0.00    +0.000 OA
BRANCH  13  16
ATOM     16  C   UNL     1       6.854   6.525  16.695  0.00  0.00    +0.000 C 
BRANCH  16  18
ATOM     17  C   UNL     1       7.920   8.511  17.776  0.00  0.00    +0.000 C 
ATOM     18  C   UNL     1       7.734   7.008  17.836  0.00  0.00    +0.000 C 
ENDBRANCH  16  18
ENDBRANCH  13  16
ENDBRANCH   7  13
ENDBRANCH   1  10
BRANCH   1  19
ATOM     19  C   UNL     1       1.865   5.930  20.699  0.00  0.00    +0.000 C 
BRANCH  19  20
ATOM     20  N   UNL     1       1.873   7.345  20.377  0.00  0.00    +0.000 N 
ATOM     21  C   UNL     1       0.833   8.173  20.733  0.00  0.00    +0.000 C 
ATOM     22  O   UNL     1      -0.147   7.774  21.355  0.00  0.00    +0.000 OA
ATOM     23  H   UNL     1       2.678   7.696  19.867  0.00  0.00    +0.000 HD
BRANCH  21  24
ATOM     24  C   UNL     1       0.939   9.587  20.320  0.00  0.00    +0.000 A 
ATOM     25  C   UNL     1       0.760  10.634  21.225  0.00  0.00    +0.000 A 
ATOM     26  F   UNL     1       0.455  10.396  22.509  0.00  0.00    +0.000 F 
ATOM     27  C   UNL     1       0.900  11.963  20.825  0.00  0.00    +0.000 A 
ATOM     28  C   UNL     1       1.215  12.260  19.500  0.00  0.00    +0.000 A 
ATOM     29  C   UNL     1       1.382  11.223  18.584  0.00  0.00    +0.000 A 
ATOM     30  C   UNL     1       1.249   9.896  18.996  0.00  0.00    +0.000 A 
ATOM     31  F   UNL     1       1.389   8.940  18.069  0.00  0.00    +0.000 F 
ENDBRANCH  21  24
ENDBRANCH  19  20
ENDBRANCH   1  19
TORSDOF 7
ENDMDL
MODEL 3
REMARK VINA RESULT:      -8.5      1.309      1.824
REMARK  Name = 
REMARK  8 active torsions:
REMARK  status: ('A' for Active; 'I' for Inactive)
REMARK    1  A    between atoms: C_1  and  C_2
REMARK    2  A    between atoms: C_2  and  C_3
REMARK    3  A    between atoms: C_3  and  S_4
REMARK    4  A    between atoms: S_4  and  N_7
REMARK    5  A    between atoms: N_10  and  C_11
REMARK    6  A    between atoms: C_11  and  C_12
REMARK    7  A    between atoms: C_12  and  N_13
REMARK    8  A    between atoms: C_14  and  C_16
REMARK                            x       y       z     vdW  Elec       q    Type
REMARK                         _______ _______ _______ _____ _____    ______ ____
ROOT
ATOM      1  C   UNL     1       2.608   5.057  19.634  0.00  0.00    +0.000 C 
ATOM      2  C   UNL     1       1.599   4.922  18.428  0.00  0.00    +0.000 C 
ATOM      3  C   UNL     1       1.521   3.469  18.079  0.00  0.00    +0.000 C 
ATOM      4  C   UNL     1       0.734   2.499  18.924  0.00  0.00    +0.000 C 
ATOM      5  C   UNL     1       2.214   2.673  19.127  0.00  0.00    +0.000 C 
ATOM      6  C   UNL     1       2.740   3.595  20.181  0.00  0.00    +0.000 C 
ENDROOT
BRANCH   1  10
ATOM      7  N   UNL     1       5.570   4.252  17.248  0.00  0.00    +0.000 NA
ATOM      8  C   UNL     1       5.658   3.958  18.716  0.00  0.00    +0.000 C 
ATOM      9  C   UNL     1       5.153   5.116  19.602  0.00  0.00    +0.000 C 
ATOM     10  N   UNL     1       3.870   5.749  19.212  0.00  0.00    +0.000 NA
ATOM     11  C   UNL     1       3.980   6.120  17.787  0.00  0.00    +0.000 C 
ATOM     12  C   UNL     1       4.330   4.965  16.838  0.00  0.00    +0.000 C 
BRANCH   7  13
ATOM     13  S   UNL     1       6.988   4.761  16.486  0.00  0.00    +0.000 S 
ATOM     14  O   UNL     1       6.863   4.497  15.065  0.00  0.00    +0.000 OA
ATOM     15  O   UNL     1       8.108   4.265  17.253  0.00  0.00    +0.000 OA
BRANCH  13  16
ATOM     16  C   UNL     1       6.863   6.540  16.724  0.00  0.00    +0.000 C 
BRANCH  16  18
ATOM     17  C   UNL     1       7.986   8.488  17.816  0.00  0.00    +0.000 C 
ATOM     18  C   UNL     1       7.735   6.994  17.883  0.00  0.00    +0.000 C 
ENDBRANCH  16  18
ENDBRANCH  13  16
ENDBRANCH   7  13
ENDBRANCH   1  10
BRANCH   1  19
ATOM     19  C   UNL     1       1.876   5.909  20.722  0.00  0.00    +0.000 C 
BRANCH  19  20
ATOM     20  N   UNL     1       1.878   7.326  20.412  0.00  0.00    +0.000 N 
ATOM     21  C   UNL     1       0.818   8.140  20.737  0.00  0.00    +0.000 C 
ATOM     22  O   UNL     1      -0.179   7.726  21.322  0.00  0.00    +0.000 OA
ATOM     23  H   UNL     1       2.697   7.691  19.933  0.00  0.00    +0.000 HD
BRANCH  21  24
ATOM     24  C   UNL     1       0.921   9.558  20.339  0.00  0.00    +0.000 A 
ATOM     25  C   UNL     1       1.176   9.937  19.021  0.00  0.00    +0.000 A 
ATOM     26  F   UNL     1       1.368   9.020  18.061  0.00  0.00    +0.000 F 
ATOM     27  C   UNL     1       1.234  11.283  18.657  0.00  0.00    +0.000 A 
ATOM     28  C   UNL     1       1.043  12.272  19.620  0.00  0.00    +0.000 A 
ATOM     29  C   UNL     1       0.801  11.906  20.943  0.00  0.00    +0.000 A 
ATOM     30  C   UNL     1       0.737  10.557  21.295  0.00  0.00    +0.000 A 
ATOM     31  F   UNL     1       0.532  10.261  22.586  0.00  0.00    +0.000 F 
ENDBRANCH  21  24
ENDBRANCH  19  20
ENDBRANCH   1  19
TORSDOF 7
ENDMDL
MODEL 4
REMARK VINA RESULT:      -8.4      0.442      1.585
REMARK  Name = 
REMARK  8 active torsions:
REMARK  status: ('A' for Active; 'I' for Inactive)
REMARK    1  A    between atoms: C_1  and  C_2
REMARK    2  A    between atoms: C_2  and  C_3
REMARK    3  A    between atoms: C_3  and  S_4
REMARK    4  A    between atoms: S_4  and  N_7
REMARK    5  A    between atoms: N_10  and  C_11
REMARK    6  A    between atoms: C_11  and  C_12
REMARK    7  A    between atoms: C_12  and  N_13
REMARK    8  A    between atoms: C_14  and  C_16
REMARK                            x       y       z     vdW  Elec       q    Type
REMARK                         _______ _______ _______ _____ _____    ______ ____
ROOT
ATOM      1  C   UNL     1       2.607   5.084  19.661  0.00  0.00    +0.000 C 
ATOM      2  C   UNL     1       1.507   4.797  18.566  0.00  0.00    +0.000 C 
ATOM      3  C   UNL     1       1.511   3.321  18.314  0.00  0.00    +0.000 C 
ATOM      4  C   UNL     1       0.881   2.356  19.286  0.00  0.00    +0.000 C 
ATOM      5  C   UNL     1       2.356   2.649  19.337  0.00  0.00    +0.000 C 
ATOM      6  C   UNL     1       2.901   3.675  20.279  0.00  0.00    +0.000 C 
ENDROOT
BRANCH   1  10
ATOM      7  N   UNL     1       5.522   4.267  17.222  0.00  0.00    +0.000 NA
ATOM      8  C   UNL     1       5.710   4.177  18.706  0.00  0.00    +0.000 C 
ATOM      9  C   UNL     1       5.128   5.386  19.469  0.00  0.00    +0.000 C 
ATOM     10  N   UNL     1       3.769   5.834  19.081  0.00  0.00    +0.000 NA
ATOM     11  C   UNL     1       3.772   6.025  17.616  0.00  0.00    +0.000 C 
ATOM     12  C   UNL     1       4.196   4.795  16.801  0.00  0.00    +0.000 C 
BRANCH   7  13
ATOM     13  S   UNL     1       6.842   4.808  16.318  0.00  0.00    +0.000 S 
ATOM     14  O   UNL     1       8.047   4.217  16.872  0.00  0.00    +0.000 OA
ATOM     15  O   UNL     1       6.709   6.237  16.146  0.00  0.00    +0.000 OA
BRANCH  13  16
ATOM     16  C   UNL     1       6.511   4.000  14.745  0.00  0.00    +0.000 C 
BRANCH  16  18
ATOM     17  C   UNL     1       6.856   4.095  12.271  0.00  0.00    +0.000 C 
ATOM     18  C   UNL     1       7.178   4.746  13.602  0.00  0.00    +0.000 C 
ENDBRANCH  16  18
ENDBRANCH  13  16
ENDBRANCH   7  13
ENDBRANCH   1  10
BRANCH   1  19
ATOM     19  C   UNL     1       1.912   5.952  20.761  0.00  0.00    +0.000 C 
BRANCH  19  20
ATOM     20  N   UNL     1       1.892   7.363  20.424  0.00  0.00    +0.000 N 
ATOM     21  C   UNL     1       0.829   8.170  20.756  0.00  0.00    +0.000 C 
ATOM     22  O   UNL     1      -0.150   7.757  21.369  0.00  0.00    +0.000 OA
ATOM     23  H   UNL     1       2.696   7.727  19.920  0.00  0.00    +0.000 HD
BRANCH  21  24
ATOM     24  C   UNL     1       0.908   9.582  20.329  0.00  0.00    +0.000 A 
ATOM     25  C   UNL     1       0.783  10.635  21.236  0.00  0.00    +0.000 A 
ATOM     26  F   UNL     1       0.555  10.405  22.538  0.00  0.00    +0.000 F 
ATOM     27  C   UNL     1       0.897  11.962  20.820  0.00  0.00    +0.000 A 
ATOM     28  C   UNL     1       1.132  12.250  19.477  0.00  0.00    +0.000 A 
ATOM     29  C   UNL     1       1.245  11.207  18.559  0.00  0.00    +0.000 A 
ATOM     30  C   UNL     1       1.138   9.884  18.986  0.00  0.00    +0.000 A 
ATOM     31  F   UNL     1       1.224   8.921  18.058  0.00  0.00    +0.000 F 
ENDBRANCH  21  24
ENDBRANCH  19  20
ENDBRANCH   1  19
TORSDOF 7
ENDMDL
MODEL 5
REMARK VINA RESULT:      -8.3      1.479      1.874
REMARK  Name = 
REMARK  8 active torsions:
REMARK  status: ('A' for Active; 'I' for Inactive)
REMARK    1  A    between atoms: C_1  and  C_2
REMARK    2  A    between atoms: C_2  and  C_3
REMARK    3  A    between atoms: C_3  and  S_4
REMARK    4  A    between atoms: S_4  and  N_7
REMARK    5  A    between atoms: N_10  and  C_11
REMARK    6  A    between atoms: C_11  and  C_12
REMARK    7  A    between atoms: C_12  and  N_13
REMARK    8  A    between atoms: C_14  and  C_16
REMARK                            x       y       z     vdW  Elec       q    Type
REMARK                         _______ _______ _______ _____ _____    ______ ____
ROOT
ATOM      1  C   UNL     1       2.825   5.736  19.156  0.00  0.00    +0.000 C 
ATOM      2  C   UNL     1       2.368   4.525  18.252  0.00  0.00    +0.000 C 
ATOM      3  C   UNL     1       1.914   3.435  19.171  0.00  0.00    +0.000 C 
ATOM      4  C   UNL     1       0.577   3.499  19.866  0.00  0.00    +0.000 C 
ATOM      5  C   UNL     1       1.829   3.965  20.559  0.00  0.00    +0.000 C 
ATOM      6  C   UNL     1       2.211   5.411  20.559  0.00  0.00    +0.000 C 
ENDROOT
BRANCH   1  10
ATOM      7  N   UNL     1       5.615   5.055  16.535  0.00  0.00    +0.000 NA
ATOM      8  C   UNL     1       5.319   4.067  17.623  0.00  0.00    +0.000 C 
ATOM      9  C   UNL     1       5.154   4.719  19.012  0.00  0.00    +0.000 C 
ATOM     10  N   UNL     1       4.310   5.936  19.086  0.00  0.00    +0.000 NA
ATOM     11  C   UNL     1       4.807   6.877  18.063  0.00  0.00    +0.000 C 
ATOM     12  C   UNL     1       4.843   6.324  16.632  0.00  0.00    +0.000 C 
BRANCH   7  13
ATOM     13  S   UNL     1       7.231   5.218  16.072  0.00  0.00    +0.000 S 
ATOM     14  O   UNL     1       7.990   4.139  16.676  0.00  0.00    +0.000 OA
ATOM     15  O   UNL     1       7.607   6.602  16.250  0.00  0.00    +0.000 OA
BRANCH  13  16
ATOM     16  C   UNL     1       7.099   4.874  14.311  0.00  0.00    +0.000 C 
BRANCH  16  18
ATOM     17  C   UNL     1       6.002   3.440  12.582  0.00  0.00    +0.000 C 
ATOM     18  C   UNL     1       5.999   3.862  14.038  0.00  0.00    +0.000 C 
ENDBRANCH  16  18
ENDBRANCH  13  16
ENDBRANCH   7  13
ENDBRANCH   1  10
BRANCH   1  19
ATOM     19  C   UNL     1       2.094   6.999  18.596  0.00  0.00    +0.000 C 
BRANCH  19  20
ATOM     20  N   UNL     1       1.347   7.707  19.619  0.00  0.00    +0.000 N 
ATOM     21  C   UNL     1       1.264   9.081  19.634  0.00  0.00    +0.000 C 
ATOM     22  O   UNL     1       1.795   9.785  18.780  0.00  0.00    +0.000 OA
ATOM     23  H   UNL     1       0.895   7.143  20.332  0.00  0.00    +0.000 HD
BRANCH  21  24
ATOM     24  C   UNL     1       0.505   9.689  20.744  0.00  0.00    +0.000 A 
ATOM     25  C   UNL     1      -0.444  10.688  20.529  0.00  0.00    +0.000 A 
ATOM     26  F   UNL     1      -0.685  11.161  19.296  0.00  0.00    +0.000 F 
ATOM     27  C   UNL     1      -1.178  11.226  21.587  0.00  0.00    +0.000 A 
ATOM     28  C   UNL     1      -0.961  10.768  22.885  0.00  0.00    +0.000 A 
ATOM     29  C   UNL     1      -0.006   9.779  23.115  0.00  0.00    +0.000 A 
ATOM     30  C   UNL     1       0.717   9.243  22.049  0.00  0.00    +0.000 A 
ATOM     31  F   UNL     1       1.644   8.318  22.330  0.00  0.00    +0.000 F 
ENDBRANCH  21  24
ENDBRANCH  19  20
ENDBRANCH   1  19
TORSDOF 7
ENDMDL
MODEL 6
REMARK VINA RESULT:      -8.3      2.150      3.149
REMARK  Name = 
REMARK  8 active torsions:
REMARK  status: ('A' for Active; 'I' for Inactive)
REMARK    1  A    between atoms: C_1  and  C_2
REMARK    2  A    between atoms: C_2  and  C_3
REMARK    3  A    between atoms: C_3  and  S_4
REMARK    4  A    between atoms: S_4  and  N_7
REMARK    5  A    between atoms: N_10  and  C_11
REMARK    6  A    between atoms: C_11  and  C_12
REMARK    7  A    between atoms: C_12  and  N_13
REMARK    8  A    between atoms: C_14  and  C_16
REMARK                            x       y       z     vdW  Elec       q    Type
REMARK                         _______ _______ _______ _____ _____    ______ ____
ROOT
ATOM      1  C   UNL     1       2.685   3.888  18.585  0.00  0.00    +0.000 C 
ATOM      2  C   UNL     1       1.687   2.703  18.283  0.00  0.00    +0.000 C 
ATOM      3  C   UNL     1       1.250   2.147  19.602  0.00  0.00    +0.000 C 
ATOM      4  C   UNL     1       0.237   2.862  20.460  0.00  0.00    +0.000 C 
ATOM      5  C   UNL     1       1.712   3.047  20.693  0.00  0.00    +0.000 C 
ATOM      6  C   UNL     1       2.441   4.210  20.098  0.00  0.00    +0.000 C 
ENDROOT
BRANCH   1  10
ATOM      7  N   UNL     1       5.903   5.862  17.655  0.00  0.00    +0.000 NA
ATOM      8  C   UNL     1       4.962   5.376  16.594  0.00  0.00    +0.000 C 
ATOM      9  C   UNL     1       4.505   3.916  16.806  0.00  0.00    +0.000 C 
ATOM     10  N   UNL     1       4.085   3.536  18.175  0.00  0.00    +0.000 NA
ATOM     11  C   UNL     1       5.168   3.940  19.094  0.00  0.00    +0.000 C 
ATOM     12  C   UNL     1       5.554   5.424  19.033  0.00  0.00    +0.000 C 
BRANCH   7  13
ATOM     13  S   UNL     1       7.549   5.843  17.279  0.00  0.00    +0.000 S 
ATOM     14  O   UNL     1       7.707   6.266  15.899  0.00  0.00    +0.000 OA
ATOM     15  O   UNL     1       8.101   4.596  17.757  0.00  0.00    +0.000 OA
BRANCH  13  16
ATOM     16  C   UNL     1       8.136   7.180  18.330  0.00  0.00    +0.000 C 
BRANCH  16  18
ATOM     17  C   UNL     1       8.656   9.625  18.382  0.00  0.00    +0.000 C 
ATOM     18  C   UNL     1       7.867   8.531  17.689  0.00  0.00    +0.000 C 
ENDBRANCH  16  18
ENDBRANCH  13  16
ENDBRANCH   7  13
ENDBRANCH   1  10
BRANCH   1  19
ATOM     19  C   UNL     1       2.180   5.109  17.750  0.00  0.00    +0.000 C 
BRANCH  19  20
ATOM     20  N   UNL     1       1.684   6.186  18.586  0.00  0.00    +0.000 N 
ATOM     21  C   UNL     1       2.201   7.458  18.508  0.00  0.00    +0.000 C 
ATOM     22  O   UNL     1       3.091   7.764  17.722  0.00  0.00    +0.000 OA
ATOM     23  H   UNL     1       0.942   5.956  19.241  0.00  0.00    +0.000 HD
BRANCH  21  24
ATOM     24  C   UNL     1       1.638   8.462  19.434  0.00  0.00    +0.000 A 
ATOM     25  C   UNL     1       1.285   9.743  19.008  0.00  0.00    +0.000 A 
ATOM     26  F   UNL     1       1.471  10.126  17.736  0.00  0.00    +0.000 F 
ATOM     27  C   UNL     1       0.721  10.666  19.889  0.00  0.00    +0.000 A 
ATOM     28  C   UNL     1       0.510  10.314  21.221  0.00  0.00    +0.000 A 
ATOM     29  C   UNL     1       0.871   9.042  21.662  0.00  0.00    +0.000 A 
ATOM     30  C   UNL     1       1.427   8.124  20.771  0.00  0.00    +0.000 A 
ATOM     31  F   UNL     1       1.785   6.927  21.254  0.00  0.00    +0.000 F 
ENDBRANCH  21  24
ENDBRANCH  19  20
ENDBRANCH   1  19
TORSDOF 7
ENDMDL
MODEL 7
REMARK VINA RESULT:      -8.1      1.438      2.025
REMARK  Name = 
REMARK  8 active torsions:
REMARK  status: ('A' for Active; 'I' for Inactive)
REMARK    1  A    between atoms: C_1  and  C_2
REMARK    2  A    between atoms: C_2  and  C_3
REMARK    3  A    between atoms: C_3  and  S_4
REMARK    4  A    between atoms: S_4  and  N_7
REMARK    5  A    between atoms: N_10  and  C_11
REMARK    6  A    between atoms: C_11  and  C_12
REMARK    7  A    between atoms: C_12  and  N_13
REMARK    8  A    between atoms: C_14  and  C_16
REMARK                            x       y       z     vdW  Elec       q    Type
REMARK                         _______ _______ _______ _____ _____    ______ ____
ROOT
ATOM      1  C   UNL     1       2.865   5.365  19.333  0.00  0.00    +0.000 C 
ATOM      2  C   UNL     1       2.347   4.128  18.500  0.00  0.00    +0.000 C 
ATOM      3  C   UNL     1       1.795   3.139  19.479  0.00  0.00    +0.000 C 
ATOM      4  C   UNL     1       0.449   3.343  20.127  0.00  0.00    +0.000 C 
ATOM      5  C   UNL     1       1.712   3.770  20.823  0.00  0.00    +0.000 C 
ATOM      6  C   UNL     1       2.195   5.183  20.736  0.00  0.00    +0.000 C 
ENDROOT
BRANCH   1  10
ATOM      7  N   UNL     1       5.611   5.087  16.594  0.00  0.00    +0.000 NA
ATOM      8  C   UNL     1       5.230   3.902  17.429  0.00  0.00    +0.000 C 
ATOM      9  C   UNL     1       5.108   4.228  18.933  0.00  0.00    +0.000 C 
ATOM     10  N   UNL     1       4.362   5.458  19.294  0.00  0.00    +0.000 NA
ATOM     11  C   UNL     1       4.939   6.567  18.509  0.00  0.00    +0.000 C 
ATOM     12  C   UNL     1       4.942   6.356  16.988  0.00  0.00    +0.000 C 
BRANCH   7  13
ATOM     13  S   UNL     1       7.238   5.224  16.163  0.00  0.00    +0.000 S 
ATOM     14  O   UNL     1       7.981   4.183  16.849  0.00  0.00    +0.000 OA
ATOM     15  O   UNL     1       7.610   6.616  16.268  0.00  0.00    +0.000 OA
BRANCH  13  16
ATOM     16  C   UNL     1       7.150   4.776  14.423  0.00  0.00    +0.000 C 
BRANCH  16  18
ATOM     17  C   UNL     1       5.815   3.498  12.739  0.00  0.00    +0.000 C 
ATOM     18  C   UNL     1       5.783   4.209  14.077  0.00  0.00    +0.000 C 
ENDBRANCH  16  18
ENDBRANCH  13  16
ENDBRANCH   7  13
ENDBRANCH   1  10
BRANCH   1  19
ATOM     19  C   UNL     1       2.239   6.633  18.666  0.00  0.00    +0.000 C 
BRANCH  19  20
ATOM     20  N   UNL     1       1.518   7.460  19.615  0.00  0.00    +0.000 N 
ATOM     21  C   UNL     1       1.265   8.790  19.369  0.00  0.00    +0.000 C 
ATOM     22  O   UNL     1       1.613   9.350  18.334  0.00  0.00    +0.000 OA
ATOM     23  H   UNL     1       1.215   7.015  20.477  0.00  0.00    +0.000 HD
BRANCH  21  24
ATOM     24  C   UNL     1       0.553   9.538  20.425  0.00  0.00    +0.000 A 
ATOM     25  C   UNL     1       0.698   9.223  21.777  0.00  0.00    +0.000 A 
ATOM     26  F   UNL     1       1.472   8.201  22.171  0.00  0.00    +0.000 F 
ATOM     27  C   UNL     1       0.045   9.964  22.763  0.00  0.00    +0.000 A 
ATOM     28  C   UNL     1      -0.772  11.033  22.401  0.00  0.00    +0.000 A 
ATOM     29  C   UNL     1      -0.935  11.349  21.053  0.00  0.00    +0.000 A 
ATOM     30  C   UNL     1      -0.272  10.607  20.075  0.00  0.00    +0.000 A 
ATOM     31  F   UNL     1      -0.487  10.934  18.794  0.00  0.00    +0.000 F 
ENDBRANCH  21  24
ENDBRANCH  19  20
ENDBRANCH   1  19
TORSDOF 7
ENDMDL
MODEL 8
REMARK VINA RESULT:      -8.1      1.392      2.070
REMARK  Name = 
REMARK  8 active torsions:
REMARK  status: ('A' for Active; 'I' for Inactive)
REMARK    1  A    between atoms: C_1  and  C_2
REMARK    2  A    between atoms: C_2  and  C_3
REMARK    3  A    between atoms: C_3  and  S_4
REMARK    4  A    between atoms: S_4  and  N_7
REMARK    5  A    between atoms: N_10  and  C_11
REMARK    6  A    between atoms: C_11  and  C_12
REMARK    7  A    between atoms: C_12  and  N_13
REMARK    8  A    between atoms: C_14  and  C_16
REMARK                            x       y       z     vdW  Elec       q    Type
REMARK                         _______ _______ _______ _____ _____    ______ ____
ROOT
ATOM      1  C   UNL     1       2.715   6.097  19.007  0.00  0.00    +0.000 C 
ATOM      2  C   UNL     1       2.367   4.715  18.329  0.00  0.00    +0.000 C 
ATOM      3  C   UNL     1       1.962   3.777  19.422  0.00  0.00    +0.000 C 
ATOM      4  C   UNL     1       0.605   3.867  20.073  0.00  0.00    +0.000 C 
ATOM      5  C   UNL     1       1.801   4.538  20.690  0.00  0.00    +0.000 C 
ATOM      6  C   UNL     1       2.084   5.985  20.437  0.00  0.00    +0.000 C 
ENDROOT
BRANCH   1  10
ATOM      7  N   UNL     1       5.640   5.069  16.662  0.00  0.00    +0.000 NA
ATOM      8  C   UNL     1       5.373   4.324  17.935  0.00  0.00    +0.000 C 
ATOM      9  C   UNL     1       5.112   5.251  19.141  0.00  0.00    +0.000 C 
ATOM     10  N   UNL     1       4.184   6.388  18.926  0.00  0.00    +0.000 NA
ATOM     11  C   UNL     1       4.653   7.116  17.731  0.00  0.00    +0.000 C 
ATOM     12  C   UNL     1       4.780   6.266  16.459  0.00  0.00    +0.000 C 
BRANCH   7  13
ATOM     13  S   UNL     1       7.257   5.247  16.208  0.00  0.00    +0.000 S 
ATOM     14  O   UNL     1       8.034   4.219  16.877  0.00  0.00    +0.000 OA
ATOM     15  O   UNL     1       7.598   6.647  16.318  0.00  0.00    +0.000 OA
BRANCH  13  16
ATOM     16  C   UNL     1       7.155   4.808  14.467  0.00  0.00    +0.000 C 
BRANCH  16  18
ATOM     17  C   UNL     1       5.659   3.663  12.823  0.00  0.00    +0.000 C 
ATOM     18  C   UNL     1       6.168   3.673  14.251  0.00  0.00    +0.000 C 
ENDBRANCH  16  18
ENDBRANCH  13  16
ENDBRANCH   7  13
ENDBRANCH   1  10
BRANCH   1  19
ATOM     19  C   UNL     1       1.916   7.185  18.217  0.00  0.00    +0.000 C 
BRANCH  19  20
ATOM     20  N   UNL     1       1.835   8.444  18.934  0.00  0.00    +0.000 N 
ATOM     21  C   UNL     1       1.010   9.462  18.515  0.00  0.00    +0.000 C 
ATOM     22  O   UNL     1       0.284   9.363  17.531  0.00  0.00    +0.000 OA
ATOM     23  H   UNL     1       2.423   8.544  19.755  0.00  0.00    +0.000 HD
BRANCH  21  24
ATOM     24  C   UNL     1       1.039  10.709  19.306  0.00  0.00    +0.000 A 
ATOM     25  C   UNL     1       0.319  10.845  20.494  0.00  0.00    +0.000 A 
ATOM     26  F   UNL     1      -0.457   9.852  20.952  0.00  0.00    +0.000 F 
ATOM     27  C   UNL     1       0.388  12.018  21.247  0.00  0.00    +0.000 A 
ATOM     28  C   UNL     1       1.180  13.078  20.810  0.00  0.00    +0.000 A 
ATOM     29  C   UNL     1       1.892  12.959  19.618  0.00  0.00    +0.000 A 
ATOM     30  C   UNL     1       1.824  11.779  18.876  0.00  0.00    +0.000 A 
ATOM     31  F   UNL     1       2.503  11.729  17.723  0.00  0.00    +0.000 F 
ENDBRANCH  21  24
ENDBRANCH  19  20
ENDBRANCH   1  19
TORSDOF 7
ENDMDL
MODEL 9
REMARK VINA RESULT:      -8.0      1.733      2.218
REMARK  Name = 
REMARK  8 active torsions:
REMARK  status: ('A' for Active; 'I' for Inactive)
REMARK    1  A    between atoms: C_1  and  C_2
REMARK    2  A    between atoms: C_2  and  C_3
REMARK    3  A    between atoms: C_3  and  S_4
REMARK    4  A    between atoms: S_4  and  N_7
REMARK    5  A    between atoms: N_10  and  C_11
REMARK    6  A    between atoms: C_11  and  C_12
REMARK    7  A    between atoms: C_12  and  N_13
REMARK    8  A    between atoms: C_14  and  C_16
REMARK                            x       y       z     vdW  Elec       q    Type
REMARK                         _______ _______ _______ _____ _____    ______ ____
ROOT
ATOM      1  C   UNL     1       2.704   4.480  19.940  0.00  0.00    +0.000 C 
ATOM      2  C   UNL     1       1.915   4.578  18.576  0.00  0.00    +0.000 C 
ATOM      3  C   UNL     1       1.595   3.179  18.151  0.00  0.00    +0.000 C 
ATOM      4  C   UNL     1       0.487   2.393  18.806  0.00  0.00    +0.000 C 
ATOM      5  C   UNL     1       1.913   2.242  19.262  0.00  0.00    +0.000 C 
ATOM      6  C   UNL     1       2.429   3.019  20.431  0.00  0.00    +0.000 C 
ENDROOT
BRANCH   1  10
ATOM      7  N   UNL     1       5.126   4.979  16.940  0.00  0.00    +0.000 NA
ATOM      8  C   UNL     1       5.088   3.684  17.695  0.00  0.00    +0.000 C 
ATOM      9  C   UNL     1       5.071   3.872  19.227  0.00  0.00    +0.000 C 
ATOM     10  N   UNL     1       4.137   4.888  19.768  0.00  0.00    +0.000 NA
ATOM     11  C   UNL     1       4.387   6.147  19.037  0.00  0.00    +0.000 C 
ATOM     12  C   UNL     1       4.262   6.048  17.510  0.00  0.00    +0.000 C 
BRANCH   7  13
ATOM     13  S   UNL     1       6.633   5.485  16.371  0.00  0.00    +0.000 S 
ATOM     14  O   UNL     1       6.572   5.560  14.922  0.00  0.00    +0.000 OA
ATOM     15  O   UNL     1       7.648   4.711  17.048  0.00  0.00    +0.000 OA
BRANCH  13  16
ATOM     16  C   UNL     1       6.668   7.169  17.003  0.00  0.00    +0.000 C 
BRANCH  16  18
ATOM     17  C   UNL     1       8.228   8.839  18.017  0.00  0.00    +0.000 C 
ATOM     18  C   UNL     1       7.849   7.373  17.937  0.00  0.00    +0.000 C 
ENDBRANCH  16  18
ENDBRANCH  13  16
ENDBRANCH   7  13
ENDBRANCH   1  10
BRANCH   1  19
ATOM     19  C   UNL     1       1.990   5.458  20.929  0.00  0.00    +0.000 C 
BRANCH  19  20
ATOM     20  N   UNL     1       1.443   6.623  20.259  0.00  0.00    +0.000 N 
ATOM     21  C   UNL     1       1.502   7.877  20.824  0.00  0.00    +0.000 C 
ATOM     22  O   UNL     1       2.032   8.089  21.910  0.00  0.00    +0.000 OA
ATOM     23  H   UNL     1       1.004   6.471  19.356  0.00  0.00    +0.000 HD
BRANCH  21  24
ATOM     24  C   UNL     1       0.881   8.979  20.062  0.00  0.00    +0.000 A 
ATOM     25  C   UNL     1       1.354   9.367  18.808  0.00  0.00    +0.000 A 
ATOM     26  F   UNL     1       2.419   8.769  18.254  0.00  0.00    +0.000 F 
ATOM     27  C   UNL     1       0.731  10.387  18.087  0.00  0.00    +0.000 A 
ATOM     28  C   UNL     1      -0.378  11.039  18.623  0.00  0.00    +0.000 A 
ATOM     29  C   UNL     1      -0.851  10.669  19.881  0.00  0.00    +0.000 A 
ATOM     30  C   UNL     1      -0.227   9.643  20.591  0.00  0.00    +0.000 A 
ATOM     31  F   UNL     1      -0.703   9.348  21.807  0.00  0.00    +0.000 F 
ENDBRANCH  21  24
ENDBRANCH  19  20
ENDBRANCH   1  19
TORSDOF 7
ENDMDL
