MODEL 1
REMARK VINA RESULT:      -6.9      0.000      0.000
REMARK  Name = 
REMARK  9 active torsions:
REMARK  status: ('A' for Active; 'I' for Inactive)
REMARK    1  A    between atoms: C_1  and  O_2
REMARK    2  A    between atoms: O_2  and  C_3
REMARK    3  A    between atoms: C_5  and  O_6
REMARK    4  A    between atoms: O_6  and  C_7
REMARK    5  A    between atoms: C_8  and  C_9
REMARK    6  A    between atoms: C_9  and  C_11
REMARK    7  A    between atoms: C_18  and  O_19
REMARK    8  A    between atoms: C_20  and  C_21
REMARK    9  A    between atoms: C_21  and  N_22
REMARK                            x       y       z     vdW  Elec       q    Type
REMARK                         _______ _______ _______ _____ _____    ______ ____
ROOT
ATOM      1  C   UNL     1       2.389   6.401  20.024  0.00  0.00    +0.000 A 
ATOM      2  C   UNL     1       1.474   7.093  20.829  0.00  0.00    +0.000 A 
ATOM      3  C   UNL     1       0.878   8.292  20.441  0.00  0.00    +0.000 A 
ATOM      4  C   UNL     1       1.310   8.887  19.253  0.00  0.00    +0.000 A 
ATOM      5  C   UNL     1       2.182   8.161  18.398  0.00  0.00    +0.000 A 
ATOM      6  C   UNL     1       2.701   6.891  18.748  0.00  0.00    +0.000 A 
ENDROOT
BRANCH   1   8
ATOM      7  C   UNL     1       2.192   4.218  21.026  0.00  0.00    +0.000 C 
ATOM      8  O   UNL     1       2.995   5.266  20.495  0.00  0.00    +0.000 OA
ENDBRANCH   1   8
BRANCH   3   9
ATOM      9  O   UNL     1      -0.080   8.900  21.207  0.00  0.00    +0.000 OA
ATOM     10  C   UNL     1       0.323   9.411  22.479  0.00  0.00    +0.000 C 
ENDBRANCH   3   9
BRANCH   4  11
ATOM     11  C   UNL     1       0.883  10.260  18.844  0.00  0.00    +0.000 C 
ATOM     12  O   UNL     1       1.742  11.140  18.744  0.00  0.00    +0.000 OA
BRANCH  11  13
ATOM     13  C   UNL     1      -0.524  10.648  18.563  0.00  0.00    +0.000 A 
ATOM     14  C   UNL     1      -1.136  10.006  17.471  0.00  0.00    +0.000 A 
ATOM     15  C   UNL     1      -2.463  10.280  17.138  0.00  0.00    +0.000 A 
ATOM     16  C   UNL     1      -3.199  11.187  17.897  0.00  0.00    +0.000 A 
ATOM     17  C   UNL     1      -2.589  11.853  18.963  0.00  0.00    +0.000 A 
ATOM     18  C   UNL     1      -1.245  11.611  19.279  0.00  0.00    +0.000 A 
ATOM     19 BR   UNL     1      -0.485  12.716  20.627  0.00  0.00    +0.000 Br
ENDBRANCH  11  13
ENDBRANCH   4  11
BRANCH   5  20
ATOM     20  O   UNL     1       2.586   8.677  17.183  0.00  0.00    +0.000 OA
ATOM     21  H   UNL     1       2.383   9.640  17.175  0.00  0.00    +0.000 HD
ENDBRANCH   5  20
BRANCH   6  22
ATOM     22  C   UNL     1       3.522   6.131  17.689  0.00  0.00    +0.000 C 
BRANCH  22  23
ATOM     23  N   UNL     1       4.946   6.120  17.924  0.00  0.00    +0.000 NA
ATOM     24  C   UNL     1       5.611   4.909  18.347  0.00  0.00    +0.000 C 
ATOM     25  C   UNL     1       6.949   5.508  18.756  0.00  0.00    +0.000 C 
ATOM     26  C   UNL     1       7.181   6.644  17.757  0.00  0.00    +0.000 C 
ATOM     27  C   UNL     1       5.831   6.876  17.076  0.00  0.00    +0.000 C 
ENDBRANCH  22  23
ENDBRANCH   6  22
TORSDOF 7
ENDMDL
MODEL 2
REMARK VINA RESULT:      -6.8      2.884      6.925
REMARK  Name = 
REMARK  9 active torsions:
REMARK  status: ('A' for Active; 'I' for Inactive)
REMARK    1  A    between atoms: C_1  and  O_2
REMARK    2  A    between atoms: O_2  and  C_3
REMARK    3  A    between atoms: C_5  and  O_6
REMARK    4  A    between atoms: O_6  and  C_7
REMARK    5  A    between atoms: C_8  and  C_9
REMARK    6  A    between atoms: C_9  and  C_11
REMARK    7  A    between atoms: C_18  and  O_19
REMARK    8  A    between atoms: C_20  and  C_21
REMARK    9  A    between atoms: C_21  and  N_22
REMARK                            x       y       z     vdW  Elec       q    Type
REMARK                         _______ _______ _______ _____ _____    ______ ____
ROOT
ATOM      1  C   UNL     1       0.679   8.988  20.595  0.00  0.00    +0.000 A 
ATOM      2  C   UNL     1       1.244   7.782  21.032  0.00  0.00    +0.000 A 
ATOM      3  C   UNL     1       2.144   7.046  20.264  0.00  0.00    +0.000 A 
ATOM      4  C   UNL     1       2.394   7.468  18.957  0.00  0.00    +0.000 A 
ATOM      5  C   UNL     1       1.884   8.724  18.531  0.00  0.00    +0.000 A 
ATOM      6  C   UNL     1       1.055   9.523  19.355  0.00  0.00    +0.000 A 
ENDROOT
BRANCH   1   8
ATOM      7  C   UNL     1      -0.324   9.337  22.758  0.00  0.00    +0.000 C 
ATOM      8  O   UNL     1      -0.257   9.627  21.367  0.00  0.00    +0.000 OA
ENDBRANCH   1   8
BRANCH   3   9
ATOM      9  O   UNL     1       2.750   5.918  20.751  0.00  0.00    +0.000 OA
ATOM     10  C   UNL     1       1.903   4.844  21.164  0.00  0.00    +0.000 C 
ENDBRANCH   3   9
BRANCH   4  11
ATOM     11  C   UNL     1       3.185   6.649  17.988  0.00  0.00    +0.000 C 
ATOM     12  O   UNL     1       3.941   7.229  17.204  0.00  0.00    +0.000 OA
BRANCH  11  13
ATOM     13  C   UNL     1       3.111   5.167  17.891  0.00  0.00    +0.000 A 
ATOM     14  C   UNL     1       1.832   4.627  17.661  0.00  0.00    +0.000 A 
ATOM     15  C   UNL     1       1.657   3.248  17.530  0.00  0.00    +0.000 A 
ATOM     16  C   UNL     1       2.755   2.396  17.612  0.00  0.00    +0.000 A 
ATOM     17  C   UNL     1       4.022   2.921  17.871  0.00  0.00    +0.000 A 
ATOM     18  C   UNL     1       4.200   4.302  18.044  0.00  0.00    +0.000 A 
ATOM     19 BR   UNL     1       5.936   4.868  18.578  0.00  0.00    +0.000 Br
ENDBRANCH  11  13
ENDBRANCH   4  11
BRANCH   5  20
ATOM     20  O   UNL     1       2.157   9.217  17.271  0.00  0.00    +0.000 OA
ATOM     21  H   UNL     1       1.404   9.787  16.993  0.00  0.00    +0.000 HD
ENDBRANCH   5  20
BRANCH   6  22
ATOM     22  C   UNL     1       0.675  10.927  18.849  0.00  0.00    +0.000 C 
BRANCH  22  23
ATOM     23  N   UNL     1      -0.676  11.044  18.355  0.00  0.00    +0.000 NA
ATOM     24  C   UNL     1      -1.290   9.955  17.632  0.00  0.00    +0.000 C 
ATOM     25  C   UNL     1      -2.501  10.693  17.080  0.00  0.00    +0.000 C 
ATOM     26  C   UNL     1      -2.881  11.683  18.185  0.00  0.00    +0.000 C 
ATOM     27  C   UNL     1      -1.680  11.724  19.132  0.00  0.00    +0.000 C 
ENDBRANCH  22  23
ENDBRANCH   6  22
TORSDOF 7
ENDMDL
MODEL 3
REMARK VINA RESULT:      -6.7      1.324      1.941
REMARK  Name = 
REMARK  9 active torsions:
REMARK  status: ('A' for Active; 'I' for Inactive)
REMARK    1  A    between atoms: C_1  and  O_2
REMARK    2  A    between atoms: O_2  and  C_3
REMARK    3  A    between atoms: C_5  and  O_6
REMARK    4  A    between atoms: O_6  and  C_7
REMARK    5  A    between atoms: C_8  and  C_9
REMARK    6  A    between atoms: C_9  and  C_11
REMARK    7  A    between atoms: C_18  and  O_19
REMARK    8  A    between atoms: C_20  and  C_21
REMARK    9  A    between atoms: C_21  and  N_22
REMARK                            x       y       z     vdW  Elec       q    Type
REMARK                         _______ _______ _______ _____ _____    ______ ____
ROOT
ATOM      1  C   UNL     1       2.310   6.499  20.145  0.00  0.00    +0.000 A 
ATOM      2  C   UNL     1       1.450   7.232  20.975  0.00  0.00    +0.000 A 
ATOM      3  C   UNL     1       0.857   8.430  20.583  0.00  0.00    +0.000 A 
ATOM      4  C   UNL     1       1.237   8.982  19.357  0.00  0.00    +0.000 A 
ATOM      5  C   UNL     1       2.050   8.216  18.480  0.00  0.00    +0.000 A 
ATOM      6  C   UNL     1       2.564   6.946  18.840  0.00  0.00    +0.000 A 
ENDROOT
BRANCH   1   8
ATOM      7  C   UNL     1       2.135   4.377  21.273  0.00  0.00    +0.000 C 
ATOM      8  O   UNL     1       2.919   5.366  20.617  0.00  0.00    +0.000 OA
ENDBRANCH   1   8
BRANCH   3   9
ATOM      9  O   UNL     1      -0.050   9.078  21.378  0.00  0.00    +0.000 OA
ATOM     10  C   UNL     1       0.362   9.411  22.706  0.00  0.00    +0.000 C 
ENDBRANCH   3   9
BRANCH   4  11
ATOM     11  C   UNL     1       0.814  10.352  18.931  0.00  0.00    +0.000 C 
ATOM     12  O   UNL     1       1.679  11.220  18.794  0.00  0.00    +0.000 OA
BRANCH  11  13
ATOM     13  C   UNL     1      -0.596  10.748  18.674  0.00  0.00    +0.000 A 
ATOM     14  C   UNL     1      -1.211  10.153  17.557  0.00  0.00    +0.000 A 
ATOM     15  C   UNL     1      -2.541  10.439  17.242  0.00  0.00    +0.000 A 
ATOM     16  C   UNL     1      -3.275  11.309  18.045  0.00  0.00    +0.000 A 
ATOM     17  C   UNL     1      -2.662  11.928  19.136  0.00  0.00    +0.000 A 
ATOM     18  C   UNL     1      -1.316  11.676  19.435  0.00  0.00    +0.000 A 
ATOM     19 BR   UNL     1      -0.552  12.722  20.828  0.00  0.00    +0.000 Br
ENDBRANCH  11  13
ENDBRANCH   4  11
BRANCH   5  20
ATOM     20  O   UNL     1       2.400   8.689  17.232  0.00  0.00    +0.000 OA
ATOM     21  H   UNL     1       2.834   7.958  16.736  0.00  0.00    +0.000 HD
ENDBRANCH   5  20
BRANCH   6  22
ATOM     22  C   UNL     1       3.315   6.141  17.764  0.00  0.00    +0.000 C 
BRANCH  22  23
ATOM     23  N   UNL     1       3.099   4.715  17.817  0.00  0.00    +0.000 NA
ATOM     24  C   UNL     1       1.816   4.154  17.462  0.00  0.00    +0.000 C 
ATOM     25  C   UNL     1       2.023   2.743  17.995  0.00  0.00    +0.000 C 
ATOM     26  C   UNL     1       3.503   2.450  17.739  0.00  0.00    +0.000 C 
ATOM     27  C   UNL     1       4.142   3.804  17.422  0.00  0.00    +0.000 C 
ENDBRANCH  22  23
ENDBRANCH   6  22
TORSDOF 7
ENDMDL
MODEL 4
REMARK VINA RESULT:      -6.7      2.665      7.114
REMARK  Name = 
REMARK  9 active torsions:
REMARK  status: ('A' for Active; 'I' for Inactive)
REMARK    1  A    between atoms: C_1  and  O_2
REMARK    2  A    between atoms: O_2  and  C_3
REMARK    3  A    between atoms: C_5  and  O_6
REMARK    4  A    between atoms: O_6  and  C_7
REMARK    5  A    between atoms: C_8  and  C_9
REMARK    6  A    between atoms: C_9  and  C_11
REMARK    7  A    between atoms: C_18  and  O_19
REMARK    8  A    between atoms: C_20  and  C_21
REMARK    9  A    between atoms: C_21  and  N_22
REMARK                            x       y       z     vdW  Elec       q    Type
REMARK                         _______ _______ _______ _____ _____    ______ ____
ROOT
ATOM      1  C   UNL     1       0.831   8.732  20.696  0.00  0.00    +0.000 A 
ATOM      2  C   UNL     1       1.218   7.469  21.166  0.00  0.00    +0.000 A 
ATOM      3  C   UNL     1       2.015   6.598  20.425  0.00  0.00    +0.000 A 
ATOM      4  C   UNL     1       2.333   6.951  19.112  0.00  0.00    +0.000 A 
ATOM      5  C   UNL     1       2.007   8.256  18.653  0.00  0.00    +0.000 A 
ATOM      6  C   UNL     1       1.290   9.181  19.450  0.00  0.00    +0.000 A 
ENDROOT
BRANCH   1   8
ATOM      7  C   UNL     1       0.073   9.469  22.862  0.00  0.00    +0.000 C 
ATOM      8  O   UNL     1      -0.014   9.511  21.442  0.00  0.00    +0.000 OA
ENDBRANCH   1   8
BRANCH   3   9
ATOM      9  O   UNL     1       2.454   5.409  20.944  0.00  0.00    +0.000 OA
ATOM     10  C   UNL     1       1.537   4.312  20.938  0.00  0.00    +0.000 C 
ENDBRANCH   3   9
BRANCH   4  11
ATOM     11  C   UNL     1       3.013   6.008  18.171  0.00  0.00    +0.000 C 
ATOM     12  O   UNL     1       2.316   5.249  17.493  0.00  0.00    +0.000 OA
BRANCH  11  13
ATOM     13  C   UNL     1       4.487   5.909  18.007  0.00  0.00    +0.000 A 
ATOM     14  C   UNL     1       5.102   6.962  17.304  0.00  0.00    +0.000 A 
ATOM     15  C   UNL     1       6.485   6.977  17.116  0.00  0.00    +0.000 A 
ATOM     16  C   UNL     1       7.270   5.951  17.638  0.00  0.00    +0.000 A 
ATOM     17  C   UNL     1       6.664   4.887  18.309  0.00  0.00    +0.000 A 
ATOM     18  C   UNL     1       5.271   4.845  18.467  0.00  0.00    +0.000 A 
ATOM     19 BR   UNL     1       4.558   3.256  19.230  0.00  0.00    +0.000 Br
ENDBRANCH  11  13
ENDBRANCH   4  11
BRANCH   5  20
ATOM     20  O   UNL     1       2.358   8.677  17.386  0.00  0.00    +0.000 OA
ATOM     21  H   UNL     1       3.205   9.175  17.451  0.00  0.00    +0.000 HD
ENDBRANCH   5  20
BRANCH   6  22
ATOM     22  C   UNL     1       1.113  10.612  18.909  0.00  0.00    +0.000 C 
BRANCH  22  23
ATOM     23  N   UNL     1      -0.222  10.925  18.459  0.00  0.00    +0.000 NA
ATOM     24  C   UNL     1      -1.017   9.935  17.771  0.00  0.00    +0.000 C 
ATOM     25  C   UNL     1      -2.123  10.841  17.251  0.00  0.00    +0.000 C 
ATOM     26  C   UNL     1      -2.312  11.886  18.355  0.00  0.00    +0.000 C 
ATOM     27  C   UNL     1      -1.086  11.754  19.261  0.00  0.00    +0.000 C 
ENDBRANCH  22  23
ENDBRANCH   6  22
TORSDOF 7
ENDMDL
MODEL 5
REMARK VINA RESULT:      -6.6      4.215      6.897
REMARK  Name = 
REMARK  9 active torsions:
REMARK  status: ('A' for Active; 'I' for Inactive)
REMARK    1  A    between atoms: C_1  and  O_2
REMARK    2  A    between atoms: O_2  and  C_3
REMARK    3  A    between atoms: C_5  and  O_6
REMARK    4  A    between atoms: O_6  and  C_7
REMARK    5  A    between atoms: C_8  and  C_9
REMARK    6  A    between atoms: C_9  and  C_11
REMARK    7  A    between atoms: C_18  and  O_19
REMARK    8  A    between atoms: C_20  and  C_21
REMARK    9  A    between atoms: C_21  and  N_22
REMARK                            x       y       z     vdW  Elec       q    Type
REMARK                         _______ _______ _______ _____ _____    ______ ____
ROOT
ATOM      1  C   UNL     1       5.971   6.445  16.903  0.00  0.00    +0.000 A 
ATOM      2  C   UNL     1       4.909   6.854  17.721  0.00  0.00    +0.000 A 
ATOM      3  C   UNL     1       3.916   5.983  18.165  0.00  0.00    +0.000 A 
ATOM      4  C   UNL     1       3.915   4.678  17.669  0.00  0.00    +0.000 A 
ATOM      5  C   UNL     1       5.023   4.235  16.898  0.00  0.00    +0.000 A 
ATOM      6  C   UNL     1       6.088   5.096  16.539  0.00  0.00    +0.000 A 
ENDROOT
BRANCH   1   8
ATOM      7  C   UNL     1       7.706   8.051  17.369  0.00  0.00    +0.000 C 
ATOM      8  O   UNL     1       6.875   7.365  16.440  0.00  0.00    +0.000 OA
ENDBRANCH   1   8
BRANCH   3   9
ATOM      9  O   UNL     1       2.941   6.389  19.037  0.00  0.00    +0.000 OA
ATOM     10  C   UNL     1       2.328   7.656  18.792  0.00  0.00    +0.000 C 
ENDBRANCH   3   9
BRANCH   4  11
ATOM     11  C   UNL     1       2.791   3.725  17.925  0.00  0.00    +0.000 C 
ATOM     12  O   UNL     1       2.202   3.235  16.958  0.00  0.00    +0.000 OA
BRANCH  11  13
ATOM     13  C   UNL     1       2.318   3.335  19.279  0.00  0.00    +0.000 A 
ATOM     14  C   UNL     1       1.018   3.750  19.622  0.00  0.00    +0.000 A 
ATOM     15  C   UNL     1       0.470   3.415  20.861  0.00  0.00    +0.000 A 
ATOM     16  C   UNL     1       1.205   2.653  21.765  0.00  0.00    +0.000 A 
ATOM     17  C   UNL     1       2.508   2.265  21.446  0.00  0.00    +0.000 A 
ATOM     18  C   UNL     1       3.080   2.631  20.219  0.00  0.00    +0.000 A 
ATOM     19 BR   UNL     1       4.919   2.204  19.985  0.00  0.00    +0.000 Br
ENDBRANCH  11  13
ENDBRANCH   4  11
BRANCH   5  20
ATOM     20  O   UNL     1       5.102   2.935  16.440  0.00  0.00    +0.000 OA
ATOM     21  H   UNL     1       4.215   2.675  16.099  0.00  0.00    +0.000 HD
ENDBRANCH   5  20
BRANCH   6  22
ATOM     22  C   UNL     1       7.304   4.479  15.824  0.00  0.00    +0.000 C 
BRANCH  22  23
ATOM     23  N   UNL     1       7.174   4.379  14.390  0.00  0.00    +0.000 NA
ATOM     24  C   UNL     1       5.940   3.920  13.795  0.00  0.00    +0.000 C 
ATOM     25  C   UNL     1       6.435   3.690  12.375  0.00  0.00    +0.000 C 
ATOM     26  C   UNL     1       7.467   4.799  12.146  0.00  0.00    +0.000 C 
ATOM     27  C   UNL     1       7.776   5.367  13.532  0.00  0.00    +0.000 C 
ENDBRANCH  22  23
ENDBRANCH   6  22
TORSDOF 7
ENDMDL
MODEL 6
REMARK VINA RESULT:      -6.5      1.662      3.656
REMARK  Name = 
REMARK  9 active torsions:
REMARK  status: ('A' for Active; 'I' for Inactive)
REMARK    1  A    between atoms: C_1  and  O_2
REMARK    2  A    between atoms: O_2  and  C_3
REMARK    3  A    between atoms: C_5  and  O_6
REMARK    4  A    between atoms: O_6  and  C_7
REMARK    5  A    between atoms: C_8  and  C_9
REMARK    6  A    between atoms: C_9  and  C_11
REMARK    7  A    between atoms: C_18  and  O_19
REMARK    8  A    between atoms: C_20  and  C_21
REMARK    9  A    between atoms: C_21  and  N_22
REMARK                            x       y       z     vdW  Elec       q    Type
REMARK                         _______ _______ _______ _____ _____    ______ ____
ROOT
ATOM      1  C   UNL     1       3.213   7.069  17.913  0.00  0.00    +0.000 A 
ATOM      2  C   UNL     1       2.833   8.309  17.379  0.00  0.00    +0.000 A 
ATOM      3  C   UNL     1       2.060   9.231  18.082  0.00  0.00    +0.000 A 
ATOM      4  C   UNL     1       1.540   8.847  19.320  0.00  0.00    +0.000 A 
ATOM      5  C   UNL     1       1.977   7.625  19.899  0.00  0.00    +0.000 A 
ATOM      6  C   UNL     1       2.852   6.738  19.226  0.00  0.00    +0.000 A 
ENDROOT
BRANCH   1   8
ATOM      7  C   UNL     1       5.065   6.621  16.438  0.00  0.00    +0.000 C 
ATOM      8  O   UNL     1       3.912   6.177  17.143  0.00  0.00    +0.000 OA
ENDBRANCH   1   8
BRANCH   3   9
ATOM      9  O   UNL     1       1.779  10.470  17.572  0.00  0.00    +0.000 OA
ATOM     10  C   UNL     1       2.628  11.550  17.965  0.00  0.00    +0.000 C 
ENDBRANCH   3   9
BRANCH   4  11
ATOM     11  C   UNL     1       0.545   9.679  20.064  0.00  0.00    +0.000 C 
ATOM     12  O   UNL     1       0.657   9.779  21.288  0.00  0.00    +0.000 OA
BRANCH  11  13
ATOM     13  C   UNL     1      -0.595  10.387  19.424  0.00  0.00    +0.000 A 
ATOM     14  C   UNL     1      -1.383   9.622  18.545  0.00  0.00    +0.000 A 
ATOM     15  C   UNL     1      -2.492  10.185  17.912  0.00  0.00    +0.000 A 
ATOM     16  C   UNL     1      -2.835  11.513  18.158  0.00  0.00    +0.000 A 
ATOM     17  C   UNL     1      -2.039  12.288  19.004  0.00  0.00    +0.000 A 
ATOM     18  C   UNL     1      -0.901  11.740  19.613  0.00  0.00    +0.000 A 
ATOM     19 BR   UNL     1       0.198  12.948  20.587  0.00  0.00    +0.000 Br
ENDBRANCH  11  13
ENDBRANCH   4  11
BRANCH   5  20
ATOM     20  O   UNL     1       1.544   7.232  21.150  0.00  0.00    +0.000 OA
ATOM     21  H   UNL     1       0.929   7.920  21.493  0.00  0.00    +0.000 HD
ENDBRANCH   5  20
BRANCH   6  22
ATOM     22  C   UNL     1       3.372   5.514  20.001  0.00  0.00    +0.000 C 
BRANCH  22  23
ATOM     23  N   UNL     1       2.403   4.459  20.182  0.00  0.00    +0.000 NA
ATOM     24  C   UNL     1       2.028   3.608  19.077  0.00  0.00    +0.000 C 
ATOM     25  C   UNL     1       0.805   2.946  19.695  0.00  0.00    +0.000 C 
ATOM     26  C   UNL     1       1.159   2.797  21.177  0.00  0.00    +0.000 C 
ATOM     27  C   UNL     1       2.380   3.692  21.401  0.00  0.00    +0.000 C 
ENDBRANCH  22  23
ENDBRANCH   6  22
TORSDOF 7
ENDMDL
MODEL 7
REMARK VINA RESULT:      -6.4      3.108      6.665
REMARK  Name = 
REMARK  9 active torsions:
REMARK  status: ('A' for Active; 'I' for Inactive)
REMARK    1  A    between atoms: C_1  and  O_2
REMARK    2  A    between atoms: O_2  and  C_3
REMARK    3  A    between atoms: C_5  and  O_6
REMARK    4  A    between atoms: O_6  and  C_7
REMARK    5  A    between atoms: C_8  and  C_9
REMARK    6  A    between atoms: C_9  and  C_11
REMARK    7  A    between atoms: C_18  and  O_19
REMARK    8  A    between atoms: C_20  and  C_21
REMARK    9  A    between atoms: C_21  and  N_22
REMARK                            x       y       z     vdW  Elec       q    Type
REMARK                         _______ _______ _______ _____ _____    ______ ____
ROOT
ATOM      1  C   UNL     1       0.515   9.105  20.707  0.00  0.00    +0.000 A 
ATOM      2  C   UNL     1       1.116   7.905  21.112  0.00  0.00    +0.000 A 
ATOM      3  C   UNL     1       2.031   7.212  20.322  0.00  0.00    +0.000 A 
ATOM      4  C   UNL     1       2.260   7.671  19.023  0.00  0.00    +0.000 A 
ATOM      5  C   UNL     1       1.713   8.922  18.630  0.00  0.00    +0.000 A 
ATOM      6  C   UNL     1       0.869   9.679  19.477  0.00  0.00    +0.000 A 
ENDROOT
BRANCH   1   8
ATOM      7  C   UNL     1      -0.279   9.660  22.913  0.00  0.00    +0.000 C 
ATOM      8  O   UNL     1      -0.432   9.699  21.499  0.00  0.00    +0.000 OA
ENDBRANCH   1   8
BRANCH   3   9
ATOM      9  O   UNL     1       2.671   6.090  20.778  0.00  0.00    +0.000 OA
ATOM     10  C   UNL     1       1.862   4.954  21.090  0.00  0.00    +0.000 C 
ENDBRANCH   3   9
BRANCH   4  11
ATOM     11  C   UNL     1       3.067   6.897  18.030  0.00  0.00    +0.000 C 
ATOM     12  O   UNL     1       3.778   7.517  17.236  0.00  0.00    +0.000 OA
BRANCH  11  13
ATOM     13  C   UNL     1       3.058   5.414  17.922  0.00  0.00    +0.000 A 
ATOM     14  C   UNL     1       1.818   4.825  17.614  0.00  0.00    +0.000 A 
ATOM     15  C   UNL     1       1.706   3.442  17.465  0.00  0.00    +0.000 A 
ATOM     16  C   UNL     1       2.831   2.633  17.608  0.00  0.00    +0.000 A 
ATOM     17  C   UNL     1       4.059   3.207  17.945  0.00  0.00    +0.000 A 
ATOM     18  C   UNL     1       4.170   4.591  18.134  0.00  0.00    +0.000 A 
ATOM     19 BR   UNL     1       5.847   5.222  18.772  0.00  0.00    +0.000 Br
ENDBRANCH  11  13
ENDBRANCH   4  11
BRANCH   5  20
ATOM     20  O   UNL     1       1.964   9.451  17.379  0.00  0.00    +0.000 OA
ATOM     21  H   UNL     1       1.779   8.755  16.708  0.00  0.00    +0.000 HD
ENDBRANCH   5  20
BRANCH   6  22
ATOM     22  C   UNL     1       0.447  11.083  19.007  0.00  0.00    +0.000 C 
BRANCH  22  23
ATOM     23  N   UNL     1       1.145  12.170  19.651  0.00  0.00    +0.000 NA
ATOM     24  C   UNL     1       2.144  12.927  18.935  0.00  0.00    +0.000 C 
ATOM     25  C   UNL     1       2.765  13.668  20.111  0.00  0.00    +0.000 C 
ATOM     26  C   UNL     1       1.589  13.940  21.053  0.00  0.00    +0.000 C 
ATOM     27  C   UNL     1       0.452  13.043  20.564  0.00  0.00    +0.000 C 
ENDBRANCH  22  23
ENDBRANCH   6  22
TORSDOF 7
ENDMDL
MODEL 8
REMARK VINA RESULT:      -6.3      1.196      1.685
REMARK  Name = 
REMARK  9 active torsions:
REMARK  status: ('A' for Active; 'I' for Inactive)
REMARK    1  A    between atoms: C_1  and  O_2
REMARK    2  A    between atoms: O_2  and  C_3
REMARK    3  A    between atoms: C_5  and  O_6
REMARK    4  A    between atoms: O_6  and  C_7
REMARK    5  A    between atoms: C_8  and  C_9
REMARK    6  A    between atoms: C_9  and  C_11
REMARK    7  A    between atoms: C_18  and  O_19
REMARK    8  A    between atoms: C_20  and  C_21
REMARK    9  A    between atoms: C_21  and  N_22
REMARK                            x       y       z     vdW  Elec       q    Type
REMARK                         _______ _______ _______ _____ _____    ______ ____
ROOT
ATOM      1  C   UNL     1       2.062   6.666  20.197  0.00  0.00    +0.000 A 
ATOM      2  C   UNL     1       1.297   7.471  21.053  0.00  0.00    +0.000 A 
ATOM      3  C   UNL     1       0.841   8.738  20.694  0.00  0.00    +0.000 A 
ATOM      4  C   UNL     1       1.273   9.273  19.478  0.00  0.00    +0.000 A 
ATOM      5  C   UNL     1       1.987   8.441  18.576  0.00  0.00    +0.000 A 
ATOM      6  C   UNL     1       2.356   7.113  18.902  0.00  0.00    +0.000 A 
ENDROOT
BRANCH   1   8
ATOM      7  C   UNL     1       1.653   4.353  20.737  0.00  0.00    +0.000 C 
ATOM      8  O   UNL     1       2.542   5.460  20.637  0.00  0.00    +0.000 OA
ENDBRANCH   1   8
BRANCH   3   9
ATOM      9  O   UNL     1       0.019   9.465  21.513  0.00  0.00    +0.000 OA
ATOM     10  C   UNL     1       0.285   9.420  22.917  0.00  0.00    +0.000 C 
ENDBRANCH   3   9
BRANCH   4  11
ATOM     11  C   UNL     1       1.005  10.692  19.088  0.00  0.00    +0.000 C 
ATOM     12  O   UNL     1       1.882  11.312  18.481  0.00  0.00    +0.000 OA
BRANCH  11  13
ATOM     13  C   UNL     1      -0.253  11.421  19.400  0.00  0.00    +0.000 A 
ATOM     14  C   UNL     1      -0.193  12.320  20.480  0.00  0.00    +0.000 A 
ATOM     15  C   UNL     1      -1.312  13.073  20.840  0.00  0.00    +0.000 A 
ATOM     16  C   UNL     1      -2.498  12.947  20.119  0.00  0.00    +0.000 A 
ATOM     17  C   UNL     1      -2.574  12.033  19.066  0.00  0.00    +0.000 A 
ATOM     18  C   UNL     1      -1.466  11.245  18.724  0.00  0.00    +0.000 A 
ATOM     19 BR   UNL     1      -1.756   9.911  17.400  0.00  0.00    +0.000 Br
ENDBRANCH  11  13
ENDBRANCH   4  11
BRANCH   5  20
ATOM     20  O   UNL     1       2.380   8.902  17.336  0.00  0.00    +0.000 OA
ATOM     21  H   UNL     1       2.817   9.776  17.456  0.00  0.00    +0.000 HD
ENDBRANCH   5  20
BRANCH   6  22
ATOM     22  C   UNL     1       3.004   6.254  17.800  0.00  0.00    +0.000 C 
BRANCH  22  23
ATOM     23  N   UNL     1       4.447   6.246  17.812  0.00  0.00    +0.000 NA
ATOM     24  C   UNL     1       5.169   5.151  18.418  0.00  0.00    +0.000 C 
ATOM     25  C   UNL     1       6.555   5.779  18.457  0.00  0.00    +0.000 C 
ATOM     26  C   UNL     1       6.629   6.624  17.183  0.00  0.00    +0.000 C 
ATOM     27  C   UNL     1       5.189   6.734  16.678  0.00  0.00    +0.000 C 
ENDBRANCH  22  23
ENDBRANCH   6  22
TORSDOF 7
ENDMDL
MODEL 9
REMARK VINA RESULT:      -6.3      0.919      1.203
REMARK  Name = 
REMARK  9 active torsions:
REMARK  status: ('A' for Active; 'I' for Inactive)
REMARK    1  A    between atoms: C_1  and  O_2
REMARK    2  A    between atoms: O_2  and  C_3
REMARK    3  A    between atoms: C_5  and  O_6
REMARK    4  A    between atoms: O_6  and  C_7
REMARK    5  A    between atoms: C_8  and  C_9
REMARK    6  A    between atoms: C_9  and  C_11
REMARK    7  A    between atoms: C_18  and  O_19
REMARK    8  A    between atoms: C_20  and  C_21
REMARK    9  A    between atoms: C_21  and  N_22
REMARK                            x       y       z     vdW  Elec       q    Type
REMARK                         _______ _______ _______ _____ _____    ______ ____
ROOT
ATOM      1  C   UNL     1       2.185   7.026  19.964  0.00  0.00    +0.000 A 
ATOM      2  C   UNL     1       1.293   7.574  20.897  0.00  0.00    +0.000 A 
ATOM      3  C   UNL     1       0.597   8.760  20.673  0.00  0.00    +0.000 A 
ATOM      4  C   UNL     1       0.899   9.493  19.523  0.00  0.00    +0.000 A 
ATOM      5  C   UNL     1       1.745   8.913  18.540  0.00  0.00    +0.000 A 
ATOM      6  C   UNL     1       2.367   7.655  18.724  0.00  0.00    +0.000 A 
ENDROOT
BRANCH   1   8
ATOM      7  C   UNL     1       2.221   4.798  20.882  0.00  0.00    +0.000 C 
ATOM      8  O   UNL     1       2.894   5.895  20.275  0.00  0.00    +0.000 OA
ENDBRANCH   1   8
BRANCH   3   9
ATOM      9  O   UNL     1      -0.335   9.226  21.562  0.00  0.00    +0.000 OA
ATOM     10  C   UNL     1       0.129   9.618  22.855  0.00  0.00    +0.000 C 
ENDBRANCH   3   9
BRANCH   4  11
ATOM     11  C   UNL     1       0.358  10.867  19.285  0.00  0.00    +0.000 C 
ATOM     12  O   UNL     1       1.127  11.827  19.374  0.00  0.00    +0.000 OA
BRANCH  11  13
ATOM     13  C   UNL     1      -1.063  11.160  18.961  0.00  0.00    +0.000 A 
ATOM     14  C   UNL     1      -1.544  10.623  17.752  0.00  0.00    +0.000 A 
ATOM     15  C   UNL     1      -2.871  10.819  17.367  0.00  0.00    +0.000 A 
ATOM     16  C   UNL     1      -3.736  11.540  18.187  0.00  0.00    +0.000 A 
ATOM     17  C   UNL     1      -3.258  12.103  19.372  0.00  0.00    +0.000 A 
ATOM     18  C   UNL     1      -1.916  11.944  19.746  0.00  0.00    +0.000 A 
ATOM     19 BR   UNL     1      -1.348  12.915  21.280  0.00  0.00    +0.000 Br
ENDBRANCH  11  13
ENDBRANCH   4  11
BRANCH   5  20
ATOM     20  O   UNL     1       2.022   9.569  17.358  0.00  0.00    +0.000 OA
ATOM     21  H   UNL     1       1.793   8.969  16.612  0.00  0.00    +0.000 HD
ENDBRANCH   5  20
BRANCH   6  22
ATOM     22  C   UNL     1       3.149   7.057  17.540  0.00  0.00    +0.000 C 
BRANCH  22  23
ATOM     23  N   UNL     1       3.949   5.902  17.868  0.00  0.00    +0.000 NA
ATOM     24  C   UNL     1       3.641   4.610  17.300  0.00  0.00    +0.000 C 
ATOM     25  C   UNL     1       4.521   3.746  18.191  0.00  0.00    +0.000 C 
ATOM     26  C   UNL     1       5.760   4.607  18.455  0.00  0.00    +0.000 C 
ATOM     27  C   UNL     1       5.376   6.023  18.023  0.00  0.00    +0.000 C 
ENDBRANCH  22  23
ENDBRANCH   6  22
TORSDOF 7
ENDMDL
