MODEL 1
REMARK VINA RESULT:      -7.0      0.000      0.000
REMARK  Name = 
REMARK  8 active torsions:
REMARK  status: ('A' for Active; 'I' for Inactive)
REMARK    1  A    between atoms: C_1  and  O_2
REMARK    2  A    between atoms: O_2  and  C_3
REMARK    3  A    between atoms: C_4  and  O_5
REMARK    4  A    between atoms: O_5  and  C_6
REMARK    5  A    between atoms: C_8  and  C_9
REMARK    6  A    between atoms: C_9  and  N_10
REMARK    7  A    between atoms: C_12  and  C_13
REMARK    8  A    between atoms: C_13  and  O_14
REMARK                            x       y       z     vdW  Elec       q    Type
REMARK                         _______ _______ _______ _____ _____    ______ ____
ROOT
ATOM      1  C   UNL     1       1.400   3.935  19.676  0.00  0.00    +0.000 C 
ATOM      2  C   UNL     1       2.129   4.945  19.200  0.00  0.00    +0.000 C 
ATOM      3  C   UNL     1       2.619   4.533  17.924  0.00  0.00    +0.000 C 
ATOM      4  C   UNL     1       3.892   4.716  17.524  0.00  0.00    +0.000 C 
ATOM      5  O   UNL     1       1.815   3.536  17.405  0.00  0.00    +0.000 OA
ATOM      6  C   UNL     1       1.082   3.104  18.489  0.00  0.00    +0.000 C 
ATOM      7  O   UNL     1       0.290   2.177  18.427  0.00  0.00    +0.000 OA
ENDROOT
BRANCH   1   9
ATOM      8  C   UNL     1       2.040   2.747  21.668  0.00  0.00    +0.000 C 
ATOM      9  O   UNL     1       1.219   3.693  21.004  0.00  0.00    +0.000 OA
ENDBRANCH   1   9
BRANCH   2  10
ATOM     10  O   UNL     1       2.754   5.900  19.950  0.00  0.00    +0.000 OA
ATOM     11  C   UNL     1       2.028   7.130  19.996  0.00  0.00    +0.000 C 
ENDBRANCH   2  10
BRANCH   4  12
ATOM     12  C   UNL     1       4.582   3.775  16.597  0.00  0.00    +0.000 C 
BRANCH  12  13
ATOM     13  N   UNL     1       5.602   4.413  15.807  0.00  0.00    +0.000 N 
ATOM     14  C   UNL     1       5.773   4.321  14.460  0.00  0.00    +0.000 A 
ATOM     15  C   UNL     1       6.988   4.935  14.247  0.00  0.00    +0.000 A 
ATOM     16  N   UNL     1       7.480   5.390  15.443  0.00  0.00    +0.000 NA
ATOM     17  N   UNL     1       6.614   5.071  16.397  0.00  0.00    +0.000 NA
BRANCH  15  18
ATOM     18  C   UNL     1       7.761   5.081  12.997  0.00  0.00    +0.000 C 
BRANCH  18  19
ATOM     19  O   UNL     1       8.864   5.971  13.166  0.00  0.00    +0.000 OA
ATOM     20  H   UNL     1       8.565   6.644  13.804  0.00  0.00    +0.000 HD
ENDBRANCH  18  19
ENDBRANCH  15  18
ENDBRANCH  12  13
ENDBRANCH   4  12
TORSDOF 6
ENDMDL
MODEL 2
REMARK VINA RESULT:      -6.9      1.506      1.591
REMARK  Name = 
REMARK  8 active torsions:
REMARK  status: ('A' for Active; 'I' for Inactive)
REMARK    1  A    between atoms: C_1  and  O_2
REMARK    2  A    between atoms: O_2  and  C_3
REMARK    3  A    between atoms: C_4  and  O_5
REMARK    4  A    between atoms: O_5  and  C_6
REMARK    5  A    between atoms: C_8  and  C_9
REMARK    6  A    between atoms: C_9  and  N_10
REMARK    7  A    between atoms: C_12  and  C_13
REMARK    8  A    between atoms: C_13  and  O_14
REMARK                            x       y       z     vdW  Elec       q    Type
REMARK                         _______ _______ _______ _____ _____    ______ ____
ROOT
ATOM      1  C   UNL     1       1.970   4.501  19.017  0.00  0.00    +0.000 C 
ATOM      2  C   UNL     1       2.668   5.563  18.611  0.00  0.00    +0.000 C 
ATOM      3  C   UNL     1       3.651   5.085  17.693  0.00  0.00    +0.000 C 
ATOM      4  C   UNL     1       4.939   5.475  17.717  0.00  0.00    +0.000 C 
ATOM      5  O   UNL     1       3.252   3.874  17.158  0.00  0.00    +0.000 OA
ATOM      6  C   UNL     1       2.241   3.459  17.996  0.00  0.00    +0.000 C 
ATOM      7  O   UNL     1       1.673   2.385  17.869  0.00  0.00    +0.000 OA
ENDROOT
BRANCH   1   9
ATOM      8  C   UNL     1       2.056   3.944  21.355  0.00  0.00    +0.000 C 
ATOM      9  O   UNL     1       1.347   4.422  20.225  0.00  0.00    +0.000 OA
ENDBRANCH   1   9
BRANCH   2  10
ATOM     10  O   UNL     1       2.823   6.728  19.308  0.00  0.00    +0.000 OA
ATOM     11  C   UNL     1       2.302   7.862  18.612  0.00  0.00    +0.000 C 
ENDBRANCH   2  10
BRANCH   4  12
ATOM     12  C   UNL     1       6.054   4.578  17.300  0.00  0.00    +0.000 C 
BRANCH  12  13
ATOM     13  N   UNL     1       6.399   4.721  15.910  0.00  0.00    +0.000 N 
ATOM     14  C   UNL     1       5.912   3.997  14.866  0.00  0.00    +0.000 A 
ATOM     15  C   UNL     1       6.707   4.383  13.808  0.00  0.00    +0.000 A 
ATOM     16  N   UNL     1       7.605   5.326  14.238  0.00  0.00    +0.000 NA
ATOM     17  N   UNL     1       7.401   5.533  15.533  0.00  0.00    +0.000 NA
BRANCH  15  18
ATOM     18  C   UNL     1       6.727   3.887  12.417  0.00  0.00    +0.000 C 
BRANCH  18  19
ATOM     19  O   UNL     1       6.151   2.586  12.318  0.00  0.00    +0.000 OA
ATOM     20  H   UNL     1       5.398   2.583  12.936  0.00  0.00    +0.000 HD
ENDBRANCH  18  19
ENDBRANCH  15  18
ENDBRANCH  12  13
ENDBRANCH   4  12
TORSDOF 6
ENDMDL
MODEL 3
REMARK VINA RESULT:      -6.7      1.809      1.907
REMARK  Name = 
REMARK  8 active torsions:
REMARK  status: ('A' for Active; 'I' for Inactive)
REMARK    1  A    between atoms: C_1  and  O_2
REMARK    2  A    between atoms: O_2  and  C_3
REMARK    3  A    between atoms: C_4  and  O_5
REMARK    4  A    between atoms: O_5  and  C_6
REMARK    5  A    between atoms: C_8  and  C_9
REMARK    6  A    between atoms: C_9  and  N_10
REMARK    7  A    between atoms: C_12  and  C_13
REMARK    8  A    between atoms: C_13  and  O_14
REMARK                            x       y       z     vdW  Elec       q    Type
REMARK                         _______ _______ _______ _____ _____    ______ ____
ROOT
ATOM      1  C   UNL     1       3.276   3.111  19.863  0.00  0.00    +0.000 C 
ATOM      2  C   UNL     1       3.519   4.354  19.442  0.00  0.00    +0.000 C 
ATOM      3  C   UNL     1       4.430   4.247  18.348  0.00  0.00    +0.000 C 
ATOM      4  C   UNL     1       5.512   5.036  18.205  0.00  0.00    +0.000 C 
ATOM      5  O   UNL     1       4.351   2.987  17.785  0.00  0.00    +0.000 OA
ATOM      6  C   UNL     1       3.685   2.242  18.732  0.00  0.00    +0.000 C 
ATOM      7  O   UNL     1       3.475   1.045  18.608  0.00  0.00    +0.000 OA
ENDROOT
BRANCH   1   9
ATOM      8  C   UNL     1       1.559   2.702  21.498  0.00  0.00    +0.000 C 
ATOM      9  O   UNL     1       2.928   2.800  21.142  0.00  0.00    +0.000 OA
ENDBRANCH   1   9
BRANCH   2  10
ATOM     10  O   UNL     1       3.413   5.486  20.198  0.00  0.00    +0.000 OA
ATOM     11  C   UNL     1       2.143   6.127  20.059  0.00  0.00    +0.000 C 
ENDBRANCH   2  10
BRANCH   4  12
ATOM     12  C   UNL     1       6.765   4.564  17.550  0.00  0.00    +0.000 C 
BRANCH  12  13
ATOM     13  N   UNL     1       6.731   4.693  16.117  0.00  0.00    +0.000 N 
ATOM     14  C   UNL     1       6.145   3.843  15.231  0.00  0.00    +0.000 A 
ATOM     15  C   UNL     1       6.577   4.305  14.007  0.00  0.00    +0.000 A 
ATOM     16  N   UNL     1       7.368   5.409  14.195  0.00  0.00    +0.000 NA
ATOM     17  N   UNL     1       7.450   5.645  15.498  0.00  0.00    +0.000 NA
BRANCH  15  18
ATOM     18  C   UNL     1       6.349   3.749  12.658  0.00  0.00    +0.000 C 
BRANCH  18  19
ATOM     19  O   UNL     1       7.383   4.133  11.753  0.00  0.00    +0.000 OA
ATOM     20  H   UNL     1       8.176   4.272  12.301  0.00  0.00    +0.000 HD
ENDBRANCH  18  19
ENDBRANCH  15  18
ENDBRANCH  12  13
ENDBRANCH   4  12
TORSDOF 6
ENDMDL
MODEL 4
REMARK VINA RESULT:      -6.5      1.997      2.550
REMARK  Name = 
REMARK  8 active torsions:
REMARK  status: ('A' for Active; 'I' for Inactive)
REMARK    1  A    between atoms: C_1  and  O_2
REMARK    2  A    between atoms: O_2  and  C_3
REMARK    3  A    between atoms: C_4  and  O_5
REMARK    4  A    between atoms: O_5  and  C_6
REMARK    5  A    between atoms: C_8  and  C_9
REMARK    6  A    between atoms: C_9  and  N_10
REMARK    7  A    between atoms: C_12  and  C_13
REMARK    8  A    between atoms: C_13  and  O_14
REMARK                            x       y       z     vdW  Elec       q    Type
REMARK                         _______ _______ _______ _____ _____    ______ ____
ROOT
ATOM      1  C   UNL     1       3.264   2.816  20.689  0.00  0.00    +0.000 C 
ATOM      2  C   UNL     1       2.926   3.272  19.483  0.00  0.00    +0.000 C 
ATOM      3  C   UNL     1       4.132   3.369  18.726  0.00  0.00    +0.000 C 
ATOM      4  C   UNL     1       4.443   4.432  17.960  0.00  0.00    +0.000 C 
ATOM      5  O   UNL     1       5.094   2.529  19.255  0.00  0.00    +0.000 OA
ATOM      6  C   UNL     1       4.606   2.212  20.503  0.00  0.00    +0.000 C 
ATOM      7  O   UNL     1       5.222   1.520  21.300  0.00  0.00    +0.000 OA
ENDROOT
BRANCH   1   9
ATOM      8  C   UNL     1       1.288   2.486  22.021  0.00  0.00    +0.000 C 
ATOM      9  O   UNL     1       2.559   3.082  21.824  0.00  0.00    +0.000 OA
ENDBRANCH   1   9
BRANCH   2  10
ATOM     10  O   UNL     1       1.819   4.019  19.194  0.00  0.00    +0.000 OA
ATOM     11  C   UNL     1       0.877   3.320  18.378  0.00  0.00    +0.000 C 
ENDBRANCH   2  10
BRANCH   4  12
ATOM     12  C   UNL     1       5.850   4.872  17.737  0.00  0.00    +0.000 C 
BRANCH  12  13
ATOM     13  N   UNL     1       6.218   4.888  16.345  0.00  0.00    +0.000 N 
ATOM     14  C   UNL     1       5.679   4.140  15.346  0.00  0.00    +0.000 A 
ATOM     15  C   UNL     1       6.514   4.381  14.276  0.00  0.00    +0.000 A 
ATOM     16  N   UNL     1       7.488   5.268  14.655  0.00  0.00    +0.000 NA
ATOM     17  N   UNL     1       7.292   5.581  15.930  0.00  0.00    +0.000 NA
BRANCH  15  18
ATOM     18  C   UNL     1       6.503   3.790  12.923  0.00  0.00    +0.000 C 
BRANCH  18  19
ATOM     19  O   UNL     1       7.365   4.501  12.036  0.00  0.00    +0.000 OA
ATOM     20  H   UNL     1       8.198   4.633  12.525  0.00  0.00    +0.000 HD
ENDBRANCH  18  19
ENDBRANCH  15  18
ENDBRANCH  12  13
ENDBRANCH   4  12
TORSDOF 6
ENDMDL
MODEL 5
REMARK VINA RESULT:      -6.4      2.030      2.597
REMARK  Name = 
REMARK  8 active torsions:
REMARK  status: ('A' for Active; 'I' for Inactive)
REMARK    1  A    between atoms: C_1  and  O_2
REMARK    2  A    between atoms: O_2  and  C_3
REMARK    3  A    between atoms: C_4  and  O_5
REMARK    4  A    between atoms: O_5  and  C_6
REMARK    5  A    between atoms: C_8  and  C_9
REMARK    6  A    between atoms: C_9  and  N_10
REMARK    7  A    between atoms: C_12  and  C_13
REMARK    8  A    between atoms: C_13  and  O_14
REMARK                            x       y       z     vdW  Elec       q    Type
REMARK                         _______ _______ _______ _____ _____    ______ ____
ROOT
ATOM      1  C   UNL     1       2.917   2.434  19.814  0.00  0.00    +0.000 C 
ATOM      2  C   UNL     1       2.781   2.589  18.497  0.00  0.00    +0.000 C 
ATOM      3  C   UNL     1       4.055   2.996  17.996  0.00  0.00    +0.000 C 
ATOM      4  C   UNL     1       4.217   3.994  17.107  0.00  0.00    +0.000 C 
ATOM      5  O   UNL     1       5.054   2.611  18.870  0.00  0.00    +0.000 OA
ATOM      6  C   UNL     1       4.379   2.308  20.032  0.00  0.00    +0.000 C 
ATOM      7  O   UNL     1       4.946   1.978  21.062  0.00  0.00    +0.000 OA
ENDROOT
BRANCH   1   9
ATOM      8  C   UNL     1       1.867   3.712  21.562  0.00  0.00    +0.000 C 
ATOM      9  O   UNL     1       1.896   2.585  20.703  0.00  0.00    +0.000 OA
ENDBRANCH   1   9
BRANCH   2  10
ATOM     10  O   UNL     1       1.615   2.867  17.843  0.00  0.00    +0.000 OA
ATOM     11  C   UNL     1       1.282   4.257  17.873  0.00  0.00    +0.000 C 
ENDBRANCH   2  10
BRANCH   4  12
ATOM     12  C   UNL     1       5.432   4.857  17.087  0.00  0.00    +0.000 C 
BRANCH  12  13
ATOM     13  N   UNL     1       6.062   4.909  15.795  0.00  0.00    +0.000 N 
ATOM     14  C   UNL     1       5.590   4.387  14.630  0.00  0.00    +0.000 A 
ATOM     15  C   UNL     1       6.650   4.526  13.761  0.00  0.00    +0.000 A 
ATOM     16  N   UNL     1       7.690   5.139  14.412  0.00  0.00    +0.000 NA
ATOM     17  N   UNL     1       7.314   5.379  15.662  0.00  0.00    +0.000 NA
BRANCH  15  18
ATOM     18  C   UNL     1       6.786   4.070  12.364  0.00  0.00    +0.000 C 
BRANCH  18  19
ATOM     19  O   UNL     1       6.602   2.660  12.253  0.00  0.00    +0.000 OA
ATOM     20  H   UNL     1       6.279   2.506  11.347  0.00  0.00    +0.000 HD
ENDBRANCH  18  19
ENDBRANCH  15  18
ENDBRANCH  12  13
ENDBRANCH   4  12
TORSDOF 6
ENDMDL
MODEL 6
REMARK VINA RESULT:      -6.3      1.818      2.815
REMARK  Name = 
REMARK  8 active torsions:
REMARK  status: ('A' for Active; 'I' for Inactive)
REMARK    1  A    between atoms: C_1  and  O_2
REMARK    2  A    between atoms: O_2  and  C_3
REMARK    3  A    between atoms: C_4  and  O_5
REMARK    4  A    between atoms: O_5  and  C_6
REMARK    5  A    between atoms: C_8  and  C_9
REMARK    6  A    between atoms: C_9  and  N_10
REMARK    7  A    between atoms: C_12  and  C_13
REMARK    8  A    between atoms: C_13  and  O_14
REMARK                            x       y       z     vdW  Elec       q    Type
REMARK                         _______ _______ _______ _____ _____    ______ ____
ROOT
ATOM      1  C   UNL     1       2.545   3.901  20.111  0.00  0.00    +0.000 C 
ATOM      2  C   UNL     1       3.786   3.560  19.758  0.00  0.00    +0.000 C 
ATOM      3  C   UNL     1       4.385   4.723  19.185  0.00  0.00    +0.000 C 
ATOM      4  C   UNL     1       5.106   4.701  18.049  0.00  0.00    +0.000 C 
ATOM      5  O   UNL     1       3.738   5.860  19.631  0.00  0.00    +0.000 OA
ATOM      6  C   UNL     1       2.560   5.384  20.164  0.00  0.00    +0.000 C 
ATOM      7  O   UNL     1       1.692   6.115  20.614  0.00  0.00    +0.000 OA
ENDROOT
BRANCH   1   9
ATOM      8  C   UNL     1       0.816   2.653  18.999  0.00  0.00    +0.000 C 
ATOM      9  O   UNL     1       1.509   3.020  20.179  0.00  0.00    +0.000 OA
ENDBRANCH   1   9
BRANCH   2  10
ATOM     10  O   UNL     1       4.212   2.297  19.464  0.00  0.00    +0.000 OA
ATOM     11  C   UNL     1       4.757   1.618  20.597  0.00  0.00    +0.000 C 
ENDBRANCH   2  10
BRANCH   4  12
ATOM     12  C   UNL     1       5.151   5.855  17.107  0.00  0.00    +0.000 C 
BRANCH  12  13
ATOM     13  N   UNL     1       5.930   5.588  15.927  0.00  0.00    +0.000 N 
ATOM     14  C   UNL     1       5.516   4.948  14.800  0.00  0.00    +0.000 A 
ATOM     15  C   UNL     1       6.680   4.774  14.082  0.00  0.00    +0.000 A 
ATOM     16  N   UNL     1       7.724   5.329  14.776  0.00  0.00    +0.000 NA
ATOM     17  N   UNL     1       7.250   5.835  15.907  0.00  0.00    +0.000 NA
BRANCH  15  18
ATOM     18  C   UNL     1       6.900   4.067  12.805  0.00  0.00    +0.000 C 
BRANCH  18  19
ATOM     19  O   UNL     1       6.262   2.791  12.797  0.00  0.00    +0.000 OA
ATOM     20  H   UNL     1       6.447   2.410  11.919  0.00  0.00    +0.000 HD
ENDBRANCH  18  19
ENDBRANCH  15  18
ENDBRANCH  12  13
ENDBRANCH   4  12
TORSDOF 6
ENDMDL
MODEL 7
REMARK VINA RESULT:      -6.3      1.921      2.825
REMARK  Name = 
REMARK  8 active torsions:
REMARK  status: ('A' for Active; 'I' for Inactive)
REMARK    1  A    between atoms: C_1  and  O_2
REMARK    2  A    between atoms: O_2  and  C_3
REMARK    3  A    between atoms: C_4  and  O_5
REMARK    4  A    between atoms: O_5  and  C_6
REMARK    5  A    between atoms: C_8  and  C_9
REMARK    6  A    between atoms: C_9  and  N_10
REMARK    7  A    between atoms: C_12  and  C_13
REMARK    8  A    between atoms: C_13  and  O_14
REMARK                            x       y       z     vdW  Elec       q    Type
REMARK                         _______ _______ _______ _____ _____    ______ ____
ROOT
ATOM      1  C   UNL     1       2.933   3.598  18.628  0.00  0.00    +0.000 C 
ATOM      2  C   UNL     1       4.089   3.654  19.291  0.00  0.00    +0.000 C 
ATOM      3  C   UNL     1       4.675   4.921  18.992  0.00  0.00    +0.000 C 
ATOM      4  C   UNL     1       5.975   5.081  18.679  0.00  0.00    +0.000 C 
ATOM      5  O   UNL     1       3.699   5.812  18.587  0.00  0.00    +0.000 OA
ATOM      6  C   UNL     1       2.617   5.010  18.300  0.00  0.00    +0.000 C 
ATOM      7  O   UNL     1       1.568   5.447  17.852  0.00  0.00    +0.000 OA
ENDROOT
BRANCH   1   9
ATOM      8  C   UNL     1       1.128   2.015  18.778  0.00  0.00    +0.000 C 
ATOM      9  O   UNL     1       2.356   2.438  18.210  0.00  0.00    +0.000 OA
ENDBRANCH   1   9
BRANCH   2  10
ATOM     10  O   UNL     1       4.833   2.579  19.687  0.00  0.00    +0.000 OA
ATOM     11  C   UNL     1       4.361   1.998  20.905  0.00  0.00    +0.000 C 
ENDBRANCH   2  10
BRANCH   4  12
ATOM     12  C   UNL     1       6.449   6.150  17.755  0.00  0.00    +0.000 C 
BRANCH  12  13
ATOM     13  N   UNL     1       6.541   5.710  16.388  0.00  0.00    +0.000 N 
ATOM     14  C   UNL     1       5.663   4.912  15.723  0.00  0.00    +0.000 A 
ATOM     15  C   UNL     1       6.314   4.632  14.540  0.00  0.00    +0.000 A 
ATOM     16  N   UNL     1       7.522   5.281  14.526  0.00  0.00    +0.000 NA
ATOM     17  N   UNL     1       7.649   5.949  15.665  0.00  0.00    +0.000 NA
BRANCH  15  18
ATOM     18  C   UNL     1       5.910   3.745  13.432  0.00  0.00    +0.000 C 
BRANCH  18  19
ATOM     19  O   UNL     1       6.770   3.893  12.303  0.00  0.00    +0.000 OA
ATOM     20  H   UNL     1       6.327   3.428  11.570  0.00  0.00    +0.000 HD
ENDBRANCH  18  19
ENDBRANCH  15  18
ENDBRANCH  12  13
ENDBRANCH   4  12
TORSDOF 6
ENDMDL
MODEL 8
REMARK VINA RESULT:      -6.1      2.780      6.938
REMARK  Name = 
REMARK  8 active torsions:
REMARK  status: ('A' for Active; 'I' for Inactive)
REMARK    1  A    between atoms: C_1  and  O_2
REMARK    2  A    between atoms: O_2  and  C_3
REMARK    3  A    between atoms: C_4  and  O_5
REMARK    4  A    between atoms: O_5  and  C_6
REMARK    5  A    between atoms: C_8  and  C_9
REMARK    6  A    between atoms: C_9  and  N_10
REMARK    7  A    between atoms: C_12  and  C_13
REMARK    8  A    between atoms: C_13  and  O_14
REMARK                            x       y       z     vdW  Elec       q    Type
REMARK                         _______ _______ _______ _____ _____    ______ ____
ROOT
ATOM      1  C   UNL     1       6.899   4.938  15.187  0.00  0.00    +0.000 C 
ATOM      2  C   UNL     1       6.795   5.016  16.515  0.00  0.00    +0.000 C 
ATOM      3  C   UNL     1       5.425   4.777  16.835  0.00  0.00    +0.000 C 
ATOM      4  C   UNL     1       4.730   5.518  17.719  0.00  0.00    +0.000 C 
ATOM      5  O   UNL     1       4.813   4.075  15.813  0.00  0.00    +0.000 OA
ATOM      6  C   UNL     1       5.684   4.205  14.754  0.00  0.00    +0.000 C 
ATOM      7  O   UNL     1       5.450   3.755  13.643  0.00  0.00    +0.000 OA
ENDROOT
BRANCH   1   9
ATOM      8  C   UNL     1       7.944   5.381  13.066  0.00  0.00    +0.000 C 
ATOM      9  O   UNL     1       7.843   5.601  14.463  0.00  0.00    +0.000 OA
ENDBRANCH   1   9
BRANCH   2  10
ATOM     10  O   UNL     1       7.628   5.716  17.340  0.00  0.00    +0.000 OA
ATOM     11  C   UNL     1       7.885   5.039  18.572  0.00  0.00    +0.000 C 
ENDBRANCH   2  10
BRANCH   4  12
ATOM     12  C   UNL     1       3.265   5.757  17.586  0.00  0.00    +0.000 C 
BRANCH  12  13
ATOM     13  N   UNL     1       2.474   4.836  18.359  0.00  0.00    +0.000 N 
ATOM     14  C   UNL     1       2.448   4.713  19.713  0.00  0.00    +0.000 A 
ATOM     15  C   UNL     1       1.704   3.571  19.919  0.00  0.00    +0.000 A 
ATOM     16  N   UNL     1       1.293   3.076  18.709  0.00  0.00    +0.000 NA
ATOM     17  N   UNL     1       1.766   3.867  17.754  0.00  0.00    +0.000 NA
BRANCH  15  18
ATOM     18  C   UNL     1       1.391   2.867  21.179  0.00  0.00    +0.000 C 
BRANCH  18  19
ATOM     19  O   UNL     1       2.529   2.803  22.038  0.00  0.00    +0.000 OA
ATOM     20  H   UNL     1       3.283   3.107  21.501  0.00  0.00    +0.000 HD
ENDBRANCH  18  19
ENDBRANCH  15  18
ENDBRANCH  12  13
ENDBRANCH   4  12
TORSDOF 6
ENDMDL
MODEL 9
REMARK VINA RESULT:      -6.1      2.054      2.825
REMARK  Name = 
REMARK  8 active torsions:
REMARK  status: ('A' for Active; 'I' for Inactive)
REMARK    1  A    between atoms: C_1  and  O_2
REMARK    2  A    between atoms: O_2  and  C_3
REMARK    3  A    between atoms: C_4  and  O_5
REMARK    4  A    between atoms: O_5  and  C_6
REMARK    5  A    between atoms: C_8  and  C_9
REMARK    6  A    between atoms: C_9  and  N_10
REMARK    7  A    between atoms: C_12  and  C_13
REMARK    8  A    between atoms: C_13  and  O_14
REMARK                            x       y       z     vdW  Elec       q    Type
REMARK                         _______ _______ _______ _____ _____    ______ ____
ROOT
ATOM      1  C   UNL     1       2.078   6.990  19.969  0.00  0.00    +0.000 C 
ATOM      2  C   UNL     1       2.406   7.368  18.733  0.00  0.00    +0.000 C 
ATOM      3  C   UNL     1       3.156   6.298  18.160  0.00  0.00    +0.000 C 
ATOM      4  C   UNL     1       4.294   6.480  17.463  0.00  0.00    +0.000 C 
ATOM      5  O   UNL     1       2.867   5.113  18.810  0.00  0.00    +0.000 OA
ATOM      6  C   UNL     1       2.243   5.516  19.971  0.00  0.00    +0.000 C 
ATOM      7  O   UNL     1       1.886   4.734  20.838  0.00  0.00    +0.000 OA
ENDROOT
BRANCH   1   9
ATOM      8  C   UNL     1       0.569   8.417  21.183  0.00  0.00    +0.000 C 
ATOM      9  O   UNL     1       1.859   7.861  20.993  0.00  0.00    +0.000 OA
ENDBRANCH   1   9
BRANCH   2  10
ATOM     10  O   UNL     1       2.522   8.658  18.298  0.00  0.00    +0.000 OA
ATOM     11  C   UNL     1       1.340   9.133  17.651  0.00  0.00    +0.000 C 
ENDBRANCH   2  10
BRANCH   4  12
ATOM     12  C   UNL     1       5.395   5.476  17.451  0.00  0.00    +0.000 C 
BRANCH  12  13
ATOM     13  N   UNL     1       6.041   5.366  16.170  0.00  0.00    +0.000 N 
ATOM     14  C   UNL     1       5.549   4.767  15.052  0.00  0.00    +0.000 A 
ATOM     15  C   UNL     1       6.626   4.756  14.192  0.00  0.00    +0.000 A 
ATOM     16  N   UNL     1       7.695   5.362  14.799  0.00  0.00    +0.000 NA
ATOM     17  N   UNL     1       7.322   5.741  16.015  0.00  0.00    +0.000 NA
BRANCH  15  18
ATOM     18  C   UNL     1       6.747   4.163  12.845  0.00  0.00    +0.000 C 
BRANCH  18  19
ATOM     19  O   UNL     1       6.328   2.800  12.835  0.00  0.00    +0.000 OA
ATOM     20  H   UNL     1       5.399   2.811  12.539  0.00  0.00    +0.000 HD
ENDBRANCH  18  19
ENDBRANCH  15  18
ENDBRANCH  12  13
ENDBRANCH   4  12
TORSDOF 6
ENDMDL
