MODEL 1
REMARK VINA RESULT:      -8.1      0.000      0.000
REMARK  Name = 
REMARK  10 active torsions:
REMARK  status: ('A' for Active; 'I' for Inactive)
REMARK    1  A    between atoms: C_1  and  O_2
REMARK    2  A    between atoms: O_2  and  C_3
REMARK    3  A    between atoms: C_5  and  C_6
REMARK    4  A    between atoms: C_12  and  C_13
REMARK    5  A    between atoms: C_15  and  O_16
REMARK    6  A    between atoms: O_16  and  C_17
REMARK    7  A    between atoms: C_19  and  O_20
REMARK    8  A    between atoms: O_20  and  C_21
REMARK    9  A    between atoms: C_26  and  O_27
REMARK   10  A    between atoms: O_27  and  C_28
REMARK                            x       y       z     vdW  Elec       q    Type
REMARK                         _______ _______ _______ _____ _____    ______ ____
ROOT
ATOM      1  C   UNL     1       0.350  11.256  20.258  0.00  0.00    +0.000 C 
ATOM      2  C   UNL     1       0.730   9.969  20.347  0.00  0.00    +0.000 C 
ATOM      3  C   UNL     1       0.647   9.129  21.579  0.00  0.00    +0.000 C 
ATOM      4  N   UNL     1       1.794   8.232  21.687  0.00  0.00    +0.000 NA
ATOM      5  C   UNL     1       1.763   7.283  20.579  0.00  0.00    +0.000 C 
ATOM      6  C   UNL     1       1.882   7.963  19.250  0.00  0.00    +0.000 C 
ATOM      7  C   UNL     1       2.487   7.438  18.165  0.00  0.00    +0.000 C 
ATOM      8  C   UNL     1       1.286   9.332  19.106  0.00  0.00    +0.000 C 
ATOM      9  O   UNL     1       1.238   9.900  18.019  0.00  0.00    +0.000 OA
ATOM     10  H   UNL     1       1.735   7.721  22.566  0.00  0.00    +0.000 HD
ENDROOT
BRANCH   1  13
ATOM     11  C   UNL     1      -0.283  14.099  22.651  0.00  0.00    +0.000 A 
ATOM     12  C   UNL     1       0.330  13.293  21.687  0.00  0.00    +0.000 A 
ATOM     13  C   UNL     1      -0.217  12.052  21.352  0.00  0.00    +0.000 A 
ATOM     14  C   UNL     1      -1.356  11.599  22.022  0.00  0.00    +0.000 A 
ATOM     15  C   UNL     1      -1.987  12.404  22.971  0.00  0.00    +0.000 A 
ATOM     16  C   UNL     1      -1.446  13.654  23.284  0.00  0.00    +0.000 A 
BRANCH  11  18
ATOM     17  C   UNL     1       1.476  15.596  22.079  0.00  0.00    +0.000 C 
ATOM     18  O   UNL     1       0.329  15.306  22.871  0.00  0.00    +0.000 OA
ENDBRANCH  11  18
BRANCH  15  19
ATOM     19  O   UNL     1      -3.134  11.877  23.502  0.00  0.00    +0.000 OA
ATOM     20  C   UNL     1      -4.236  12.762  23.665  0.00  0.00    +0.000 C 
ENDBRANCH  15  19
ENDBRANCH   1  13
BRANCH   7  21
ATOM     21  C   UNL     1       3.068   6.094  18.123  0.00  0.00    +0.000 A 
ATOM     22  C   UNL     1       2.249   4.986  17.879  0.00  0.00    +0.000 A 
ATOM     23  C   UNL     1       2.786   3.697  17.853  0.00  0.00    +0.000 A 
ATOM     24  C   UNL     1       4.155   3.526  18.054  0.00  0.00    +0.000 A 
ATOM     25  C   UNL     1       4.983   4.624  18.314  0.00  0.00    +0.000 A 
ATOM     26  C   UNL     1       4.435   5.908  18.353  0.00  0.00    +0.000 A 
BRANCH  23  27
ATOM     27  O   UNL     1       1.875   2.697  17.643  0.00  0.00    +0.000 OA
ATOM     28  C   UNL     1       0.971   2.417  18.705  0.00  0.00    +0.000 C 
ENDBRANCH  23  27
BRANCH  25  29
ATOM     29  O   UNL     1       6.297   4.303  18.521  0.00  0.00    +0.000 OA
ATOM     30  C   UNL     1       7.267   5.205  18.006  0.00  0.00    +0.000 C 
ENDBRANCH  25  29
ENDBRANCH   7  21
TORSDOF 6
ENDMDL
MODEL 2
REMARK VINA RESULT:      -8.1      0.678      3.388
REMARK  Name = 
REMARK  10 active torsions:
REMARK  status: ('A' for Active; 'I' for Inactive)
REMARK    1  A    between atoms: C_1  and  O_2
REMARK    2  A    between atoms: O_2  and  C_3
REMARK    3  A    between atoms: C_5  and  C_6
REMARK    4  A    between atoms: C_12  and  C_13
REMARK    5  A    between atoms: C_15  and  O_16
REMARK    6  A    between atoms: O_16  and  C_17
REMARK    7  A    between atoms: C_19  and  O_20
REMARK    8  A    between atoms: O_20  and  C_21
REMARK    9  A    between atoms: C_26  and  O_27
REMARK   10  A    between atoms: O_27  and  C_28
REMARK                            x       y       z     vdW  Elec       q    Type
REMARK                         _______ _______ _______ _____ _____    ______ ____
ROOT
ATOM      1  C   UNL     1       0.625  11.290  19.560  0.00  0.00    +0.000 C 
ATOM      2  C   UNL     1       0.936  10.003  19.794  0.00  0.00    +0.000 C 
ATOM      3  C   UNL     1       0.677   9.272  21.070  0.00  0.00    +0.000 C 
ATOM      4  N   UNL     1       1.764   8.349  21.381  0.00  0.00    +0.000 NA
ATOM      5  C   UNL     1       1.818   7.312  20.356  0.00  0.00    +0.000 C 
ATOM      6  C   UNL     1       2.116   7.874  19.000  0.00  0.00    +0.000 C 
ATOM      7  C   UNL     1       2.816   7.240  18.038  0.00  0.00    +0.000 C 
ATOM      8  C   UNL     1       1.600   9.246  18.680  0.00  0.00    +0.000 C 
ATOM      9  O   UNL     1       1.700   9.722  17.554  0.00  0.00    +0.000 OA
ATOM     10  H   UNL     1       1.584   7.916  22.286  0.00  0.00    +0.000 HD
ENDROOT
BRANCH   1  13
ATOM     11  C   UNL     1      -1.924  12.760  21.916  0.00  0.00    +0.000 A 
ATOM     12  C   UNL     1      -1.344  11.966  20.922  0.00  0.00    +0.000 A 
ATOM     13  C   UNL     1      -0.027  12.193  20.514  0.00  0.00    +0.000 A 
ATOM     14  C   UNL     1       0.694  13.250  21.074  0.00  0.00    +0.000 A 
ATOM     15  C   UNL     1       0.132  14.035  22.083  0.00  0.00    +0.000 A 
ATOM     16  C   UNL     1      -1.179  13.787  22.500  0.00  0.00    +0.000 A 
BRANCH  11  18
ATOM     17  C   UNL     1      -3.531  12.426  23.639  0.00  0.00    +0.000 C 
ATOM     18  O   UNL     1      -3.209  12.422  22.252  0.00  0.00    +0.000 OA
ENDBRANCH  11  18
BRANCH  15  19
ATOM     19  O   UNL     1       0.965  14.991  22.599  0.00  0.00    +0.000 OA
ATOM     20  C   UNL     1       2.172  15.247  21.890  0.00  0.00    +0.000 C 
ENDBRANCH  15  19
ENDBRANCH   1  13
BRANCH   7  21
ATOM     21  C   UNL     1       3.339   5.878  18.171  0.00  0.00    +0.000 A 
ATOM     22  C   UNL     1       4.710   5.671  18.359  0.00  0.00    +0.000 A 
ATOM     23  C   UNL     1       5.225   4.377  18.471  0.00  0.00    +0.000 A 
ATOM     24  C   UNL     1       4.353   3.291  18.412  0.00  0.00    +0.000 A 
ATOM     25  C   UNL     1       2.982   3.483  18.209  0.00  0.00    +0.000 A 
ATOM     26  C   UNL     1       2.477   4.779  18.084  0.00  0.00    +0.000 A 
BRANCH  23  27
ATOM     27  O   UNL     1       6.584   4.308  18.614  0.00  0.00    +0.000 OA
ATOM     28  C   UNL     1       7.369   4.651  17.478  0.00  0.00    +0.000 C 
ENDBRANCH  23  27
BRANCH  25  29
ATOM     29  O   UNL     1       2.254   2.326  18.142  0.00  0.00    +0.000 OA
ATOM     30  C   UNL     1       0.933   2.367  18.666  0.00  0.00    +0.000 C 
ENDBRANCH  25  29
ENDBRANCH   7  21
TORSDOF 6
ENDMDL
MODEL 3
REMARK VINA RESULT:      -8.0      0.576      2.385
REMARK  Name = 
REMARK  10 active torsions:
REMARK  status: ('A' for Active; 'I' for Inactive)
REMARK    1  A    between atoms: C_1  and  O_2
REMARK    2  A    between atoms: O_2  and  C_3
REMARK    3  A    between atoms: C_5  and  C_6
REMARK    4  A    between atoms: C_12  and  C_13
REMARK    5  A    between atoms: C_15  and  O_16
REMARK    6  A    between atoms: O_16  and  C_17
REMARK    7  A    between atoms: C_19  and  O_20
REMARK    8  A    between atoms: O_20  and  C_21
REMARK    9  A    between atoms: C_26  and  O_27
REMARK   10  A    between atoms: O_27  and  C_28
REMARK                            x       y       z     vdW  Elec       q    Type
REMARK                         _______ _______ _______ _____ _____    ______ ____
ROOT
ATOM      1  C   UNL     1       0.568  11.415  19.619  0.00  0.00    +0.000 C 
ATOM      2  C   UNL     1       0.876  10.119  19.801  0.00  0.00    +0.000 C 
ATOM      3  C   UNL     1       0.617   9.337  21.047  0.00  0.00    +0.000 C 
ATOM      4  N   UNL     1       1.703   8.400  21.319  0.00  0.00    +0.000 NA
ATOM      5  C   UNL     1       1.754   7.406  20.253  0.00  0.00    +0.000 C 
ATOM      6  C   UNL     1       2.051   8.021  18.921  0.00  0.00    +0.000 C 
ATOM      7  C   UNL     1       2.750   7.425  17.933  0.00  0.00    +0.000 C 
ATOM      8  C   UNL     1       1.538   9.406  18.657  0.00  0.00    +0.000 C 
ATOM      9  O   UNL     1       1.638   9.927  17.550  0.00  0.00    +0.000 OA
ATOM     10  H   UNL     1       1.522   7.931  22.206  0.00  0.00    +0.000 HD
ENDROOT
BRANCH   1  13
ATOM     11  C   UNL     1      -1.960  12.773  22.064  0.00  0.00    +0.000 A 
ATOM     12  C   UNL     1      -1.385  12.017  21.038  0.00  0.00    +0.000 A 
ATOM     13  C   UNL     1      -0.082  12.280  20.609  0.00  0.00    +0.000 A 
ATOM     14  C   UNL     1       0.630  13.337  21.182  0.00  0.00    +0.000 A 
ATOM     15  C   UNL     1       0.074  14.085  22.221  0.00  0.00    +0.000 A 
ATOM     16  C   UNL     1      -1.222  13.800  22.658  0.00  0.00    +0.000 A 
BRANCH  11  18
ATOM     17  C   UNL     1      -3.499  12.282  23.810  0.00  0.00    +0.000 C 
ATOM     18  O   UNL     1      -3.230  12.400  22.417  0.00  0.00    +0.000 OA
ENDBRANCH  11  18
BRANCH  15  19
ATOM     19  O   UNL     1       0.899  15.044  22.745  0.00  0.00    +0.000 OA
ATOM     20  C   UNL     1       1.919  15.553  21.894  0.00  0.00    +0.000 C 
ENDBRANCH  15  19
ENDBRANCH   1  13
BRANCH   7  21
ATOM     21  C   UNL     1       3.270   6.057  18.011  0.00  0.00    +0.000 A 
ATOM     22  C   UNL     1       2.410   4.971  17.814  0.00  0.00    +0.000 A 
ATOM     23  C   UNL     1       2.889   3.661  17.901  0.00  0.00    +0.000 A 
ATOM     24  C   UNL     1       4.240   3.447  18.167  0.00  0.00    +0.000 A 
ATOM     25  C   UNL     1       5.107   4.524  18.381  0.00  0.00    +0.000 A 
ATOM     26  C   UNL     1       4.618   5.830  18.306  0.00  0.00    +0.000 A 
BRANCH  23  27
ATOM     27  O   UNL     1       1.941   2.689  17.726  0.00  0.00    +0.000 OA
ATOM     28  C   UNL     1       0.965   2.550  18.752  0.00  0.00    +0.000 C 
ENDBRANCH  23  27
BRANCH  25  29
ATOM     29  O   UNL     1       6.397   4.163  18.663  0.00  0.00    +0.000 OA
ATOM     30  C   UNL     1       7.416   4.745  17.861  0.00  0.00    +0.000 C 
ENDBRANCH  25  29
ENDBRANCH   7  21
TORSDOF 6
ENDMDL
MODEL 4
REMARK VINA RESULT:      -8.0      0.227      2.351
REMARK  Name = 
REMARK  10 active torsions:
REMARK  status: ('A' for Active; 'I' for Inactive)
REMARK    1  A    between atoms: C_1  and  O_2
REMARK    2  A    between atoms: O_2  and  C_3
REMARK    3  A    between atoms: C_5  and  C_6
REMARK    4  A    between atoms: C_12  and  C_13
REMARK    5  A    between atoms: C_15  and  O_16
REMARK    6  A    between atoms: O_16  and  C_17
REMARK    7  A    between atoms: C_19  and  O_20
REMARK    8  A    between atoms: O_20  and  C_21
REMARK    9  A    between atoms: C_26  and  O_27
REMARK   10  A    between atoms: O_27  and  C_28
REMARK                            x       y       z     vdW  Elec       q    Type
REMARK                         _______ _______ _______ _____ _____    ______ ____
ROOT
ATOM      1  C   UNL     1       0.412  11.242  20.232  0.00  0.00    +0.000 C 
ATOM      2  C   UNL     1       0.771   9.949  20.321  0.00  0.00    +0.000 C 
ATOM      3  C   UNL     1       0.644   9.101  21.544  0.00  0.00    +0.000 C 
ATOM      4  N   UNL     1       1.775   8.188  21.675  0.00  0.00    +0.000 NA
ATOM      5  C   UNL     1       1.761   7.247  20.560  0.00  0.00    +0.000 C 
ATOM      6  C   UNL     1       1.924   7.935  19.240  0.00  0.00    +0.000 C 
ATOM      7  C   UNL     1       2.550   7.410  18.167  0.00  0.00    +0.000 C 
ATOM      8  C   UNL     1       1.350   9.314  19.090  0.00  0.00    +0.000 C 
ATOM      9  O   UNL     1       1.339   9.889  18.007  0.00  0.00    +0.000 OA
ATOM     10  H   UNL     1       1.686   7.672  22.549  0.00  0.00    +0.000 HD
ENDROOT
BRANCH   1  13
ATOM     11  C   UNL     1      -0.262  14.087  22.612  0.00  0.00    +0.000 A 
ATOM     12  C   UNL     1       0.366  13.281  21.657  0.00  0.00    +0.000 A 
ATOM     13  C   UNL     1      -0.173  12.037  21.316  0.00  0.00    +0.000 A 
ATOM     14  C   UNL     1      -1.321  11.583  21.970  0.00  0.00    +0.000 A 
ATOM     15  C   UNL     1      -1.967  12.389  22.909  0.00  0.00    +0.000 A 
ATOM     16  C   UNL     1      -1.433  13.640  23.228  0.00  0.00    +0.000 A 
BRANCH  11  18
ATOM     17  C   UNL     1       1.514  15.577  22.078  0.00  0.00    +0.000 C 
ATOM     18  O   UNL     1       0.344  15.295  22.839  0.00  0.00    +0.000 OA
ENDBRANCH  11  18
BRANCH  15  19
ATOM     19  O   UNL     1      -3.120  11.859  23.424  0.00  0.00    +0.000 OA
ATOM     20  C   UNL     1      -4.173  12.770  23.718  0.00  0.00    +0.000 C 
ENDBRANCH  15  19
ENDBRANCH   1  13
BRANCH   7  21
ATOM     21  C   UNL     1       3.113   6.057  18.131  0.00  0.00    +0.000 A 
ATOM     22  C   UNL     1       4.483   5.865  18.343  0.00  0.00    +0.000 A 
ATOM     23  C   UNL     1       5.037   4.583  18.295  0.00  0.00    +0.000 A 
ATOM     24  C   UNL     1       4.205   3.492  18.052  0.00  0.00    +0.000 A 
ATOM     25  C   UNL     1       2.836   3.671  17.824  0.00  0.00    +0.000 A 
ATOM     26  C   UNL     1       2.293   4.958  17.859  0.00  0.00    +0.000 A 
BRANCH  23  27
ATOM     27  O   UNL     1       6.392   4.534  18.480  0.00  0.00    +0.000 OA
ATOM     28  C   UNL     1       7.204   4.623  17.315  0.00  0.00    +0.000 C 
ENDBRANCH  23  27
BRANCH  25  29
ATOM     29  O   UNL     1       2.150   2.515  17.569  0.00  0.00    +0.000 OA
ATOM     30  C   UNL     1       1.403   1.962  18.645  0.00  0.00    +0.000 C 
ENDBRANCH  25  29
ENDBRANCH   7  21
TORSDOF 6
ENDMDL
MODEL 5
REMARK VINA RESULT:      -7.9      0.904      9.739
REMARK  Name = 
REMARK  10 active torsions:
REMARK  status: ('A' for Active; 'I' for Inactive)
REMARK    1  A    between atoms: C_1  and  O_2
REMARK    2  A    between atoms: O_2  and  C_3
REMARK    3  A    between atoms: C_5  and  C_6
REMARK    4  A    between atoms: C_12  and  C_13
REMARK    5  A    between atoms: C_15  and  O_16
REMARK    6  A    between atoms: O_16  and  C_17
REMARK    7  A    between atoms: C_19  and  O_20
REMARK    8  A    between atoms: O_20  and  C_21
REMARK    9  A    between atoms: C_26  and  O_27
REMARK   10  A    between atoms: O_27  and  C_28
REMARK                            x       y       z     vdW  Elec       q    Type
REMARK                         _______ _______ _______ _____ _____    ______ ____
ROOT
ATOM      1  C   UNL     1       2.693   7.143  17.841  0.00  0.00    +0.000 C 
ATOM      2  C   UNL     1       2.189   7.865  18.858  0.00  0.00    +0.000 C 
ATOM      3  C   UNL     1       2.118   7.417  20.281  0.00  0.00    +0.000 C 
ATOM      4  N   UNL     1       0.887   7.873  20.920  0.00  0.00    +0.000 NA
ATOM      5  C   UNL     1       0.894   9.331  20.982  0.00  0.00    +0.000 C 
ATOM      6  C   UNL     1       0.920   9.954  19.620  0.00  0.00    +0.000 C 
ATOM      7  C   UNL     1       0.334  11.124  19.295  0.00  0.00    +0.000 C 
ATOM      8  C   UNL     1       1.651   9.227  18.530  0.00  0.00    +0.000 C 
ATOM      9  O   UNL     1       1.817   9.731  17.423  0.00  0.00    +0.000 OA
ATOM     10  H   UNL     1       0.845   7.498  21.866  0.00  0.00    +0.000 HD
ENDROOT
BRANCH   1  13
ATOM     11  C   UNL     1       5.147   4.348  18.453  0.00  0.00    +0.000 A 
ATOM     12  C   UNL     1       4.626   5.626  18.230  0.00  0.00    +0.000 A 
ATOM     13  C   UNL     1       3.267   5.799  17.957  0.00  0.00    +0.000 A 
ATOM     14  C   UNL     1       2.437   4.679  17.862  0.00  0.00    +0.000 A 
ATOM     15  C   UNL     1       2.942   3.400  18.104  0.00  0.00    +0.000 A 
ATOM     16  C   UNL     1       4.299   3.239  18.398  0.00  0.00    +0.000 A 
BRANCH  11  18
ATOM     17  C   UNL     1       7.378   4.660  17.686  0.00  0.00    +0.000 C 
ATOM     18  O   UNL     1       6.486   4.310  18.740  0.00  0.00    +0.000 OA
ENDBRANCH  11  18
BRANCH  15  19
ATOM     19  O   UNL     1       2.013   2.395  18.051  0.00  0.00    +0.000 OA
ATOM     20  C   UNL     1       0.843   2.556  18.844  0.00  0.00    +0.000 C 
ENDBRANCH  15  19
ENDBRANCH   1  13
BRANCH   7  21
ATOM     21  C   UNL     1      -0.368  11.981  20.254  0.00  0.00    +0.000 A 
ATOM     22  C   UNL     1       0.355  12.873  21.053  0.00  0.00    +0.000 A 
ATOM     23  C   UNL     1      -0.299  13.684  21.984  0.00  0.00    +0.000 A 
ATOM     24  C   UNL     1      -1.687  13.610  22.094  0.00  0.00    +0.000 A 
ATOM     25  C   UNL     1      -2.420  12.712  21.311  0.00  0.00    +0.000 A 
ATOM     26  C   UNL     1      -1.757  11.894  20.394  0.00  0.00    +0.000 A 
BRANCH  23  27
ATOM     27  O   UNL     1       0.524  14.484  22.730  0.00  0.00    +0.000 OA
ATOM     28  C   UNL     1       1.504  15.236  22.024  0.00  0.00    +0.000 C 
ENDBRANCH  23  27
BRANCH  25  29
ATOM     29  O   UNL     1      -3.768  12.727  21.548  0.00  0.00    +0.000 OA
ATOM     30  C   UNL     1      -4.202  13.359  22.745  0.00  0.00    +0.000 C 
ENDBRANCH  25  29
ENDBRANCH   7  21
TORSDOF 6
ENDMDL
MODEL 6
REMARK VINA RESULT:      -7.9      1.208      2.675
REMARK  Name = 
REMARK  10 active torsions:
REMARK  status: ('A' for Active; 'I' for Inactive)
REMARK    1  A    between atoms: C_1  and  O_2
REMARK    2  A    between atoms: O_2  and  C_3
REMARK    3  A    between atoms: C_5  and  C_6
REMARK    4  A    between atoms: C_12  and  C_13
REMARK    5  A    between atoms: C_15  and  O_16
REMARK    6  A    between atoms: O_16  and  C_17
REMARK    7  A    between atoms: C_19  and  O_20
REMARK    8  A    between atoms: O_20  and  C_21
REMARK    9  A    between atoms: C_26  and  O_27
REMARK   10  A    between atoms: O_27  and  C_28
REMARK                            x       y       z     vdW  Elec       q    Type
REMARK                         _______ _______ _______ _____ _____    ______ ____
ROOT
ATOM      1  C   UNL     1       0.488  11.173  19.450  0.00  0.00    +0.000 C 
ATOM      2  C   UNL     1       0.827   9.905  19.743  0.00  0.00    +0.000 C 
ATOM      3  C   UNL     1       0.530   9.208  21.029  0.00  0.00    +0.000 C 
ATOM      4  N   UNL     1       1.628   8.331  21.423  0.00  0.00    +0.000 NA
ATOM      5  C   UNL     1       1.764   7.264  20.438  0.00  0.00    +0.000 C 
ATOM      6  C   UNL     1       2.110   7.791  19.080  0.00  0.00    +0.000 C 
ATOM      7  C   UNL     1       2.876   7.149  18.174  0.00  0.00    +0.000 C 
ATOM      8  C   UNL     1       1.568   9.134  18.688  0.00  0.00    +0.000 C 
ATOM      9  O   UNL     1       1.708   9.577  17.552  0.00  0.00    +0.000 OA
ATOM     10  H   UNL     1       1.418   7.922  22.332  0.00  0.00    +0.000 HD
ENDROOT
BRANCH   1  13
ATOM     11  C   UNL     1      -0.239  13.922  21.925  0.00  0.00    +0.000 A 
ATOM     12  C   UNL     1       0.455  12.977  21.164  0.00  0.00    +0.000 A 
ATOM     13  C   UNL     1      -0.237  12.085  20.340  0.00  0.00    +0.000 A 
ATOM     14  C   UNL     1      -1.634  12.113  20.317  0.00  0.00    +0.000 A 
ATOM     15  C   UNL     1      -2.336  13.066  21.057  0.00  0.00    +0.000 A 
ATOM     16  C   UNL     1      -1.634  13.969  21.861  0.00  0.00    +0.000 A 
BRANCH  11  18
ATOM     17  C   UNL     1       1.672  15.337  22.008  0.00  0.00    +0.000 C 
ATOM     18  O   UNL     1       0.550  14.760  22.669  0.00  0.00    +0.000 OA
ENDBRANCH  11  18
BRANCH  15  19
ATOM     19  O   UNL     1      -3.695  13.036  20.893  0.00  0.00    +0.000 OA
ATOM     20  C   UNL     1      -4.188  12.418  19.710  0.00  0.00    +0.000 C 
ENDBRANCH  15  19
ENDBRANCH   1  13
BRANCH   7  21
ATOM     21  C   UNL     1       3.434   5.810  18.378  0.00  0.00    +0.000 A 
ATOM     22  C   UNL     1       4.820   5.637  18.469  0.00  0.00    +0.000 A 
ATOM     23  C   UNL     1       5.367   4.363  18.647  0.00  0.00    +0.000 A 
ATOM     24  C   UNL     1       4.514   3.266  18.754  0.00  0.00    +0.000 A 
ATOM     25  C   UNL     1       3.127   3.423  18.650  0.00  0.00    +0.000 A 
ATOM     26  C   UNL     1       2.590   4.698  18.457  0.00  0.00    +0.000 A 
BRANCH  23  27
ATOM     27  O   UNL     1       6.734   4.323  18.682  0.00  0.00    +0.000 OA
ATOM     28  C   UNL     1       7.419   4.661  17.482  0.00  0.00    +0.000 C 
ENDBRANCH  23  27
BRANCH  25  29
ATOM     29  O   UNL     1       2.418   2.256  18.742  0.00  0.00    +0.000 OA
ATOM     30  C   UNL     1       1.001   2.364  18.737  0.00  0.00    +0.000 C 
ENDBRANCH  25  29
ENDBRANCH   7  21
TORSDOF 6
ENDMDL
MODEL 7
REMARK VINA RESULT:      -7.9      1.007      9.879
REMARK  Name = 
REMARK  10 active torsions:
REMARK  status: ('A' for Active; 'I' for Inactive)
REMARK    1  A    between atoms: C_1  and  O_2
REMARK    2  A    between atoms: O_2  and  C_3
REMARK    3  A    between atoms: C_5  and  C_6
REMARK    4  A    between atoms: C_12  and  C_13
REMARK    5  A    between atoms: C_15  and  O_16
REMARK    6  A    between atoms: O_16  and  C_17
REMARK    7  A    between atoms: C_19  and  O_20
REMARK    8  A    between atoms: O_20  and  C_21
REMARK    9  A    between atoms: C_26  and  O_27
REMARK   10  A    between atoms: O_27  and  C_28
REMARK                            x       y       z     vdW  Elec       q    Type
REMARK                         _______ _______ _______ _____ _____    ______ ____
ROOT
ATOM      1  C   UNL     1       2.640   7.248  17.965  0.00  0.00    +0.000 C 
ATOM      2  C   UNL     1       2.121   7.976  18.970  0.00  0.00    +0.000 C 
ATOM      3  C   UNL     1       1.980   7.515  20.384  0.00  0.00    +0.000 C 
ATOM      4  N   UNL     1       0.741   8.007  20.980  0.00  0.00    +0.000 NA
ATOM      5  C   UNL     1       0.796   9.463  21.060  0.00  0.00    +0.000 C 
ATOM      6  C   UNL     1       0.897  10.099  19.709  0.00  0.00    +0.000 C 
ATOM      7  C   UNL     1       0.364  11.293  19.375  0.00  0.00    +0.000 C 
ATOM      8  C   UNL     1       1.644   9.360  18.638  0.00  0.00    +0.000 C 
ATOM      9  O   UNL     1       1.871   9.870  17.545  0.00  0.00    +0.000 OA
ATOM     10  H   UNL     1       0.649   7.623  21.919  0.00  0.00    +0.000 HD
ENDROOT
BRANCH   1  13
ATOM     11  C   UNL     1       2.847   3.485  17.897  0.00  0.00    +0.000 A 
ATOM     12  C   UNL     1       2.324   4.782  17.895  0.00  0.00    +0.000 A 
ATOM     13  C   UNL     1       3.162   5.883  18.086  0.00  0.00    +0.000 A 
ATOM     14  C   UNL     1       4.523   5.678  18.326  0.00  0.00    +0.000 A 
ATOM     15  C   UNL     1       5.059   4.390  18.310  0.00  0.00    +0.000 A 
ATOM     16  C   UNL     1       4.217   3.296  18.096  0.00  0.00    +0.000 A 
BRANCH  11  18
ATOM     17  C   UNL     1       0.936   2.296  18.668  0.00  0.00    +0.000 C 
ATOM     18  O   UNL     1       1.932   2.490  17.669  0.00  0.00    +0.000 OA
ENDBRANCH  11  18
BRANCH  15  19
ATOM     19  O   UNL     1       6.415   4.329  18.487  0.00  0.00    +0.000 OA
ATOM     20  C   UNL     1       7.228   4.662  17.367  0.00  0.00    +0.000 C 
ENDBRANCH  15  19
ENDBRANCH   1  13
BRANCH   7  21
ATOM     21  C   UNL     1      -0.345  12.163  20.317  0.00  0.00    +0.000 A 
ATOM     22  C   UNL     1      -1.741  12.122  20.390  0.00  0.00    +0.000 A 
ATOM     23  C   UNL     1      -2.432  12.958  21.271  0.00  0.00    +0.000 A 
ATOM     24  C   UNL     1      -1.711  13.822  22.095  0.00  0.00    +0.000 A 
ATOM     25  C   UNL     1      -0.315  13.883  22.021  0.00  0.00    +0.000 A 
ATOM     26  C   UNL     1       0.366  13.054  21.127  0.00  0.00    +0.000 A 
BRANCH  23  27
ATOM     27  O   UNL     1      -3.795  12.850  21.219  0.00  0.00    +0.000 OA
ATOM     28  C   UNL     1      -4.492  12.899  22.459  0.00  0.00    +0.000 C 
ENDBRANCH  23  27
BRANCH  25  29
ATOM     29  O   UNL     1       0.255  14.797  22.866  0.00  0.00    +0.000 OA
ATOM     30  C   UNL     1      -0.582  15.846  23.335  0.00  0.00    +0.000 C 
ENDBRANCH  25  29
ENDBRANCH   7  21
TORSDOF 6
ENDMDL
MODEL 8
REMARK VINA RESULT:      -7.9      1.428      9.444
REMARK  Name = 
REMARK  10 active torsions:
REMARK  status: ('A' for Active; 'I' for Inactive)
REMARK    1  A    between atoms: C_1  and  O_2
REMARK    2  A    between atoms: O_2  and  C_3
REMARK    3  A    between atoms: C_5  and  C_6
REMARK    4  A    between atoms: C_12  and  C_13
REMARK    5  A    between atoms: C_15  and  O_16
REMARK    6  A    between atoms: O_16  and  C_17
REMARK    7  A    between atoms: C_19  and  O_20
REMARK    8  A    between atoms: O_20  and  C_21
REMARK    9  A    between atoms: C_26  and  O_27
REMARK   10  A    between atoms: O_27  and  C_28
REMARK                            x       y       z     vdW  Elec       q    Type
REMARK                         _______ _______ _______ _____ _____    ______ ____
ROOT
ATOM      1  C   UNL     1       2.786   7.181  17.962  0.00  0.00    +0.000 C 
ATOM      2  C   UNL     1       2.171   7.850  18.954  0.00  0.00    +0.000 C 
ATOM      3  C   UNL     1       2.000   7.354  20.352  0.00  0.00    +0.000 C 
ATOM      4  N   UNL     1       0.704   7.743  20.897  0.00  0.00    +0.000 NA
ATOM      5  C   UNL     1       0.647   9.197  21.002  0.00  0.00    +0.000 C 
ATOM      6  C   UNL     1       0.761   9.864  19.667  0.00  0.00    +0.000 C 
ATOM      7  C   UNL     1       0.158  11.022  19.327  0.00  0.00    +0.000 C 
ATOM      8  C   UNL     1       1.608   9.201  18.621  0.00  0.00    +0.000 C 
ATOM      9  O   UNL     1       1.846   9.747  17.548  0.00  0.00    +0.000 OA
ATOM     10  H   UNL     1       0.598   7.336  21.825  0.00  0.00    +0.000 HD
ENDROOT
BRANCH   1  13
ATOM     11  C   UNL     1       5.294   4.461  18.687  0.00  0.00    +0.000 A 
ATOM     12  C   UNL     1       4.742   5.726  18.458  0.00  0.00    +0.000 A 
ATOM     13  C   UNL     1       3.402   5.856  18.086  0.00  0.00    +0.000 A 
ATOM     14  C   UNL     1       2.626   4.709  17.899  0.00  0.00    +0.000 A 
ATOM     15  C   UNL     1       3.161   3.444  18.145  0.00  0.00    +0.000 A 
ATOM     16  C   UNL     1       4.496   3.324  18.538  0.00  0.00    +0.000 A 
BRANCH  11  18
ATOM     17  C   UNL     1       7.293   5.711  19.009  0.00  0.00    +0.000 C 
ATOM     18  O   UNL     1       6.608   4.464  19.076  0.00  0.00    +0.000 OA
ENDBRANCH  11  18
BRANCH  15  19
ATOM     19  O   UNL     1       2.278   2.407  17.995  0.00  0.00    +0.000 OA
ATOM     20  C   UNL     1       1.026   2.524  18.661  0.00  0.00    +0.000 C 
ENDBRANCH  15  19
ENDBRANCH   1  13
BRANCH   7  21
ATOM     21  C   UNL     1      -0.655  11.821  20.249  0.00  0.00    +0.000 A 
ATOM     22  C   UNL     1      -1.990  12.100  19.938  0.00  0.00    +0.000 A 
ATOM     23  C   UNL     1      -2.772  12.875  20.799  0.00  0.00    +0.000 A 
ATOM     24  C   UNL     1      -2.213  13.350  21.984  0.00  0.00    +0.000 A 
ATOM     25  C   UNL     1      -0.874  13.090  22.299  0.00  0.00    +0.000 A 
ATOM     26  C   UNL     1      -0.095  12.328  21.426  0.00  0.00    +0.000 A 
BRANCH  23  27
ATOM     27  O   UNL     1      -4.049  13.108  20.364  0.00  0.00    +0.000 OA
ATOM     28  C   UNL     1      -4.555  12.239  19.359  0.00  0.00    +0.000 C 
ENDBRANCH  23  27
BRANCH  25  29
ATOM     29  O   UNL     1      -0.454  13.645  23.477  0.00  0.00    +0.000 OA
ATOM     30  C   UNL     1      -1.257  14.684  24.020  0.00  0.00    +0.000 C 
ENDBRANCH  25  29
ENDBRANCH   7  21
TORSDOF 6
ENDMDL
MODEL 9
REMARK VINA RESULT:      -7.8      0.512     10.037
REMARK  Name = 
REMARK  10 active torsions:
REMARK  status: ('A' for Active; 'I' for Inactive)
REMARK    1  A    between atoms: C_1  and  O_2
REMARK    2  A    between atoms: O_2  and  C_3
REMARK    3  A    between atoms: C_5  and  C_6
REMARK    4  A    between atoms: C_12  and  C_13
REMARK    5  A    between atoms: C_15  and  O_16
REMARK    6  A    between atoms: O_16  and  C_17
REMARK    7  A    between atoms: C_19  and  O_20
REMARK    8  A    between atoms: O_20  and  C_21
REMARK    9  A    between atoms: C_26  and  O_27
REMARK   10  A    between atoms: O_27  and  C_28
REMARK                            x       y       z     vdW  Elec       q    Type
REMARK                         _______ _______ _______ _____ _____    ______ ____
ROOT
ATOM      1  C   UNL     1       2.426   7.515  17.980  0.00  0.00    +0.000 C 
ATOM      2  C   UNL     1       1.975   8.123  19.092  0.00  0.00    +0.000 C 
ATOM      3  C   UNL     1       1.959   7.520  20.459  0.00  0.00    +0.000 C 
ATOM      4  N   UNL     1       0.763   7.914  21.197  0.00  0.00    +0.000 NA
ATOM      5  C   UNL     1       0.793   9.356  21.420  0.00  0.00    +0.000 C 
ATOM      6  C   UNL     1       0.770  10.126  20.137  0.00  0.00    +0.000 C 
ATOM      7  C   UNL     1       0.187  11.331  19.969  0.00  0.00    +0.000 C 
ATOM      8  C   UNL     1       1.443   9.519  18.941  0.00  0.00    +0.000 C 
ATOM      9  O   UNL     1       1.570  10.142  17.891  0.00  0.00    +0.000 OA
ATOM     10  H   UNL     1       0.755   7.436  22.097  0.00  0.00    +0.000 HD
ENDROOT
BRANCH   1  13
ATOM     11  C   UNL     1       2.676   3.764  17.703  0.00  0.00    +0.000 A 
ATOM     12  C   UNL     1       2.143   5.046  17.875  0.00  0.00    +0.000 A 
ATOM     13  C   UNL     1       2.984   6.161  17.921  0.00  0.00    +0.000 A 
ATOM     14  C   UNL     1       4.367   5.983  17.839  0.00  0.00    +0.000 A 
ATOM     15  C   UNL     1       4.908   4.710  17.645  0.00  0.00    +0.000 A 
ATOM     16  C   UNL     1       4.058   3.603  17.579  0.00  0.00    +0.000 A 
BRANCH  11  18
ATOM     17  C   UNL     1       1.286   2.238  18.887  0.00  0.00    +0.000 C 
ATOM     18  O   UNL     1       1.750   2.755  17.644  0.00  0.00    +0.000 OA
ENDBRANCH  11  18
BRANCH  15  19
ATOM     19  O   UNL     1       6.270   4.678  17.509  0.00  0.00    +0.000 OA
ATOM     20  C   UNL     1       6.928   5.924  17.308  0.00  0.00    +0.000 C 
ENDBRANCH  15  19
ENDBRANCH   1  13
BRANCH   7  21
ATOM     21  C   UNL     1      -0.461  12.082  21.048  0.00  0.00    +0.000 A 
ATOM     22  C   UNL     1       0.146  13.234  21.559  0.00  0.00    +0.000 A 
ATOM     23  C   UNL     1      -0.452  13.951  22.599  0.00  0.00    +0.000 A 
ATOM     24  C   UNL     1      -1.675  13.516  23.109  0.00  0.00    +0.000 A 
ATOM     25  C   UNL     1      -2.285  12.358  22.616  0.00  0.00    +0.000 A 
ATOM     26  C   UNL     1      -1.673  11.639  21.587  0.00  0.00    +0.000 A 
BRANCH  23  27
ATOM     27  O   UNL     1       0.260  15.036  23.035  0.00  0.00    +0.000 OA
ATOM     28  C   UNL     1       1.182  15.611  22.118  0.00  0.00    +0.000 C 
ENDBRANCH  23  27
BRANCH  25  29
ATOM     29  O   UNL     1      -3.464  12.036  23.232  0.00  0.00    +0.000 OA
ATOM     30  C   UNL     1      -3.845  12.832  24.346  0.00  0.00    +0.000 C 
ENDBRANCH  25  29
ENDBRANCH   7  21
TORSDOF 6
ENDMDL
