MODEL 1
REMARK VINA RESULT:      -7.0      0.000      0.000
REMARK  Name = 
REMARK  10 active torsions:
REMARK  status: ('A' for Active; 'I' for Inactive)
REMARK    1  A    between atoms: C_1  and  N_2
REMARK    2  A    between atoms: C_3  and  C_5
REMARK    3  A    between atoms: N_12  and  C_13
REMARK    4  A    between atoms: N_12  and  C_18
REMARK    5  A    between atoms: C_13  and  C_14
REMARK    6  A    between atoms: C_14  and  C_15
REMARK    7  A    between atoms: C_15  and  C_16
REMARK    8  A    between atoms: C_15  and  C_17
REMARK    9  A    between atoms: C_18  and  C_19
REMARK   10  A    between atoms: N_21  and  O_22
REMARK                            x       y       z     vdW  Elec       q    Type
REMARK                         _______ _______ _______ _____ _____    ______ ____
ROOT
ATOM      1  C   UNL     1       2.069   4.682  18.841  0.00  0.00    +0.000 C 
ATOM      2  C   UNL     1       1.427   4.330  20.200  0.00  0.00    +0.000 C 
ATOM      3  C   UNL     1       1.231   2.835  20.117  0.00  0.00    +0.000 C 
ATOM      4  C   UNL     1       2.476   2.366  19.383  0.00  0.00    +0.000 C 
ATOM      5  N   UNL     1       2.976   3.505  18.606  0.00  0.00    +0.000 N 
ATOM      6  C   UNL     1       3.821   3.159  17.538  0.00  0.00    +0.000 C 
ATOM      7  O   UNL     1       3.979   1.972  17.234  0.00  0.00    +0.000 OA
ATOM      8  N   UNL     1       4.561   4.148  16.890  0.00  0.00    +0.000 N 
ENDROOT
BRANCH   1  11
ATOM      9  C   UNL     1       2.677   8.334  17.879  0.00  0.00    +0.000 C 
ATOM     10  N   UNL     1       2.105   7.013  18.046  0.00  0.00    +0.000 N 
ATOM     11  C   UNL     1       2.555   6.148  19.028  0.00  0.00    +0.000 C 
ATOM     12  O   UNL     1       3.373   6.492  19.883  0.00  0.00    +0.000 OA
ATOM     13  H   UNL     1       1.329   6.749  17.450  0.00  0.00    +0.000 HD
ENDBRANCH   1  11
BRANCH   8  14
ATOM     14  C   UNL     1       5.560   3.765  15.878  0.00  0.00    +0.000 C 
BRANCH  14  15
ATOM     15  C   UNL     1       5.617   4.505  14.539  0.00  0.00    +0.000 C 
BRANCH  15  16
ATOM     16  C   UNL     1       6.150   3.702  13.340  0.00  0.00    +0.000 C 
ATOM     17  C   UNL     1       5.065   3.359  12.316  0.00  0.00    +0.000 C 
ATOM     18  C   UNL     1       7.258   4.511  12.655  0.00  0.00    +0.000 C 
ENDBRANCH  15  16
ENDBRANCH  14  15
ENDBRANCH   8  14
BRANCH   8  19
ATOM     19  C   UNL     1       4.913   5.359  17.608  0.00  0.00    +0.000 C 
BRANCH  19  20
ATOM     20  C   UNL     1       6.277   5.699  18.207  0.00  0.00    +0.000 C 
ATOM     21  O   UNL     1       7.171   6.344  17.662  0.00  0.00    +0.000 OA
ATOM     22  N   UNL     1       6.381   5.269  19.521  0.00  0.00    +0.000 N 
ATOM     23  H   UNL     1       5.812   4.503  19.889  0.00  0.00    +0.000 HD
BRANCH  22  24
ATOM     24  O   UNL     1       7.641   5.481  20.123  0.00  0.00    +0.000 OA
ATOM     25  H   UNL     1       8.076   6.084  19.480  0.00  0.00    +0.000 HD
ENDBRANCH  22  24
ENDBRANCH  19  20
ENDBRANCH   8  19
TORSDOF 7
ENDMDL
MODEL 2
REMARK VINA RESULT:      -6.8      0.843      1.119
REMARK  Name = 
REMARK  10 active torsions:
REMARK  status: ('A' for Active; 'I' for Inactive)
REMARK    1  A    between atoms: C_1  and  N_2
REMARK    2  A    between atoms: C_3  and  C_5
REMARK    3  A    between atoms: N_12  and  C_13
REMARK    4  A    between atoms: N_12  and  C_18
REMARK    5  A    between atoms: C_13  and  C_14
REMARK    6  A    between atoms: C_14  and  C_15
REMARK    7  A    between atoms: C_15  and  C_16
REMARK    8  A    between atoms: C_15  and  C_17
REMARK    9  A    between atoms: C_18  and  C_19
REMARK   10  A    between atoms: N_21  and  O_22
REMARK                            x       y       z     vdW  Elec       q    Type
REMARK                         _______ _______ _______ _____ _____    ______ ____
ROOT
ATOM      1  C   UNL     1       1.974   4.741  18.924  0.00  0.00    +0.000 C 
ATOM      2  C   UNL     1       1.336   4.401  20.289  0.00  0.00    +0.000 C 
ATOM      3  C   UNL     1       1.170   2.902  20.234  0.00  0.00    +0.000 C 
ATOM      4  C   UNL     1       2.427   2.444  19.511  0.00  0.00    +0.000 C 
ATOM      5  N   UNL     1       2.905   3.578  18.713  0.00  0.00    +0.000 N 
ATOM      6  C   UNL     1       3.760   3.230  17.655  0.00  0.00    +0.000 C 
ATOM      7  O   UNL     1       3.943   2.040  17.374  0.00  0.00    +0.000 OA
ATOM      8  N   UNL     1       4.482   4.221  16.989  0.00  0.00    +0.000 N 
ENDROOT
BRANCH   1  11
ATOM      9  C   UNL     1       2.671   8.342  17.839  0.00  0.00    +0.000 C 
ATOM     10  N   UNL     1       2.089   7.027  18.013  0.00  0.00    +0.000 N 
ATOM     11  C   UNL     1       2.429   6.220  19.085  0.00  0.00    +0.000 C 
ATOM     12  O   UNL     1       3.145   6.617  20.007  0.00  0.00    +0.000 OA
ATOM     13  H   UNL     1       1.386   6.723  17.349  0.00  0.00    +0.000 HD
ENDBRANCH   1  11
BRANCH   8  14
ATOM     14  C   UNL     1       5.491   3.839  15.987  0.00  0.00    +0.000 C 
BRANCH  14  15
ATOM     15  C   UNL     1       5.452   4.456  14.587  0.00  0.00    +0.000 C 
BRANCH  15  16
ATOM     16  C   UNL     1       6.421   3.859  13.553  0.00  0.00    +0.000 C 
ATOM     17  C   UNL     1       5.714   3.311  12.311  0.00  0.00    +0.000 C 
ATOM     18  C   UNL     1       7.424   4.940  13.131  0.00  0.00    +0.000 C 
ENDBRANCH  15  16
ENDBRANCH  14  15
ENDBRANCH   8  14
BRANCH   8  19
ATOM     19  C   UNL     1       4.808   5.452  17.686  0.00  0.00    +0.000 C 
BRANCH  19  20
ATOM     20  C   UNL     1       6.197   6.068  17.847  0.00  0.00    +0.000 C 
ATOM     21  O   UNL     1       7.077   5.689  18.617  0.00  0.00    +0.000 OA
ATOM     22  N   UNL     1       6.413   7.088  16.932  0.00  0.00    +0.000 N 
ATOM     23  H   UNL     1       5.643   7.610  16.508  0.00  0.00    +0.000 HD
BRANCH  22  24
ATOM     24  O   UNL     1       7.649   7.759  17.066  0.00  0.00    +0.000 OA
ATOM     25  H   UNL     1       7.534   8.233  17.919  0.00  0.00    +0.000 HD
ENDBRANCH  22  24
ENDBRANCH  19  20
ENDBRANCH   8  19
TORSDOF 7
ENDMDL
MODEL 3
REMARK VINA RESULT:      -6.7      1.798      3.518
REMARK  Name = 
REMARK  10 active torsions:
REMARK  status: ('A' for Active; 'I' for Inactive)
REMARK    1  A    between atoms: C_1  and  N_2
REMARK    2  A    between atoms: C_3  and  C_5
REMARK    3  A    between atoms: N_12  and  C_13
REMARK    4  A    between atoms: N_12  and  C_18
REMARK    5  A    between atoms: C_13  and  C_14
REMARK    6  A    between atoms: C_14  and  C_15
REMARK    7  A    between atoms: C_15  and  C_16
REMARK    8  A    between atoms: C_15  and  C_17
REMARK    9  A    between atoms: C_18  and  C_19
REMARK   10  A    between atoms: N_21  and  O_22
REMARK                            x       y       z     vdW  Elec       q    Type
REMARK                         _______ _______ _______ _____ _____    ______ ____
ROOT
ATOM      1  C   UNL     1       2.839   6.320  19.741  0.00  0.00    +0.000 C 
ATOM      2  C   UNL     1       1.602   7.221  19.945  0.00  0.00    +0.000 C 
ATOM      3  C   UNL     1       1.954   8.476  19.183  0.00  0.00    +0.000 C 
ATOM      4  C   UNL     1       2.685   7.942  17.961  0.00  0.00    +0.000 C 
ATOM      5  N   UNL     1       3.221   6.625  18.319  0.00  0.00    +0.000 N 
ATOM      6  C   UNL     1       4.281   6.185  17.508  0.00  0.00    +0.000 C 
ATOM      7  O   UNL     1       4.777   6.948  16.671  0.00  0.00    +0.000 OA
ATOM      8  N   UNL     1       4.703   4.857  17.576  0.00  0.00    +0.000 N 
ENDROOT
BRANCH   1  11
ATOM      9  C   UNL     1       0.537   3.281  20.048  0.00  0.00    +0.000 C 
ATOM     10  N   UNL     1       1.297   4.409  19.549  0.00  0.00    +0.000 N 
ATOM     11  C   UNL     1       2.371   4.926  20.252  0.00  0.00    +0.000 C 
ATOM     12  O   UNL     1       2.814   4.388  21.268  0.00  0.00    +0.000 OA
ATOM     13  H   UNL     1       1.049   4.789  18.643  0.00  0.00    +0.000 HD
ENDBRANCH   1  11
BRANCH   8  14
ATOM     14  C   UNL     1       5.705   4.361  16.618  0.00  0.00    +0.000 C 
BRANCH  14  15
ATOM     15  C   UNL     1       5.261   3.796  15.267  0.00  0.00    +0.000 C 
BRANCH  15  16
ATOM     16  C   UNL     1       6.321   3.780  14.153  0.00  0.00    +0.000 C 
ATOM     17  C   UNL     1       5.719   3.641  12.753  0.00  0.00    +0.000 C 
ATOM     18  C   UNL     1       7.140   5.073  14.229  0.00  0.00    +0.000 C 
ENDBRANCH  15  16
ENDBRANCH  14  15
ENDBRANCH   8  14
BRANCH   8  19
ATOM     19  C   UNL     1       3.765   3.834  18.001  0.00  0.00    +0.000 C 
BRANCH  19  20
ATOM     20  C   UNL     1       4.112   2.477  18.613  0.00  0.00    +0.000 C 
ATOM     21  O   UNL     1       3.738   1.379  18.209  0.00  0.00    +0.000 OA
ATOM     22  N   UNL     1       5.006   2.605  19.666  0.00  0.00    +0.000 N 
ATOM     23  H   UNL     1       5.096   3.472  20.201  0.00  0.00    +0.000 HD
BRANCH  22  24
ATOM     24  O   UNL     1       5.319   1.401  20.334  0.00  0.00    +0.000 OA
ATOM     25  H   UNL     1       6.107   1.089  19.837  0.00  0.00    +0.000 HD
ENDBRANCH  22  24
ENDBRANCH  19  20
ENDBRANCH   8  19
TORSDOF 7
ENDMDL
MODEL 4
REMARK VINA RESULT:      -6.5      2.591      4.607
REMARK  Name = 
REMARK  10 active torsions:
REMARK  status: ('A' for Active; 'I' for Inactive)
REMARK    1  A    between atoms: C_1  and  N_2
REMARK    2  A    between atoms: C_3  and  C_5
REMARK    3  A    between atoms: N_12  and  C_13
REMARK    4  A    between atoms: N_12  and  C_18
REMARK    5  A    between atoms: C_13  and  C_14
REMARK    6  A    between atoms: C_14  and  C_15
REMARK    7  A    between atoms: C_15  and  C_16
REMARK    8  A    between atoms: C_15  and  C_17
REMARK    9  A    between atoms: C_18  and  C_19
REMARK   10  A    between atoms: N_21  and  O_22
REMARK                            x       y       z     vdW  Elec       q    Type
REMARK                         _______ _______ _______ _____ _____    ______ ____
ROOT
ATOM      1  C   UNL     1       2.152   6.428  20.455  0.00  0.00    +0.000 C 
ATOM      2  C   UNL     1       0.958   7.297  20.908  0.00  0.00    +0.000 C 
ATOM      3  C   UNL     1       1.288   8.661  20.350  0.00  0.00    +0.000 C 
ATOM      4  C   UNL     1       1.909   8.339  19.001  0.00  0.00    +0.000 C 
ATOM      5  N   UNL     1       2.435   6.972  19.081  0.00  0.00    +0.000 N 
ATOM      6  C   UNL     1       3.417   6.666  18.126  0.00  0.00    +0.000 C 
ATOM      7  O   UNL     1       3.870   7.556  17.397  0.00  0.00    +0.000 OA
ATOM      8  N   UNL     1       3.807   5.341  17.929  0.00  0.00    +0.000 N 
ENDROOT
BRANCH   1  11
ATOM      9  C   UNL     1       2.453   2.826  21.705  0.00  0.00    +0.000 C 
ATOM     10  N   UNL     1       2.556   4.263  21.558  0.00  0.00    +0.000 N 
ATOM     11  C   UNL     1       1.685   4.974  20.751  0.00  0.00    +0.000 C 
ATOM     12  O   UNL     1       0.709   4.448  20.214  0.00  0.00    +0.000 OA
ATOM     13  H   UNL     1       3.261   4.750  22.100  0.00  0.00    +0.000 HD
ENDBRANCH   1  11
BRANCH   8  14
ATOM     14  C   UNL     1       4.720   5.006  16.824  0.00  0.00    +0.000 C 
BRANCH  14  15
ATOM     15  C   UNL     1       6.234   5.030  17.047  0.00  0.00    +0.000 C 
BRANCH  15  16
ATOM     16  C   UNL     1       6.753   6.031  18.093  0.00  0.00    +0.000 C 
ATOM     17  C   UNL     1       7.757   5.414  19.070  0.00  0.00    +0.000 C 
ATOM     18  C   UNL     1       7.409   7.211  17.368  0.00  0.00    +0.000 C 
ENDBRANCH  15  16
ENDBRANCH  14  15
ENDBRANCH   8  14
BRANCH   8  19
ATOM     19  C   UNL     1       2.876   4.272  18.242  0.00  0.00    +0.000 C 
BRANCH  19  20
ATOM     20  C   UNL     1       3.060   2.785  17.942  0.00  0.00    +0.000 C 
ATOM     21  O   UNL     1       2.410   2.119  17.139  0.00  0.00    +0.000 OA
ATOM     22  N   UNL     1       4.142   2.255  18.629  0.00  0.00    +0.000 N 
ATOM     23  H   UNL     1       4.497   2.674  19.492  0.00  0.00    +0.000 HD
BRANCH  22  24
ATOM     24  O   UNL     1       4.334   0.866  18.462  0.00  0.00    +0.000 OA
ATOM     25  H   UNL     1       4.438   0.560  19.390  0.00  0.00    +0.000 HD
ENDBRANCH  22  24
ENDBRANCH  19  20
ENDBRANCH   8  19
TORSDOF 7
ENDMDL
MODEL 5
REMARK VINA RESULT:      -6.5      1.685      3.724
REMARK  Name = 
REMARK  10 active torsions:
REMARK  status: ('A' for Active; 'I' for Inactive)
REMARK    1  A    between atoms: C_1  and  N_2
REMARK    2  A    between atoms: C_3  and  C_5
REMARK    3  A    between atoms: N_12  and  C_13
REMARK    4  A    between atoms: N_12  and  C_18
REMARK    5  A    between atoms: C_13  and  C_14
REMARK    6  A    between atoms: C_14  and  C_15
REMARK    7  A    between atoms: C_15  and  C_16
REMARK    8  A    between atoms: C_15  and  C_17
REMARK    9  A    between atoms: C_18  and  C_19
REMARK   10  A    between atoms: N_21  and  O_22
REMARK                            x       y       z     vdW  Elec       q    Type
REMARK                         _______ _______ _______ _____ _____    ______ ____
ROOT
ATOM      1  C   UNL     1       2.870   6.560  19.530  0.00  0.00    +0.000 C 
ATOM      2  C   UNL     1       1.580   7.408  19.512  0.00  0.00    +0.000 C 
ATOM      3  C   UNL     1       1.968   8.617  18.695  0.00  0.00    +0.000 C 
ATOM      4  C   UNL     1       2.862   8.030  17.616  0.00  0.00    +0.000 C 
ATOM      5  N   UNL     1       3.407   6.774  18.141  0.00  0.00    +0.000 N 
ATOM      6  C   UNL     1       4.574   6.328  17.499  0.00  0.00    +0.000 C 
ATOM      7  O   UNL     1       5.134   7.049  16.665  0.00  0.00    +0.000 OA
ATOM      8  N   UNL     1       5.041   5.033  17.725  0.00  0.00    +0.000 N 
ENDROOT
BRANCH   1  11
ATOM      9  C   UNL     1       0.709   3.414  19.783  0.00  0.00    +0.000 C 
ATOM     10  N   UNL     1       1.476   4.543  19.296  0.00  0.00    +0.000 N 
ATOM     11  C   UNL     1       2.403   5.187  20.096  0.00  0.00    +0.000 C 
ATOM     12  O   UNL     1       2.715   4.768  21.212  0.00  0.00    +0.000 OA
ATOM     13  H   UNL     1       1.348   4.827  18.332  0.00  0.00    +0.000 HD
ENDBRANCH   1  11
BRANCH   8  14
ATOM     14  C   UNL     1       6.172   4.518  16.935  0.00  0.00    +0.000 C 
BRANCH  14  15
ATOM     15  C   UNL     1       5.912   3.728  15.650  0.00  0.00    +0.000 C 
BRANCH  15  16
ATOM     16  C   UNL     1       5.969   4.526  14.337  0.00  0.00    +0.000 C 
ATOM     17  C   UNL     1       7.344   5.142  14.067  0.00  0.00    +0.000 C 
ATOM     18  C   UNL     1       5.591   3.599  13.176  0.00  0.00    +0.000 C 
ENDBRANCH  15  16
ENDBRANCH  14  15
ENDBRANCH   8  14
BRANCH   8  19
ATOM     19  C   UNL     1       4.104   3.998  18.121  0.00  0.00    +0.000 C 
BRANCH  19  20
ATOM     20  C   UNL     1       4.437   2.695  18.845  0.00  0.00    +0.000 C 
ATOM     21  O   UNL     1       4.901   2.590  19.979  0.00  0.00    +0.000 OA
ATOM     22  N   UNL     1       4.061   1.586  18.101  0.00  0.00    +0.000 N 
ATOM     23  H   UNL     1       3.963   1.622  17.085  0.00  0.00    +0.000 HD
BRANCH  22  24
ATOM     24  O   UNL     1       4.404   0.340  18.671  0.00  0.00    +0.000 OA
ATOM     25  H   UNL     1       4.137  -0.289  17.965  0.00  0.00    +0.000 HD
ENDBRANCH  22  24
ENDBRANCH  19  20
ENDBRANCH   8  19
TORSDOF 7
ENDMDL
MODEL 6
REMARK VINA RESULT:      -6.4      1.831      5.572
REMARK  Name = 
REMARK  10 active torsions:
REMARK  status: ('A' for Active; 'I' for Inactive)
REMARK    1  A    between atoms: C_1  and  N_2
REMARK    2  A    between atoms: C_3  and  C_5
REMARK    3  A    between atoms: N_12  and  C_13
REMARK    4  A    between atoms: N_12  and  C_18
REMARK    5  A    between atoms: C_13  and  C_14
REMARK    6  A    between atoms: C_14  and  C_15
REMARK    7  A    between atoms: C_15  and  C_16
REMARK    8  A    between atoms: C_15  and  C_17
REMARK    9  A    between atoms: C_18  and  C_19
REMARK   10  A    between atoms: N_21  and  O_22
REMARK                            x       y       z     vdW  Elec       q    Type
REMARK                         _______ _______ _______ _____ _____    ______ ____
ROOT
ATOM      1  C   UNL     1       6.136   4.657  17.134  0.00  0.00    +0.000 C 
ATOM      2  C   UNL     1       7.010   4.692  15.862  0.00  0.00    +0.000 C 
ATOM      3  C   UNL     1       6.409   3.613  14.994  0.00  0.00    +0.000 C 
ATOM      4  C   UNL     1       4.918   3.752  15.257  0.00  0.00    +0.000 C 
ATOM      5  N   UNL     1       4.767   4.390  16.569  0.00  0.00    +0.000 N 
ATOM      6  C   UNL     1       3.515   4.195  17.174  0.00  0.00    +0.000 C 
ATOM      7  O   UNL     1       2.697   3.419  16.666  0.00  0.00    +0.000 OA
ATOM      8  N   UNL     1       3.156   4.953  18.289  0.00  0.00    +0.000 N 
ENDROOT
BRANCH   1  11
ATOM      9  C   UNL     1       7.573   8.174  17.575  0.00  0.00    +0.000 C 
ATOM     10  N   UNL     1       6.894   7.000  17.067  0.00  0.00    +0.000 N 
ATOM     11  C   UNL     1       6.540   5.951  17.898  0.00  0.00    +0.000 C 
ATOM     12  O   UNL     1       6.671   6.008  19.122  0.00  0.00    +0.000 OA
ATOM     13  H   UNL     1       6.640   6.981  16.086  0.00  0.00    +0.000 HD
ENDBRANCH   1  11
BRANCH   8  14
ATOM     14  C   UNL     1       1.787   4.858  18.825  0.00  0.00    +0.000 C 
BRANCH  14  15
ATOM     15  C   UNL     1       1.565   4.647  20.324  0.00  0.00    +0.000 C 
BRANCH  15  16
ATOM     16  C   UNL     1       1.214   3.216  20.766  0.00  0.00    +0.000 C 
ATOM     17  C   UNL     1       1.019   2.254  19.591  0.00  0.00    +0.000 C 
ATOM     18  C   UNL     1       2.332   2.689  21.674  0.00  0.00    +0.000 C 
ENDBRANCH  15  16
ENDBRANCH  14  15
ENDBRANCH   8  14
BRANCH   8  19
ATOM     19  C   UNL     1       3.753   6.262  18.480  0.00  0.00    +0.000 C 
BRANCH  19  20
ATOM     20  C   UNL     1       3.454   7.527  17.676  0.00  0.00    +0.000 C 
ATOM     21  O   UNL     1       3.961   7.843  16.602  0.00  0.00    +0.000 OA
ATOM     22  N   UNL     1       2.441   8.275  18.257  0.00  0.00    +0.000 N 
ATOM     23  H   UNL     1       2.221   8.211  19.254  0.00  0.00    +0.000 HD
BRANCH  22  24
ATOM     24  O   UNL     1       2.158   9.499  17.613  0.00  0.00    +0.000 OA
ATOM     25  H   UNL     1       1.526   9.222  16.913  0.00  0.00    +0.000 HD
ENDBRANCH  22  24
ENDBRANCH  19  20
ENDBRANCH   8  19
TORSDOF 7
ENDMDL
MODEL 7
REMARK VINA RESULT:      -6.4      1.643      5.564
REMARK  Name = 
REMARK  10 active torsions:
REMARK  status: ('A' for Active; 'I' for Inactive)
REMARK    1  A    between atoms: C_1  and  N_2
REMARK    2  A    between atoms: C_3  and  C_5
REMARK    3  A    between atoms: N_12  and  C_13
REMARK    4  A    between atoms: N_12  and  C_18
REMARK    5  A    between atoms: C_13  and  C_14
REMARK    6  A    between atoms: C_14  and  C_15
REMARK    7  A    between atoms: C_15  and  C_16
REMARK    8  A    between atoms: C_15  and  C_17
REMARK    9  A    between atoms: C_18  and  C_19
REMARK   10  A    between atoms: N_21  and  O_22
REMARK                            x       y       z     vdW  Elec       q    Type
REMARK                         _______ _______ _______ _____ _____    ______ ____
ROOT
ATOM      1  C   UNL     1       6.926   4.644  16.545  0.00  0.00    +0.000 C 
ATOM      2  C   UNL     1       7.088   5.273  15.144  0.00  0.00    +0.000 C 
ATOM      3  C   UNL     1       6.479   4.241  14.225  0.00  0.00    +0.000 C 
ATOM      4  C   UNL     1       5.291   3.730  15.023  0.00  0.00    +0.000 C 
ATOM      5  N   UNL     1       5.579   3.982  16.439  0.00  0.00    +0.000 N 
ATOM      6  C   UNL     1       4.838   3.195  17.336  0.00  0.00    +0.000 C 
ATOM      7  O   UNL     1       4.124   2.280  16.911  0.00  0.00    +0.000 OA
ATOM      8  N   UNL     1       4.828   3.513  18.694  0.00  0.00    +0.000 N 
ENDROOT
BRANCH   1  11
ATOM      9  C   UNL     1       7.495   8.271  17.617  0.00  0.00    +0.000 C 
ATOM     10  N   UNL     1       6.986   7.065  16.997  0.00  0.00    +0.000 N 
ATOM     11  C   UNL     1       7.263   5.812  17.517  0.00  0.00    +0.000 C 
ATOM     12  O   UNL     1       7.848   5.659  18.590  0.00  0.00    +0.000 OA
ATOM     13  H   UNL     1       6.380   7.160  16.191  0.00  0.00    +0.000 HD
ENDBRANCH   1  11
BRANCH   8  14
ATOM     14  C   UNL     1       3.930   2.784  19.606  0.00  0.00    +0.000 C 
BRANCH  14  15
ATOM     15  C   UNL     1       2.438   2.672  19.286  0.00  0.00    +0.000 C 
BRANCH  15  16
ATOM     16  C   UNL     1       1.473   2.805  20.476  0.00  0.00    +0.000 C 
ATOM     17  C   UNL     1       2.187   2.818  21.830  0.00  0.00    +0.000 C 
ATOM     18  C   UNL     1       0.663   4.096  20.316  0.00  0.00    +0.000 C 
ENDBRANCH  15  16
ENDBRANCH  14  15
ENDBRANCH   8  14
BRANCH   8  19
ATOM     19  C   UNL     1       5.068   4.884  19.106  0.00  0.00    +0.000 C 
BRANCH  19  20
ATOM     20  C   UNL     1       4.092   6.054  18.990  0.00  0.00    +0.000 C 
ATOM     21  O   UNL     1       3.957   6.796  18.019  0.00  0.00    +0.000 OA
ATOM     22  N   UNL     1       3.270   6.147  20.104  0.00  0.00    +0.000 N 
ATOM     23  H   UNL     1       3.541   5.765  21.012  0.00  0.00    +0.000 HD
BRANCH  22  24
ATOM     24  O   UNL     1       2.389   7.251  20.106  0.00  0.00    +0.000 OA
ATOM     25  H   UNL     1       1.515   6.816  19.995  0.00  0.00    +0.000 HD
ENDBRANCH  22  24
ENDBRANCH  19  20
ENDBRANCH   8  19
TORSDOF 7
ENDMDL
MODEL 8
REMARK VINA RESULT:      -6.4      1.873      4.065
REMARK  Name = 
REMARK  10 active torsions:
REMARK  status: ('A' for Active; 'I' for Inactive)
REMARK    1  A    between atoms: C_1  and  N_2
REMARK    2  A    between atoms: C_3  and  C_5
REMARK    3  A    between atoms: N_12  and  C_13
REMARK    4  A    between atoms: N_12  and  C_18
REMARK    5  A    between atoms: C_13  and  C_14
REMARK    6  A    between atoms: C_14  and  C_15
REMARK    7  A    between atoms: C_15  and  C_16
REMARK    8  A    between atoms: C_15  and  C_17
REMARK    9  A    between atoms: C_18  and  C_19
REMARK   10  A    between atoms: N_21  and  O_22
REMARK                            x       y       z     vdW  Elec       q    Type
REMARK                         _______ _______ _______ _____ _____    ______ ____
ROOT
ATOM      1  C   UNL     1       2.220   6.203  20.423  0.00  0.00    +0.000 C 
ATOM      2  C   UNL     1       1.027   7.142  20.707  0.00  0.00    +0.000 C 
ATOM      3  C   UNL     1       1.485   8.468  20.148  0.00  0.00    +0.000 C 
ATOM      4  C   UNL     1       2.240   8.067  18.891  0.00  0.00    +0.000 C 
ATOM      5  N   UNL     1       2.684   6.681  19.075  0.00  0.00    +0.000 N 
ATOM      6  C   UNL     1       3.753   6.295  18.250  0.00  0.00    +0.000 C 
ATOM      7  O   UNL     1       4.329   7.136  17.550  0.00  0.00    +0.000 OA
ATOM      8  N   UNL     1       4.095   4.947  18.142  0.00  0.00    +0.000 N 
ENDROOT
BRANCH   1  11
ATOM      9  C   UNL     1       2.226   2.614  21.746  0.00  0.00    +0.000 C 
ATOM     10  N   UNL     1       2.422   4.041  21.585  0.00  0.00    +0.000 N 
ATOM     11  C   UNL     1       1.650   4.783  20.710  0.00  0.00    +0.000 C 
ATOM     12  O   UNL     1       0.683   4.303  20.115  0.00  0.00    +0.000 OA
ATOM     13  H   UNL     1       3.116   4.497  22.166  0.00  0.00    +0.000 HD
ENDBRANCH   1  11
BRANCH   8  14
ATOM     14  C   UNL     1       5.111   4.529  17.161  0.00  0.00    +0.000 C 
BRANCH  14  15
ATOM     15  C   UNL     1       4.759   4.467  15.673  0.00  0.00    +0.000 C 
BRANCH  15  16
ATOM     16  C   UNL     1       5.882   4.841  14.691  0.00  0.00    +0.000 C 
ATOM     17  C   UNL     1       7.258   4.927  15.355  0.00  0.00    +0.000 C 
ATOM     18  C   UNL     1       5.924   3.801  13.565  0.00  0.00    +0.000 C 
ENDBRANCH  15  16
ENDBRANCH  14  15
ENDBRANCH   8  14
BRANCH   8  19
ATOM     19  C   UNL     1       3.082   3.935  18.379  0.00  0.00    +0.000 C 
BRANCH  19  20
ATOM     20  C   UNL     1       3.224   2.431  18.148  0.00  0.00    +0.000 C 
ATOM     21  O   UNL     1       2.546   1.744  17.387  0.00  0.00    +0.000 OA
ATOM     22  N   UNL     1       4.304   1.906  18.843  0.00  0.00    +0.000 N 
ATOM     23  H   UNL     1       4.683   2.357  19.679  0.00  0.00    +0.000 HD
BRANCH  22  24
ATOM     24  O   UNL     1       4.458   0.506  18.739  0.00  0.00    +0.000 OA
ATOM     25  H   UNL     1       4.081   0.323  17.850  0.00  0.00    +0.000 HD
ENDBRANCH  22  24
ENDBRANCH  19  20
ENDBRANCH   8  19
TORSDOF 7
ENDMDL
MODEL 9
REMARK VINA RESULT:      -6.3      0.828      1.219
REMARK  Name = 
REMARK  10 active torsions:
REMARK  status: ('A' for Active; 'I' for Inactive)
REMARK    1  A    between atoms: C_1  and  N_2
REMARK    2  A    between atoms: C_3  and  C_5
REMARK    3  A    between atoms: N_12  and  C_13
REMARK    4  A    between atoms: N_12  and  C_18
REMARK    5  A    between atoms: C_13  and  C_14
REMARK    6  A    between atoms: C_14  and  C_15
REMARK    7  A    between atoms: C_15  and  C_16
REMARK    8  A    between atoms: C_15  and  C_17
REMARK    9  A    between atoms: C_18  and  C_19
REMARK   10  A    between atoms: N_21  and  O_22
REMARK                            x       y       z     vdW  Elec       q    Type
REMARK                         _______ _______ _______ _____ _____    ______ ____
ROOT
ATOM      1  C   UNL     1       1.930   4.713  18.990  0.00  0.00    +0.000 C 
ATOM      2  C   UNL     1       1.184   4.421  20.309  0.00  0.00    +0.000 C 
ATOM      3  C   UNL     1       0.978   2.926  20.272  0.00  0.00    +0.000 C 
ATOM      4  C   UNL     1       2.270   2.417  19.654  0.00  0.00    +0.000 C 
ATOM      5  N   UNL     1       2.839   3.521  18.872  0.00  0.00    +0.000 N 
ATOM      6  C   UNL     1       3.759   3.125  17.887  0.00  0.00    +0.000 C 
ATOM      7  O   UNL     1       3.927   1.925  17.643  0.00  0.00    +0.000 OA
ATOM      8  N   UNL     1       4.557   4.081  17.257  0.00  0.00    +0.000 N 
ENDROOT
BRANCH   1  11
ATOM      9  C   UNL     1       2.780   8.278  17.896  0.00  0.00    +0.000 C 
ATOM     10  N   UNL     1       2.155   6.981  18.056  0.00  0.00    +0.000 N 
ATOM     11  C   UNL     1       2.416   6.182  19.155  0.00  0.00    +0.000 C 
ATOM     12  O   UNL     1       3.092   6.574  20.108  0.00  0.00    +0.000 OA
ATOM     13  H   UNL     1       1.480   6.686  17.359  0.00  0.00    +0.000 HD
ENDBRANCH   1  11
BRANCH   8  14
ATOM     14  C   UNL     1       5.626   3.650  16.340  0.00  0.00    +0.000 C 
BRANCH  14  15
ATOM     15  C   UNL     1       5.317   3.414  14.860  0.00  0.00    +0.000 C 
BRANCH  15  16
ATOM     16  C   UNL     1       5.998   4.364  13.862  0.00  0.00    +0.000 C 
ATOM     17  C   UNL     1       7.269   5.011  14.419  0.00  0.00    +0.000 C 
ATOM     18  C   UNL     1       6.342   3.583  12.588  0.00  0.00    +0.000 C 
ENDBRANCH  15  16
ENDBRANCH  14  15
ENDBRANCH   8  14
BRANCH   8  19
ATOM     19  C   UNL     1       4.867   5.318  17.951  0.00  0.00    +0.000 C 
BRANCH  19  20
ATOM     20  C   UNL     1       6.165   5.650  18.686  0.00  0.00    +0.000 C 
ATOM     21  O   UNL     1       6.543   5.167  19.751  0.00  0.00    +0.000 OA
ATOM     22  N   UNL     1       6.957   6.523  17.955  0.00  0.00    +0.000 N 
ATOM     23  H   UNL     1       6.566   7.152  17.251  0.00  0.00    +0.000 HD
BRANCH  22  24
ATOM     24  O   UNL     1       8.143   6.937  18.601  0.00  0.00    +0.000 OA
ATOM     25  H   UNL     1       8.253   6.247  19.292  0.00  0.00    +0.000 HD
ENDBRANCH  22  24
ENDBRANCH  19  20
ENDBRANCH   8  19
TORSDOF 7
ENDMDL
