MODEL 1
REMARK VINA RESULT:      -7.7      0.000      0.000
REMARK  Name = 
REMARK  9 active torsions:
REMARK  status: ('A' for Active; 'I' for Inactive)
REMARK    1  A    between atoms: C_1  and  C_2
REMARK    2  A    between atoms: C_2  and  C_3
REMARK    3  A    between atoms: C_2  and  N_4
REMARK    4  A    between atoms: C_2  and  C_21
REMARK    5  A    between atoms: C_5  and  C_7
REMARK    6  A    between atoms: C_10  and  C_11
REMARK    7  A    between atoms: C_14  and  O_15
REMARK    8  A    between atoms: O_15  and  C_16
REMARK    9  A    between atoms: C_16  and  C_17
REMARK                            x       y       z     vdW  Elec       q    Type
REMARK                         _______ _______ _______ _____ _____    ______ ____
ROOT
ATOM      1  C   UNL     1       2.566   7.419  18.621  0.00  0.00    +0.000 A 
ATOM      2  C   UNL     1       2.239   6.701  19.757  0.00  0.00    +0.000 A 
ATOM      3  C   UNL     1       2.876   5.482  19.968  0.00  0.00    +0.000 A 
ATOM      4  C   UNL     1       3.830   4.984  19.059  0.00  0.00    +0.000 A 
ATOM      5  C   UNL     1       4.086   5.806  17.946  0.00  0.00    +0.000 A 
ATOM      6  N   UNL     1       3.476   6.999  17.710  0.00  0.00    +0.000 NA
ENDROOT
BRANCH   1   8
ATOM      7  N   UNL     1       1.042   9.182  19.355  0.00  0.00    +0.000 N 
ATOM      8  C   UNL     1       1.894   8.733  18.372  0.00  0.00    +0.000 C 
ATOM      9  O   UNL     1       2.118   9.343  17.328  0.00  0.00    +0.000 OA
ATOM     10  H   UNL     1       0.961   8.633  20.210  0.00  0.00    +0.000 HD
BRANCH   7  12
ATOM     11  C   UNL     1       1.222  11.614  19.007  0.00  0.00    +0.000 C 
ATOM     12  C   UNL     1       0.271  10.439  19.309  0.00  0.00    +0.000 C 
ATOM     13  C   UNL     1      -0.817  10.342  18.221  0.00  0.00    +0.000 C 
BRANCH  12  14
ATOM     14  C   UNL     1      -0.391  10.689  20.687  0.00  0.00    +0.000 A 
ATOM     15  C   UNL     1      -1.207  11.808  20.903  0.00  0.00    +0.000 A 
ATOM     16  C   UNL     1      -1.731  12.045  22.172  0.00  0.00    +0.000 A 
ATOM     17  C   UNL     1      -1.440  11.160  23.200  0.00  0.00    +0.000 A 
ATOM     18  C   UNL     1      -0.644  10.064  22.912  0.00  0.00    +0.000 A 
ATOM     19  N   UNL     1      -0.116   9.809  21.691  0.00  0.00    +0.000 NA
ENDBRANCH  12  14
ENDBRANCH   7  12
ENDBRANCH   1   8
BRANCH   4  20
ATOM     20  C   UNL     1       4.442   3.632  19.363  0.00  0.00    +0.000 C 
ATOM     21  C   UNL     1       3.810   2.545  20.188  0.00  0.00    +0.000 C 
ATOM     22  C   UNL     1       3.803   2.426  18.695  0.00  0.00    +0.000 C 
ENDBRANCH   4  20
BRANCH   5  23
ATOM     23  O   UNL     1       4.989   5.359  16.996  0.00  0.00    +0.000 OA
BRANCH  23  24
ATOM     24  C   UNL     1       5.789   6.426  16.468  0.00  0.00    +0.000 C 
BRANCH  24  25
ATOM     25  C   UNL     1       7.194   6.398  17.005  0.00  0.00    +0.000 C 
ATOM     26  C   UNL     1       7.800   7.582  17.713  0.00  0.00    +0.000 C 
ATOM     27  C   UNL     1       7.504   6.320  18.480  0.00  0.00    +0.000 C 
ENDBRANCH  24  25
ENDBRANCH  23  24
ENDBRANCH   5  23
TORSDOF 7
ENDMDL
MODEL 2
REMARK VINA RESULT:      -7.7      1.269      1.836
REMARK  Name = 
REMARK  9 active torsions:
REMARK  status: ('A' for Active; 'I' for Inactive)
REMARK    1  A    between atoms: C_1  and  C_2
REMARK    2  A    between atoms: C_2  and  C_3
REMARK    3  A    between atoms: C_2  and  N_4
REMARK    4  A    between atoms: C_2  and  C_21
REMARK    5  A    between atoms: C_5  and  C_7
REMARK    6  A    between atoms: C_10  and  C_11
REMARK    7  A    between atoms: C_14  and  O_15
REMARK    8  A    between atoms: O_15  and  C_16
REMARK    9  A    between atoms: C_16  and  C_17
REMARK                            x       y       z     vdW  Elec       q    Type
REMARK                         _______ _______ _______ _____ _____    ______ ____
ROOT
ATOM      1  C   UNL     1       2.639   7.506  18.594  0.00  0.00    +0.000 A 
ATOM      2  C   UNL     1       2.164   6.666  19.584  0.00  0.00    +0.000 A 
ATOM      3  C   UNL     1       2.828   5.462  19.796  0.00  0.00    +0.000 A 
ATOM      4  C   UNL     1       3.954   5.100  19.034  0.00  0.00    +0.000 A 
ATOM      5  C   UNL     1       4.351   6.038  18.064  0.00  0.00    +0.000 A 
ATOM      6  N   UNL     1       3.719   7.219  17.828  0.00  0.00    +0.000 NA
ENDROOT
BRANCH   1   8
ATOM      7  N   UNL     1       1.106   9.254  19.343  0.00  0.00    +0.000 N 
ATOM      8  C   UNL     1       1.942   8.807  18.345  0.00  0.00    +0.000 C 
ATOM      9  O   UNL     1       2.133   9.409  17.290  0.00  0.00    +0.000 OA
ATOM     10  H   UNL     1       1.052   8.714  20.205  0.00  0.00    +0.000 HD
BRANCH   7  12
ATOM     11  C   UNL     1       1.235  11.680  18.932  0.00  0.00    +0.000 C 
ATOM     12  C   UNL     1       0.315  10.499  19.300  0.00  0.00    +0.000 C 
ATOM     13  C   UNL     1      -0.817  10.362  18.261  0.00  0.00    +0.000 C 
BRANCH  12  14
ATOM     14  C   UNL     1      -0.293  10.772  20.699  0.00  0.00    +0.000 A 
ATOM     15  C   UNL     1      -0.061   9.897  21.769  0.00  0.00    +0.000 A 
ATOM     16  C   UNL     1      -0.677  10.131  22.997  0.00  0.00    +0.000 A 
ATOM     17  C   UNL     1      -1.507  11.235  23.138  0.00  0.00    +0.000 A 
ATOM     18  C   UNL     1      -1.675  12.068  22.045  0.00  0.00    +0.000 A 
ATOM     19  N   UNL     1      -1.094  11.866  20.839  0.00  0.00    +0.000 NA
ENDBRANCH  12  14
ENDBRANCH   7  12
ENDBRANCH   1   8
BRANCH   4  20
ATOM     20  C   UNL     1       4.586   3.753  19.322  0.00  0.00    +0.000 C 
ATOM     21  C   UNL     1       3.924   2.603  20.031  0.00  0.00    +0.000 C 
ATOM     22  C   UNL     1       4.052   2.565  18.539  0.00  0.00    +0.000 C 
ENDBRANCH   4  20
BRANCH   5  23
ATOM     23  O   UNL     1       5.432   5.727  17.256  0.00  0.00    +0.000 OA
BRANCH  23  24
ATOM     24  C   UNL     1       5.032   5.422  15.913  0.00  0.00    +0.000 C 
BRANCH  24  25
ATOM     25  C   UNL     1       5.931   4.399  15.274  0.00  0.00    +0.000 C 
ATOM     26  C   UNL     1       5.740   3.952  13.848  0.00  0.00    +0.000 C 
ATOM     27  C   UNL     1       6.957   4.754  14.227  0.00  0.00    +0.000 C 
ENDBRANCH  24  25
ENDBRANCH  23  24
ENDBRANCH   5  23
TORSDOF 7
ENDMDL
MODEL 3
REMARK VINA RESULT:      -7.6      0.606      1.078
REMARK  Name = 
REMARK  9 active torsions:
REMARK  status: ('A' for Active; 'I' for Inactive)
REMARK    1  A    between atoms: C_1  and  C_2
REMARK    2  A    between atoms: C_2  and  C_3
REMARK    3  A    between atoms: C_2  and  N_4
REMARK    4  A    between atoms: C_2  and  C_21
REMARK    5  A    between atoms: C_5  and  C_7
REMARK    6  A    between atoms: C_10  and  C_11
REMARK    7  A    between atoms: C_14  and  O_15
REMARK    8  A    between atoms: O_15  and  C_16
REMARK    9  A    between atoms: C_16  and  C_17
REMARK                            x       y       z     vdW  Elec       q    Type
REMARK                         _______ _______ _______ _____ _____    ______ ____
ROOT
ATOM      1  C   UNL     1       2.649   7.308  18.501  0.00  0.00    +0.000 A 
ATOM      2  C   UNL     1       2.357   6.581  19.641  0.00  0.00    +0.000 A 
ATOM      3  C   UNL     1       2.986   5.353  19.813  0.00  0.00    +0.000 A 
ATOM      4  C   UNL     1       3.898   4.854  18.862  0.00  0.00    +0.000 A 
ATOM      5  C   UNL     1       4.122   5.686  17.750  0.00  0.00    +0.000 A 
ATOM      6  N   UNL     1       3.518   6.888  17.551  0.00  0.00    +0.000 NA
ENDROOT
BRANCH   1   8
ATOM      7  N   UNL     1       1.226   9.110  19.338  0.00  0.00    +0.000 N 
ATOM      8  C   UNL     1       1.984   8.634  18.293  0.00  0.00    +0.000 C 
ATOM      9  O   UNL     1       2.133   9.228  17.226  0.00  0.00    +0.000 OA
ATOM     10  H   UNL     1       1.205   8.571  20.203  0.00  0.00    +0.000 HD
BRANCH   7  12
ATOM     11  C   UNL     1       1.443  11.545  19.036  0.00  0.00    +0.000 C 
ATOM     12  C   UNL     1       0.479  10.382  19.340  0.00  0.00    +0.000 C 
ATOM     13  C   UNL     1      -0.642  10.329  18.283  0.00  0.00    +0.000 C 
BRANCH  12  14
ATOM     14  C   UNL     1      -0.138  10.615  20.743  0.00  0.00    +0.000 A 
ATOM     15  C   UNL     1       0.004   9.661  21.760  0.00  0.00    +0.000 A 
ATOM     16  C   UNL     1      -0.621   9.865  22.989  0.00  0.00    +0.000 A 
ATOM     17  C   UNL     1      -1.369  11.018  23.184  0.00  0.00    +0.000 A 
ATOM     18  C   UNL     1      -1.450  11.928  22.143  0.00  0.00    +0.000 A 
ATOM     19  N   UNL     1      -0.858  11.755  20.937  0.00  0.00    +0.000 NA
ENDBRANCH  12  14
ENDBRANCH   7  12
ENDBRANCH   1   8
BRANCH   4  20
ATOM     20  C   UNL     1       4.505   3.491  19.127  0.00  0.00    +0.000 C 
ATOM     21  C   UNL     1       4.055   2.517  20.181  0.00  0.00    +0.000 C 
ATOM     22  C   UNL     1       3.661   2.283  18.756  0.00  0.00    +0.000 C 
ENDBRANCH   4  20
BRANCH   5  23
ATOM     23  O   UNL     1       4.982   5.239  16.760  0.00  0.00    +0.000 OA
BRANCH  23  24
ATOM     24  C   UNL     1       6.082   6.137  16.556  0.00  0.00    +0.000 C 
BRANCH  24  25
ATOM     25  C   UNL     1       6.642   6.649  17.855  0.00  0.00    +0.000 C 
ATOM     26  C   UNL     1       7.715   5.906  18.607  0.00  0.00    +0.000 C 
ATOM     27  C   UNL     1       8.026   7.236  17.973  0.00  0.00    +0.000 C 
ENDBRANCH  24  25
ENDBRANCH  23  24
ENDBRANCH   5  23
TORSDOF 7
ENDMDL
MODEL 4
REMARK VINA RESULT:      -7.5      2.446      4.547
REMARK  Name = 
REMARK  9 active torsions:
REMARK  status: ('A' for Active; 'I' for Inactive)
REMARK    1  A    between atoms: C_1  and  C_2
REMARK    2  A    between atoms: C_2  and  C_3
REMARK    3  A    between atoms: C_2  and  N_4
REMARK    4  A    between atoms: C_2  and  C_21
REMARK    5  A    between atoms: C_5  and  C_7
REMARK    6  A    between atoms: C_10  and  C_11
REMARK    7  A    between atoms: C_14  and  O_15
REMARK    8  A    between atoms: O_15  and  C_16
REMARK    9  A    between atoms: C_16  and  C_17
REMARK                            x       y       z     vdW  Elec       q    Type
REMARK                         _______ _______ _______ _____ _____    ______ ____
ROOT
ATOM      1  C   UNL     1       1.539   8.924  19.182  0.00  0.00    +0.000 A 
ATOM      2  C   UNL     1       2.147   8.899  17.940  0.00  0.00    +0.000 A 
ATOM      3  C   UNL     1       2.835   7.748  17.570  0.00  0.00    +0.000 A 
ATOM      4  C   UNL     1       2.915   6.632  18.426  0.00  0.00    +0.000 A 
ATOM      5  C   UNL     1       2.250   6.770  19.658  0.00  0.00    +0.000 A 
ATOM      6  N   UNL     1       1.575   7.885  20.050  0.00  0.00    +0.000 NA
ENDROOT
BRANCH   1   8
ATOM      7  N   UNL     1      -0.210  10.578  18.762  0.00  0.00    +0.000 N 
ATOM      8  C   UNL     1       0.793  10.151  19.603  0.00  0.00    +0.000 C 
ATOM      9  O   UNL     1       1.097  10.718  20.651  0.00  0.00    +0.000 OA
ATOM     10  H   UNL     1      -0.425  10.012  17.942  0.00  0.00    +0.000 HD
BRANCH   7  12
ATOM     11  C   UNL     1      -1.448  11.855  20.467  0.00  0.00    +0.000 C 
ATOM     12  C   UNL     1      -1.057  11.765  18.978  0.00  0.00    +0.000 C 
ATOM     13  C   UNL     1      -0.293  13.035  18.552  0.00  0.00    +0.000 C 
BRANCH  12  14
ATOM     14  C   UNL     1      -2.355  11.632  18.141  0.00  0.00    +0.000 A 
ATOM     15  C   UNL     1      -3.611  11.861  18.718  0.00  0.00    +0.000 A 
ATOM     16  C   UNL     1      -4.764  11.665  17.960  0.00  0.00    +0.000 A 
ATOM     17  C   UNL     1      -4.644  11.252  16.640  0.00  0.00    +0.000 A 
ATOM     18  C   UNL     1      -3.371  11.064  16.129  0.00  0.00    +0.000 A 
ATOM     19  N   UNL     1      -2.233  11.242  16.841  0.00  0.00    +0.000 NA
ENDBRANCH  12  14
ENDBRANCH   7  12
ENDBRANCH   1   8
BRANCH   4  20
ATOM     20  C   UNL     1       3.715   5.440  17.942  0.00  0.00    +0.000 C 
ATOM     21  C   UNL     1       4.857   5.483  16.964  0.00  0.00    +0.000 C 
ATOM     22  C   UNL     1       5.152   5.339  18.425  0.00  0.00    +0.000 C 
ENDBRANCH   4  20
BRANCH   5  23
ATOM     23  O   UNL     1       2.318   5.722  20.560  0.00  0.00    +0.000 OA
BRANCH  23  24
ATOM     24  C   UNL     1       1.143   4.902  20.524  0.00  0.00    +0.000 C 
BRANCH  24  25
ATOM     25  C   UNL     1       1.477   3.437  20.454  0.00  0.00    +0.000 C 
ATOM     26  C   UNL     1       2.848   2.916  20.802  0.00  0.00    +0.000 C 
ATOM     27  C   UNL     1       1.672   2.584  21.683  0.00  0.00    +0.000 C 
ENDBRANCH  24  25
ENDBRANCH  23  24
ENDBRANCH   5  23
TORSDOF 7
ENDMDL
MODEL 5
REMARK VINA RESULT:      -7.5      1.951      4.192
REMARK  Name = 
REMARK  9 active torsions:
REMARK  status: ('A' for Active; 'I' for Inactive)
REMARK    1  A    between atoms: C_1  and  C_2
REMARK    2  A    between atoms: C_2  and  C_3
REMARK    3  A    between atoms: C_2  and  N_4
REMARK    4  A    between atoms: C_2  and  C_21
REMARK    5  A    between atoms: C_5  and  C_7
REMARK    6  A    between atoms: C_10  and  C_11
REMARK    7  A    between atoms: C_14  and  O_15
REMARK    8  A    between atoms: O_15  and  C_16
REMARK    9  A    between atoms: C_16  and  C_17
REMARK                            x       y       z     vdW  Elec       q    Type
REMARK                         _______ _______ _______ _____ _____    ______ ____
ROOT
ATOM      1  C   UNL     1       2.550   7.291  19.086  0.00  0.00    +0.000 A 
ATOM      2  C   UNL     1       3.080   7.776  17.904  0.00  0.00    +0.000 A 
ATOM      3  C   UNL     1       3.878   6.926  17.146  0.00  0.00    +0.000 A 
ATOM      4  C   UNL     1       4.145   5.606  17.559  0.00  0.00    +0.000 A 
ATOM      5  C   UNL     1       3.544   5.222  18.771  0.00  0.00    +0.000 A 
ATOM      6  N   UNL     1       2.764   6.032  19.537  0.00  0.00    +0.000 NA
ENDROOT
BRANCH   1   8
ATOM      7  N   UNL     1       1.095   9.245  19.269  0.00  0.00    +0.000 N 
ATOM      8  C   UNL     1       1.688   8.187  19.919  0.00  0.00    +0.000 C 
ATOM      9  O   UNL     1       1.548   7.953  21.119  0.00  0.00    +0.000 OA
ATOM     10  H   UNL     1       1.226   9.327  18.262  0.00  0.00    +0.000 HD
BRANCH   7  12
ATOM     11  C   UNL     1      -0.318   9.703  21.236  0.00  0.00    +0.000 C 
ATOM     12  C   UNL     1       0.221  10.252  19.900  0.00  0.00    +0.000 C 
ATOM     13  C   UNL     1       1.013  11.553  20.140  0.00  0.00    +0.000 C 
BRANCH  12  14
ATOM     14  C   UNL     1      -0.986  10.541  18.971  0.00  0.00    +0.000 A 
ATOM     15  C   UNL     1      -1.104   9.911  17.724  0.00  0.00    +0.000 A 
ATOM     16  C   UNL     1      -2.162  10.243  16.880  0.00  0.00    +0.000 A 
ATOM     17  C   UNL     1      -3.086  11.191  17.296  0.00  0.00    +0.000 A 
ATOM     18  C   UNL     1      -2.920  11.760  18.548  0.00  0.00    +0.000 A 
ATOM     19  N   UNL     1      -1.901  11.461  19.388  0.00  0.00    +0.000 NA
ENDBRANCH  12  14
ENDBRANCH   7  12
ENDBRANCH   1   8
BRANCH   4  20
ATOM     20  C   UNL     1       5.052   4.772  16.678  0.00  0.00    +0.000 C 
ATOM     21  C   UNL     1       6.036   5.304  15.672  0.00  0.00    +0.000 C 
ATOM     22  C   UNL     1       6.538   4.812  16.994  0.00  0.00    +0.000 C 
ENDBRANCH   4  20
BRANCH   5  23
ATOM     23  O   UNL     1       3.794   3.947  19.251  0.00  0.00    +0.000 OA
BRANCH  23  24
ATOM     24  C   UNL     1       2.771   3.017  18.868  0.00  0.00    +0.000 C 
BRANCH  24  25
ATOM     25  C   UNL     1       2.093   2.400  20.060  0.00  0.00    +0.000 C 
ATOM     26  C   UNL     1       2.378   2.862  21.466  0.00  0.00    +0.000 C 
ATOM     27  C   UNL     1       1.025   3.113  20.852  0.00  0.00    +0.000 C 
ENDBRANCH  24  25
ENDBRANCH  23  24
ENDBRANCH   5  23
TORSDOF 7
ENDMDL
MODEL 6
REMARK VINA RESULT:      -7.4      2.289      4.382
REMARK  Name = 
REMARK  9 active torsions:
REMARK  status: ('A' for Active; 'I' for Inactive)
REMARK    1  A    between atoms: C_1  and  C_2
REMARK    2  A    between atoms: C_2  and  C_3
REMARK    3  A    between atoms: C_2  and  N_4
REMARK    4  A    between atoms: C_2  and  C_21
REMARK    5  A    between atoms: C_5  and  C_7
REMARK    6  A    between atoms: C_10  and  C_11
REMARK    7  A    between atoms: C_14  and  O_15
REMARK    8  A    between atoms: O_15  and  C_16
REMARK    9  A    between atoms: C_16  and  C_17
REMARK                            x       y       z     vdW  Elec       q    Type
REMARK                         _______ _______ _______ _____ _____    ______ ____
ROOT
ATOM      1  C   UNL     1       1.971   8.042  19.300  0.00  0.00    +0.000 A 
ATOM      2  C   UNL     1       2.662   8.155  18.108  0.00  0.00    +0.000 A 
ATOM      3  C   UNL     1       3.412   7.064  17.679  0.00  0.00    +0.000 A 
ATOM      4  C   UNL     1       3.470   5.873  18.427  0.00  0.00    +0.000 A 
ATOM      5  C   UNL     1       2.719   5.872  19.616  0.00  0.00    +0.000 A 
ATOM      6  N   UNL     1       1.981   6.923  20.064  0.00  0.00    +0.000 NA
ENDROOT
BRANCH   1   8
ATOM      7  N   UNL     1       0.370   9.830  18.845  0.00  0.00    +0.000 N 
ATOM      8  C   UNL     1       1.157   9.201  19.783  0.00  0.00    +0.000 C 
ATOM      9  O   UNL     1       1.223   9.542  20.963  0.00  0.00    +0.000 OA
ATOM     10  H   UNL     1       0.339   9.443  17.903  0.00  0.00    +0.000 HD
BRANCH   7  12
ATOM     11  C   UNL     1      -0.908  11.014  20.589  0.00  0.00    +0.000 C 
ATOM     12  C   UNL     1      -0.497  10.996  19.103  0.00  0.00    +0.000 C 
ATOM     13  C   UNL     1       0.253  12.294  18.742  0.00  0.00    +0.000 C 
BRANCH  12  14
ATOM     14  C   UNL     1      -1.782  10.882  18.244  0.00  0.00    +0.000 A 
ATOM     15  C   UNL     1      -1.837  10.022  17.138  0.00  0.00    +0.000 A 
ATOM     16  C   UNL     1      -2.981   9.992  16.343  0.00  0.00    +0.000 A 
ATOM     17  C   UNL     1      -4.052  10.814  16.668  0.00  0.00    +0.000 A 
ATOM     18  C   UNL     1      -3.937  11.623  17.785  0.00  0.00    +0.000 A 
ATOM     19  N   UNL     1      -2.838  11.678  18.574  0.00  0.00    +0.000 NA
ENDBRANCH  12  14
ENDBRANCH   7  12
ENDBRANCH   1   8
BRANCH   4  20
ATOM     20  C   UNL     1       4.341   4.755  17.889  0.00  0.00    +0.000 C 
ATOM     21  C   UNL     1       5.552   4.926  17.014  0.00  0.00    +0.000 C 
ATOM     22  C   UNL     1       5.740   4.638  18.471  0.00  0.00    +0.000 C 
ENDBRANCH   4  20
BRANCH   5  23
ATOM     23  O   UNL     1       2.760   4.742  20.416  0.00  0.00    +0.000 OA
BRANCH  23  24
ATOM     24  C   UNL     1       1.448   4.291  20.780  0.00  0.00    +0.000 C 
BRANCH  24  25
ATOM     25  C   UNL     1       1.083   3.003  20.095  0.00  0.00    +0.000 C 
ATOM     26  C   UNL     1       1.032   2.886  18.594  0.00  0.00    +0.000 C 
ATOM     27  C   UNL     1       2.092   2.149  19.369  0.00  0.00    +0.000 C 
ENDBRANCH  24  25
ENDBRANCH  23  24
ENDBRANCH   5  23
TORSDOF 7
ENDMDL
MODEL 7
REMARK VINA RESULT:      -7.3      1.808      2.931
REMARK  Name = 
REMARK  9 active torsions:
REMARK  status: ('A' for Active; 'I' for Inactive)
REMARK    1  A    between atoms: C_1  and  C_2
REMARK    2  A    between atoms: C_2  and  C_3
REMARK    3  A    between atoms: C_2  and  N_4
REMARK    4  A    between atoms: C_2  and  C_21
REMARK    5  A    between atoms: C_5  and  C_7
REMARK    6  A    between atoms: C_10  and  C_11
REMARK    7  A    between atoms: C_14  and  O_15
REMARK    8  A    between atoms: O_15  and  C_16
REMARK    9  A    between atoms: C_16  and  C_17
REMARK                            x       y       z     vdW  Elec       q    Type
REMARK                         _______ _______ _______ _____ _____    ______ ____
ROOT
ATOM      1  C   UNL     1       1.955   7.042  20.033  0.00  0.00    +0.000 A 
ATOM      2  C   UNL     1       1.686   5.895  20.758  0.00  0.00    +0.000 A 
ATOM      3  C   UNL     1       2.175   4.686  20.276  0.00  0.00    +0.000 A 
ATOM      4  C   UNL     1       2.925   4.618  19.087  0.00  0.00    +0.000 A 
ATOM      5  C   UNL     1       3.142   5.849  18.442  0.00  0.00    +0.000 A 
ATOM      6  N   UNL     1       2.673   7.046  18.885  0.00  0.00    +0.000 NA
ENDROOT
BRANCH   1   8
ATOM      7  N   UNL     1       0.710   9.107  19.637  0.00  0.00    +0.000 N 
ATOM      8  C   UNL     1       1.439   8.356  20.531  0.00  0.00    +0.000 C 
ATOM      9  O   UNL     1       1.682   8.708  21.685  0.00  0.00    +0.000 OA
ATOM     10  H   UNL     1       0.515   8.709  18.719  0.00  0.00    +0.000 HD
BRANCH   7  12
ATOM     11  C   UNL     1      -0.386  10.474  21.369  0.00  0.00    +0.000 C 
ATOM     12  C   UNL     1       0.123  10.431  19.914  0.00  0.00    +0.000 C 
ATOM     13  C   UNL     1       1.182  11.529  19.688  0.00  0.00    +0.000 C 
BRANCH  12  14
ATOM     14  C   UNL     1      -1.082  10.669  18.969  0.00  0.00    +0.000 A 
ATOM     15  C   UNL     1      -1.169  10.015  17.733  0.00  0.00    +0.000 A 
ATOM     16  C   UNL     1      -2.228  10.301  16.874  0.00  0.00    +0.000 A 
ATOM     17  C   UNL     1      -3.185  11.227  17.265  0.00  0.00    +0.000 A 
ATOM     18  C   UNL     1      -3.048  11.820  18.509  0.00  0.00    +0.000 A 
ATOM     19  N   UNL     1      -2.029  11.567  19.363  0.00  0.00    +0.000 NA
ENDBRANCH  12  14
ENDBRANCH   7  12
ENDBRANCH   1   8
BRANCH   4  20
ATOM     20  C   UNL     1       3.384   3.248  18.630  0.00  0.00    +0.000 C 
ATOM     21  C   UNL     1       2.663   1.951  18.873  0.00  0.00    +0.000 C 
ATOM     22  C   UNL     1       2.578   2.591  17.522  0.00  0.00    +0.000 C 
ENDBRANCH   4  20
BRANCH   5  23
ATOM     23  O   UNL     1       3.845   5.848  17.248  0.00  0.00    +0.000 OA
BRANCH  23  24
ATOM     24  C   UNL     1       5.242   6.105  17.444  0.00  0.00    +0.000 C 
BRANCH  24  25
ATOM     25  C   UNL     1       6.099   4.964  16.971  0.00  0.00    +0.000 C 
ATOM     26  C   UNL     1       5.686   4.081  15.822  0.00  0.00    +0.000 C 
ATOM     27  C   UNL     1       6.869   5.002  15.675  0.00  0.00    +0.000 C 
ENDBRANCH  24  25
ENDBRANCH  23  24
ENDBRANCH   5  23
TORSDOF 7
ENDMDL
MODEL 8
REMARK VINA RESULT:      -7.3      1.997      4.231
REMARK  Name = 
REMARK  9 active torsions:
REMARK  status: ('A' for Active; 'I' for Inactive)
REMARK    1  A    between atoms: C_1  and  C_2
REMARK    2  A    between atoms: C_2  and  C_3
REMARK    3  A    between atoms: C_2  and  N_4
REMARK    4  A    between atoms: C_2  and  C_21
REMARK    5  A    between atoms: C_5  and  C_7
REMARK    6  A    between atoms: C_10  and  C_11
REMARK    7  A    between atoms: C_14  and  O_15
REMARK    8  A    between atoms: O_15  and  C_16
REMARK    9  A    between atoms: C_16  and  C_17
REMARK                            x       y       z     vdW  Elec       q    Type
REMARK                         _______ _______ _______ _____ _____    ______ ____
ROOT
ATOM      1  C   UNL     1       2.677   7.224  18.681  0.00  0.00    +0.000 A 
ATOM      2  C   UNL     1       3.419   7.788  17.660  0.00  0.00    +0.000 A 
ATOM      3  C   UNL     1       4.194   6.944  16.871  0.00  0.00    +0.000 A 
ATOM      4  C   UNL     1       4.228   5.555  17.094  0.00  0.00    +0.000 A 
ATOM      5  C   UNL     1       3.425   5.096  18.154  0.00  0.00    +0.000 A 
ATOM      6  N   UNL     1       2.662   5.896  18.946  0.00  0.00    +0.000 NA
ENDROOT
BRANCH   1   8
ATOM      7  N   UNL     1       1.257   9.197  18.928  0.00  0.00    +0.000 N 
ATOM      8  C   UNL     1       1.835   8.111  19.545  0.00  0.00    +0.000 C 
ATOM      9  O   UNL     1       1.699   7.847  20.739  0.00  0.00    +0.000 OA
ATOM     10  H   UNL     1       1.383   9.305  17.923  0.00  0.00    +0.000 HD
BRANCH   7  12
ATOM     11  C   UNL     1      -0.078   9.651  20.949  0.00  0.00    +0.000 C 
ATOM     12  C   UNL     1       0.404  10.201  19.592  0.00  0.00    +0.000 C 
ATOM     13  C   UNL     1       1.200  11.506  19.800  0.00  0.00    +0.000 C 
BRANCH  12  14
ATOM     14  C   UNL     1      -0.839  10.485  18.711  0.00  0.00    +0.000 A 
ATOM     15  C   UNL     1      -1.827  11.387  19.128  0.00  0.00    +0.000 A 
ATOM     16  C   UNL     1      -2.968  11.569  18.349  0.00  0.00    +0.000 A 
ATOM     17  C   UNL     1      -3.101  10.854  17.166  0.00  0.00    +0.000 A 
ATOM     18  C   UNL     1      -2.077   9.994  16.806  0.00  0.00    +0.000 A 
ATOM     19  N   UNL     1      -0.959   9.793  17.543  0.00  0.00    +0.000 NA
ENDBRANCH  12  14
ENDBRANCH   7  12
ENDBRANCH   1   8
BRANCH   4  20
ATOM     20  C   UNL     1       5.128   4.727  16.199  0.00  0.00    +0.000 C 
ATOM     21  C   UNL     1       6.239   5.258  15.335  0.00  0.00    +0.000 C 
ATOM     22  C   UNL     1       6.579   4.588  16.629  0.00  0.00    +0.000 C 
ENDBRANCH   4  20
BRANCH   5  23
ATOM     23  O   UNL     1       3.439   3.743  18.448  0.00  0.00    +0.000 OA
BRANCH  23  24
ATOM     24  C   UNL     1       3.417   3.499  19.862  0.00  0.00    +0.000 C 
BRANCH  24  25
ATOM     25  C   UNL     1       2.237   2.663  20.273  0.00  0.00    +0.000 C 
ATOM     26  C   UNL     1       1.760   2.607  21.701  0.00  0.00    +0.000 C 
ATOM     27  C   UNL     1       0.904   3.261  20.649  0.00  0.00    +0.000 C 
ENDBRANCH  24  25
ENDBRANCH  23  24
ENDBRANCH   5  23
TORSDOF 7
ENDMDL
MODEL 9
REMARK VINA RESULT:      -7.2      2.095      8.198
REMARK  Name = 
REMARK  9 active torsions:
REMARK  status: ('A' for Active; 'I' for Inactive)
REMARK    1  A    between atoms: C_1  and  C_2
REMARK    2  A    between atoms: C_2  and  C_3
REMARK    3  A    between atoms: C_2  and  N_4
REMARK    4  A    between atoms: C_2  and  C_21
REMARK    5  A    between atoms: C_5  and  C_7
REMARK    6  A    between atoms: C_10  and  C_11
REMARK    7  A    between atoms: C_14  and  O_15
REMARK    8  A    between atoms: O_15  and  C_16
REMARK    9  A    between atoms: C_16  and  C_17
REMARK                            x       y       z     vdW  Elec       q    Type
REMARK                         _______ _______ _______ _____ _____    ______ ____
ROOT
ATOM      1  C   UNL     1       1.752   8.336  19.587  0.00  0.00    +0.000 A 
ATOM      2  C   UNL     1       1.477   8.933  18.370  0.00  0.00    +0.000 A 
ATOM      3  C   UNL     1       0.863  10.181  18.376  0.00  0.00    +0.000 A 
ATOM      4  C   UNL     1       0.528  10.829  19.580  0.00  0.00    +0.000 A 
ATOM      5  C   UNL     1       0.864  10.130  20.753  0.00  0.00    +0.000 A 
ATOM      6  N   UNL     1       1.459   8.907  20.780  0.00  0.00    +0.000 NA
ENDROOT
BRANCH   1   8
ATOM      7  N   UNL     1       3.214   6.688  18.531  0.00  0.00    +0.000 N 
ATOM      8  C   UNL     1       2.412   6.992  19.607  0.00  0.00    +0.000 C 
ATOM      9  O   UNL     1       2.216   6.232  20.554  0.00  0.00    +0.000 OA
ATOM     10  H   UNL     1       3.358   7.403  17.819  0.00  0.00    +0.000 HD
BRANCH   7  12
ATOM     11  C   UNL     1       4.398   5.300  16.874  0.00  0.00    +0.000 C 
ATOM     12  C   UNL     1       3.946   5.421  18.343  0.00  0.00    +0.000 C 
ATOM     13  C   UNL     1       5.168   5.381  19.282  0.00  0.00    +0.000 C 
BRANCH  12  14
ATOM     14  C   UNL     1       3.005   4.231  18.662  0.00  0.00    +0.000 A 
ATOM     15  C   UNL     1       1.829   4.024  17.928  0.00  0.00    +0.000 A 
ATOM     16  C   UNL     1       0.968   2.988  18.283  0.00  0.00    +0.000 A 
ATOM     17  C   UNL     1       1.297   2.172  19.357  0.00  0.00    +0.000 A 
ATOM     18  C   UNL     1       2.485   2.421  20.025  0.00  0.00    +0.000 A 
ATOM     19  N   UNL     1       3.340   3.422  19.707  0.00  0.00    +0.000 NA
ENDBRANCH  12  14
ENDBRANCH   7  12
ENDBRANCH   1   8
BRANCH   4  20
ATOM     20  C   UNL     1      -0.168  12.171  19.478  0.00  0.00    +0.000 C 
ATOM     21  C   UNL     1      -0.646  12.821  18.208  0.00  0.00    +0.000 C 
ATOM     22  C   UNL     1      -1.641  12.152  19.105  0.00  0.00    +0.000 C 
ENDBRANCH   4  20
BRANCH   5  23
ATOM     23  O   UNL     1       0.530  10.697  21.972  0.00  0.00    +0.000 OA
BRANCH  23  24
ATOM     24  C   UNL     1      -0.736  10.227  22.457  0.00  0.00    +0.000 C 
BRANCH  24  25
ATOM     25  C   UNL     1      -1.468  11.283  23.239  0.00  0.00    +0.000 C 
ATOM     26  C   UNL     1      -1.236  12.753  23.004  0.00  0.00    +0.000 C 
ATOM     27  C   UNL     1      -2.560  12.134  22.640  0.00  0.00    +0.000 C 
ENDBRANCH  24  25
ENDBRANCH  23  24
ENDBRANCH   5  23
TORSDOF 7
ENDMDL
