MODEL 1
REMARK VINA RESULT:      -7.4      0.000      0.000
REMARK  Name = 
REMARK  8 active torsions:
REMARK  status: ('A' for Active; 'I' for Inactive)
REMARK    1  A    between atoms: C_2  and  C_3
REMARK    2  A    between atoms: C_4  and  C_5
REMARK    3  A    between atoms: N_12  and  C_13
REMARK    4  A    between atoms: C_13  and  C_14
REMARK    5  A    between atoms: C_14  and  C_15
REMARK    6  A    between atoms: C_15  and  C_16
REMARK    7  A    between atoms: C_19  and  N_20
REMARK    8  A    between atoms: N_20  and  C_21
REMARK                            x       y       z     vdW  Elec       q    Type
REMARK                         _______ _______ _______ _____ _____    ______ ____
ROOT
ATOM      1  C   UNL     1       5.578   4.925  17.464  0.00  0.00    +0.000 A 
ATOM      2  C   UNL     1       4.695   3.972  16.697  0.00  0.00    +0.000 A 
ATOM      3  N   UNL     1       4.909   3.611  15.463  0.00  0.00    +0.000 NA
ATOM      4  N   UNL     1       6.000   4.121  14.809  0.00  0.00    +0.000 N 
ATOM      5  C   UNL     1       6.922   4.977  15.392  0.00  0.00    +0.000 A 
ATOM      6  O   UNL     1       7.916   5.416  14.809  0.00  0.00    +0.000 OA
ATOM      7  C   UNL     1       6.675   5.387  16.824  0.00  0.00    +0.000 A 
ENDROOT
BRANCH   2   8
ATOM      8  C   UNL     1       3.523   3.334  17.394  0.00  0.00    +0.000 A 
ATOM      9  C   UNL     1       2.249   3.916  17.418  0.00  0.00    +0.000 A 
ATOM     10  C   UNL     1       1.235   3.387  18.219  0.00  0.00    +0.000 A 
ATOM     11  C   UNL     1       1.458   2.215  18.935  0.00  0.00    +0.000 A 
ATOM     12  C   UNL     1       2.685   1.563  18.833  0.00  0.00    +0.000 A 
ATOM     13  C   UNL     1       3.716   2.122  18.072  0.00  0.00    +0.000 A 
ENDBRANCH   2   8
BRANCH   7  14
ATOM     14  N   UNL     1       7.678   6.171  17.442  0.00  0.00    +0.000 N 
ATOM     15  C   UNL     1       7.556   7.628  17.465  0.00  0.00    +0.000 C 
ATOM     16  H   UNL     1       8.549   5.968  16.938  0.00  0.00    +0.000 HD
ENDBRANCH   7  14
BRANCH   1  18
ATOM     17  C   UNL     1       4.331   5.987  19.315  0.00  0.00    +0.000 C 
ATOM     18  C   UNL     1       5.349   5.237  18.868  0.00  0.00    +0.000 C 
ENDBRANCH   1  18
BRANCH   4  19
ATOM     19  C   UNL     1       6.133   3.739  13.406  0.00  0.00    +0.000 C 
BRANCH  19  20
ATOM     20  C   UNL     1       4.876   3.972  12.561  0.00  0.00    +0.000 C 
BRANCH  20  21
ATOM     21  C   UNL     1       4.685   2.949  11.439  0.00  0.00    +0.000 C 
ATOM     22  C   UNL     1       3.390   3.199  10.677  0.00  0.00    +0.000 C 
ENDBRANCH  20  21
ENDBRANCH  19  20
ENDBRANCH   4  19
TORSDOF 6
ENDMDL
MODEL 2
REMARK VINA RESULT:      -7.3      0.512      1.185
REMARK  Name = 
REMARK  8 active torsions:
REMARK  status: ('A' for Active; 'I' for Inactive)
REMARK    1  A    between atoms: C_2  and  C_3
REMARK    2  A    between atoms: C_4  and  C_5
REMARK    3  A    between atoms: N_12  and  C_13
REMARK    4  A    between atoms: C_13  and  C_14
REMARK    5  A    between atoms: C_14  and  C_15
REMARK    6  A    between atoms: C_15  and  C_16
REMARK    7  A    between atoms: C_19  and  N_20
REMARK    8  A    between atoms: N_20  and  C_21
REMARK                            x       y       z     vdW  Elec       q    Type
REMARK                         _______ _______ _______ _____ _____    ______ ____
ROOT
ATOM      1  C   UNL     1       5.692   5.299  17.155  0.00  0.00    +0.000 A 
ATOM      2  C   UNL     1       4.816   4.242  16.530  0.00  0.00    +0.000 A 
ATOM      3  N   UNL     1       5.006   3.747  15.340  0.00  0.00    +0.000 NA
ATOM      4  N   UNL     1       6.065   4.205  14.599  0.00  0.00    +0.000 N 
ATOM      5  C   UNL     1       6.977   5.145  15.052  0.00  0.00    +0.000 A 
ATOM      6  O   UNL     1       7.942   5.538  14.393  0.00  0.00    +0.000 OA
ATOM      7  C   UNL     1       6.757   5.711  16.434  0.00  0.00    +0.000 A 
ENDROOT
BRANCH   2   8
ATOM      8  C   UNL     1       3.682   3.660  17.330  0.00  0.00    +0.000 A 
ATOM      9  C   UNL     1       3.735   2.380  17.898  0.00  0.00    +0.000 A 
ATOM     10  C   UNL     1       2.602   1.808  18.481  0.00  0.00    +0.000 A 
ATOM     11  C   UNL     1       1.428   2.546  18.584  0.00  0.00    +0.000 A 
ATOM     12  C   UNL     1       1.393   3.861  18.125  0.00  0.00    +0.000 A 
ATOM     13  C   UNL     1       2.512   4.415  17.495  0.00  0.00    +0.000 A 
ENDBRANCH   2   8
BRANCH   7  14
ATOM     14  N   UNL     1       7.755   6.586  16.928  0.00  0.00    +0.000 N 
ATOM     15  C   UNL     1       7.415   7.970  17.256  0.00  0.00    +0.000 C 
ATOM     16  H   UNL     1       8.476   6.637  16.200  0.00  0.00    +0.000 HD
ENDBRANCH   7  14
BRANCH   1  18
ATOM     17  C   UNL     1       5.822   5.059  19.612  0.00  0.00    +0.000 C 
ATOM     18  C   UNL     1       5.491   5.765  18.520  0.00  0.00    +0.000 C 
ENDBRANCH   1  18
BRANCH   4  19
ATOM     19  C   UNL     1       6.171   3.667  13.245  0.00  0.00    +0.000 C 
BRANCH  19  20
ATOM     20  C   UNL     1       4.960   3.953  12.350  0.00  0.00    +0.000 C 
BRANCH  20  21
ATOM     21  C   UNL     1       4.606   2.807  11.401  0.00  0.00    +0.000 C 
ATOM     22  C   UNL     1       3.397   3.154  10.542  0.00  0.00    +0.000 C 
ENDBRANCH  20  21
ENDBRANCH  19  20
ENDBRANCH   4  19
TORSDOF 6
ENDMDL
MODEL 3
REMARK VINA RESULT:      -7.0      2.817      5.490
REMARK  Name = 
REMARK  8 active torsions:
REMARK  status: ('A' for Active; 'I' for Inactive)
REMARK    1  A    between atoms: C_2  and  C_3
REMARK    2  A    between atoms: C_4  and  C_5
REMARK    3  A    between atoms: N_12  and  C_13
REMARK    4  A    between atoms: C_13  and  C_14
REMARK    5  A    between atoms: C_14  and  C_15
REMARK    6  A    between atoms: C_15  and  C_16
REMARK    7  A    between atoms: C_19  and  N_20
REMARK    8  A    between atoms: N_20  and  C_21
REMARK                            x       y       z     vdW  Elec       q    Type
REMARK                         _______ _______ _______ _____ _____    ______ ____
ROOT
ATOM      1  C   UNL     1       2.680   4.825  18.198  0.00  0.00    +0.000 A 
ATOM      2  C   UNL     1       3.191   6.244  18.152  0.00  0.00    +0.000 A 
ATOM      3  N   UNL     1       4.325   6.593  17.615  0.00  0.00    +0.000 NA
ATOM      4  N   UNL     1       5.114   5.623  17.054  0.00  0.00    +0.000 N 
ATOM      5  C   UNL     1       4.762   4.284  16.987  0.00  0.00    +0.000 A 
ATOM      6  O   UNL     1       5.463   3.416  16.460  0.00  0.00    +0.000 OA
ATOM      7  C   UNL     1       3.444   3.883  17.603  0.00  0.00    +0.000 A 
ENDROOT
BRANCH   2   8
ATOM      8  C   UNL     1       2.330   7.353  18.696  0.00  0.00    +0.000 A 
ATOM      9  C   UNL     1       1.808   8.371  17.887  0.00  0.00    +0.000 A 
ATOM     10  C   UNL     1       1.164   9.474  18.452  0.00  0.00    +0.000 A 
ATOM     11  C   UNL     1       0.954   9.526  19.826  0.00  0.00    +0.000 A 
ATOM     12  C   UNL     1       1.368   8.467  20.631  0.00  0.00    +0.000 A 
ATOM     13  C   UNL     1       2.059   7.387  20.071  0.00  0.00    +0.000 A 
ENDBRANCH   2   8
BRANCH   7  14
ATOM     14  N   UNL     1       3.045   2.536  17.432  0.00  0.00    +0.000 N 
ATOM     15  C   UNL     1       3.458   1.523  18.403  0.00  0.00    +0.000 C 
ATOM     16  H   UNL     1       3.433   2.236  16.530  0.00  0.00    +0.000 HD
ENDBRANCH   7  14
BRANCH   1  18
ATOM     17  C   UNL     1       1.160   4.017  19.972  0.00  0.00    +0.000 C 
ATOM     18  C   UNL     1       1.368   4.490  18.735  0.00  0.00    +0.000 C 
ENDBRANCH   1  18
BRANCH   4  19
ATOM     19  C   UNL     1       6.406   6.073  16.544  0.00  0.00    +0.000 C 
BRANCH  19  20
ATOM     20  C   UNL     1       7.584   5.827  17.492  0.00  0.00    +0.000 C 
BRANCH  20  21
ATOM     21  C   UNL     1       7.915   7.019  18.392  0.00  0.00    +0.000 C 
ATOM     22  C   UNL     1       7.828   8.332  17.625  0.00  0.00    +0.000 C 
ENDBRANCH  20  21
ENDBRANCH  19  20
ENDBRANCH   4  19
TORSDOF 6
ENDMDL
MODEL 4
REMARK VINA RESULT:      -7.0      2.812      5.541
REMARK  Name = 
REMARK  8 active torsions:
REMARK  status: ('A' for Active; 'I' for Inactive)
REMARK    1  A    between atoms: C_2  and  C_3
REMARK    2  A    between atoms: C_4  and  C_5
REMARK    3  A    between atoms: N_12  and  C_13
REMARK    4  A    between atoms: C_13  and  C_14
REMARK    5  A    between atoms: C_14  and  C_15
REMARK    6  A    between atoms: C_15  and  C_16
REMARK    7  A    between atoms: C_19  and  N_20
REMARK    8  A    between atoms: N_20  and  C_21
REMARK                            x       y       z     vdW  Elec       q    Type
REMARK                         _______ _______ _______ _____ _____    ______ ____
ROOT
ATOM      1  C   UNL     1       2.596   4.962  18.323  0.00  0.00    +0.000 A 
ATOM      2  C   UNL     1       3.113   6.373  18.186  0.00  0.00    +0.000 A 
ATOM      3  N   UNL     1       4.182   6.696  17.516  0.00  0.00    +0.000 NA
ATOM      4  N   UNL     1       4.892   5.704  16.891  0.00  0.00    +0.000 N 
ATOM      5  C   UNL     1       4.521   4.368  16.895  0.00  0.00    +0.000 A 
ATOM      6  O   UNL     1       5.148   3.480  16.312  0.00  0.00    +0.000 OA
ATOM      7  C   UNL     1       3.277   3.998  17.667  0.00  0.00    +0.000 A 
ENDROOT
BRANCH   2   8
ATOM      8  C   UNL     1       2.331   7.505  18.798  0.00  0.00    +0.000 A 
ATOM      9  C   UNL     1       2.043   7.570  20.168  0.00  0.00    +0.000 A 
ATOM     10  C   UNL     1       1.169   8.538  20.670  0.00  0.00    +0.000 A 
ATOM     11  C   UNL     1       0.648   9.508  19.821  0.00  0.00    +0.000 A 
ATOM     12  C   UNL     1       1.015   9.523  18.477  0.00  0.00    +0.000 A 
ATOM     13  C   UNL     1       1.848   8.523  17.965  0.00  0.00    +0.000 A 
ENDBRANCH   2   8
BRANCH   7  14
ATOM     14  N   UNL     1       2.848   2.652  17.574  0.00  0.00    +0.000 N 
ATOM     15  C   UNL     1       3.440   1.635  18.441  0.00  0.00    +0.000 C 
ATOM     16  H   UNL     1       3.049   2.355  16.612  0.00  0.00    +0.000 HD
ENDBRANCH   7  14
BRANCH   1  18
ATOM     17  C   UNL     1       1.282   4.145  20.250  0.00  0.00    +0.000 C 
ATOM     18  C   UNL     1       1.350   4.657  19.013  0.00  0.00    +0.000 C 
ENDBRANCH   1  18
BRANCH   4  19
ATOM     19  C   UNL     1       6.122   6.125  16.227  0.00  0.00    +0.000 C 
BRANCH  19  20
ATOM     20  C   UNL     1       7.400   5.860  17.030  0.00  0.00    +0.000 C 
BRANCH  20  21
ATOM     21  C   UNL     1       7.627   6.845  18.178  0.00  0.00    +0.000 C 
ATOM     22  C   UNL     1       7.853   8.259  17.657  0.00  0.00    +0.000 C 
ENDBRANCH  20  21
ENDBRANCH  19  20
ENDBRANCH   4  19
TORSDOF 6
ENDMDL
MODEL 5
REMARK VINA RESULT:      -6.8      0.955      1.445
REMARK  Name = 
REMARK  8 active torsions:
REMARK  status: ('A' for Active; 'I' for Inactive)
REMARK    1  A    between atoms: C_2  and  C_3
REMARK    2  A    between atoms: C_4  and  C_5
REMARK    3  A    between atoms: N_12  and  C_13
REMARK    4  A    between atoms: C_13  and  C_14
REMARK    5  A    between atoms: C_14  and  C_15
REMARK    6  A    between atoms: C_15  and  C_16
REMARK    7  A    between atoms: C_19  and  N_20
REMARK    8  A    between atoms: N_20  and  C_21
REMARK                            x       y       z     vdW  Elec       q    Type
REMARK                         _______ _______ _______ _____ _____    ______ ____
ROOT
ATOM      1  C   UNL     1       4.766   5.764  17.366  0.00  0.00    +0.000 A 
ATOM      2  C   UNL     1       4.264   4.385  17.015  0.00  0.00    +0.000 A 
ATOM      3  N   UNL     1       4.759   3.650  16.060  0.00  0.00    +0.000 NA
ATOM      4  N   UNL     1       5.802   4.146  15.321  0.00  0.00    +0.000 N 
ATOM      5  C   UNL     1       6.394   5.379  15.548  0.00  0.00    +0.000 A 
ATOM      6  O   UNL     1       7.347   5.813  14.897  0.00  0.00    +0.000 OA
ATOM      7  C   UNL     1       5.822   6.225  16.660  0.00  0.00    +0.000 A 
ENDROOT
BRANCH   2   8
ATOM      8  C   UNL     1       3.166   3.771  17.841  0.00  0.00    +0.000 A 
ATOM      9  C   UNL     1       3.419   2.874  18.888  0.00  0.00    +0.000 A 
ATOM     10  C   UNL     1       2.373   2.192  19.514  0.00  0.00    +0.000 A 
ATOM     11  C   UNL     1       1.057   2.469  19.163  0.00  0.00    +0.000 A 
ATOM     12  C   UNL     1       0.785   3.440  18.201  0.00  0.00    +0.000 A 
ATOM     13  C   UNL     1       1.834   4.085  17.538  0.00  0.00    +0.000 A 
ENDBRANCH   2   8
BRANCH   7  14
ATOM     14  N   UNL     1       6.503   7.431  16.954  0.00  0.00    +0.000 N 
ATOM     15  C   UNL     1       7.693   7.409  17.803  0.00  0.00    +0.000 C 
ATOM     16  H   UNL     1       5.823   8.031  17.436  0.00  0.00    +0.000 HD
ENDBRANCH   7  14
BRANCH   1  18
ATOM     17  C   UNL     1       3.174   7.331  18.423  0.00  0.00    +0.000 C 
ATOM     18  C   UNL     1       4.238   6.518  18.494  0.00  0.00    +0.000 C 
ENDBRANCH   1  18
BRANCH   4  19
ATOM     19  C   UNL     1       6.253   3.303  14.217  0.00  0.00    +0.000 C 
BRANCH  19  20
ATOM     20  C   UNL     1       5.895   3.834  12.824  0.00  0.00    +0.000 C 
BRANCH  20  21
ATOM     21  C   UNL     1       5.436   2.750  11.847  0.00  0.00    +0.000 C 
ATOM     22  C   UNL     1       4.091   3.101  11.224  0.00  0.00    +0.000 C 
ENDBRANCH  20  21
ENDBRANCH  19  20
ENDBRANCH   4  19
TORSDOF 6
ENDMDL
MODEL 6
REMARK VINA RESULT:      -6.8      3.683      6.489
REMARK  Name = 
REMARK  8 active torsions:
REMARK  status: ('A' for Active; 'I' for Inactive)
REMARK    1  A    between atoms: C_2  and  C_3
REMARK    2  A    between atoms: C_4  and  C_5
REMARK    3  A    between atoms: N_12  and  C_13
REMARK    4  A    between atoms: C_13  and  C_14
REMARK    5  A    between atoms: C_14  and  C_15
REMARK    6  A    between atoms: C_15  and  C_16
REMARK    7  A    between atoms: C_19  and  N_20
REMARK    8  A    between atoms: N_20  and  C_21
REMARK                            x       y       z     vdW  Elec       q    Type
REMARK                         _______ _______ _______ _____ _____    ______ ____
ROOT
ATOM      1  C   UNL     1       3.605   3.950  19.276  0.00  0.00    +0.000 A 
ATOM      2  C   UNL     1       4.023   5.036  18.316  0.00  0.00    +0.000 A 
ATOM      3  N   UNL     1       3.578   6.260  18.359  0.00  0.00    +0.000 NA
ATOM      4  N   UNL     1       2.674   6.596  19.333  0.00  0.00    +0.000 N 
ATOM      5  C   UNL     1       2.224   5.719  20.307  0.00  0.00    +0.000 A 
ATOM      6  O   UNL     1       1.428   6.030  21.196  0.00  0.00    +0.000 OA
ATOM      7  C   UNL     1       2.747   4.304  20.258  0.00  0.00    +0.000 A 
ENDROOT
BRANCH   2   8
ATOM      8  C   UNL     1       5.064   4.732  17.272  0.00  0.00    +0.000 A 
ATOM      9  C   UNL     1       6.439   4.811  17.530  0.00  0.00    +0.000 A 
ATOM     10  C   UNL     1       7.369   4.694  16.494  0.00  0.00    +0.000 A 
ATOM     11  C   UNL     1       6.938   4.406  15.204  0.00  0.00    +0.000 A 
ATOM     12  C   UNL     1       5.580   4.213  14.954  0.00  0.00    +0.000 A 
ATOM     13  C   UNL     1       4.646   4.382  15.981  0.00  0.00    +0.000 A 
ENDBRANCH   2   8
BRANCH   7  14
ATOM     14  N   UNL     1       2.367   3.448  21.320  0.00  0.00    +0.000 N 
ATOM     15  C   UNL     1       1.142   2.656  21.218  0.00  0.00    +0.000 C 
ATOM     16  H   UNL     1       2.246   4.052  22.142  0.00  0.00    +0.000 HD
ENDBRANCH   7  14
BRANCH   1  18
ATOM     17  C   UNL     1       3.674   1.587  18.555  0.00  0.00    +0.000 C 
ATOM     18  C   UNL     1       4.190   2.617  19.242  0.00  0.00    +0.000 C 
ENDBRANCH   1  18
BRANCH   4  19
ATOM     19  C   UNL     1       2.156   7.961  19.273  0.00  0.00    +0.000 C 
BRANCH  19  20
ATOM     20  C   UNL     1       2.021   8.528  17.856  0.00  0.00    +0.000 C 
BRANCH  20  21
ATOM     21  C   UNL     1       1.520   9.973  17.812  0.00  0.00    +0.000 C 
ATOM     22  C   UNL     1       0.184  10.118  18.527  0.00  0.00    +0.000 C 
ENDBRANCH  20  21
ENDBRANCH  19  20
ENDBRANCH   4  19
TORSDOF 6
ENDMDL
MODEL 7
REMARK VINA RESULT:      -6.7      2.914      5.655
REMARK  Name = 
REMARK  8 active torsions:
REMARK  status: ('A' for Active; 'I' for Inactive)
REMARK    1  A    between atoms: C_2  and  C_3
REMARK    2  A    between atoms: C_4  and  C_5
REMARK    3  A    between atoms: N_12  and  C_13
REMARK    4  A    between atoms: C_13  and  C_14
REMARK    5  A    between atoms: C_14  and  C_15
REMARK    6  A    between atoms: C_15  and  C_16
REMARK    7  A    between atoms: C_19  and  N_20
REMARK    8  A    between atoms: N_20  and  C_21
REMARK                            x       y       z     vdW  Elec       q    Type
REMARK                         _______ _______ _______ _____ _____    ______ ____
ROOT
ATOM      1  C   UNL     1       3.437   5.000  18.129  0.00  0.00    +0.000 A 
ATOM      2  C   UNL     1       3.774   6.471  18.100  0.00  0.00    +0.000 A 
ATOM      3  N   UNL     1       4.919   6.949  17.703  0.00  0.00    +0.000 NA
ATOM      4  N   UNL     1       5.886   6.075  17.281  0.00  0.00    +0.000 N 
ATOM      5  C   UNL     1       5.712   4.701  17.215  0.00  0.00    +0.000 A 
ATOM      6  O   UNL     1       6.575   3.918  16.812  0.00  0.00    +0.000 OA
ATOM      7  C   UNL     1       4.381   4.150  17.669  0.00  0.00    +0.000 A 
ENDROOT
BRANCH   2   8
ATOM      8  C   UNL     1       2.721   7.473  18.491  0.00  0.00    +0.000 A 
ATOM      9  C   UNL     1       2.210   8.421  17.595  0.00  0.00    +0.000 A 
ATOM     10  C   UNL     1       1.367   9.443  18.038  0.00  0.00    +0.000 A 
ATOM     11  C   UNL     1       0.953   9.474  19.365  0.00  0.00    +0.000 A 
ATOM     12  C   UNL     1       1.364   8.473  20.243  0.00  0.00    +0.000 A 
ATOM     13  C   UNL     1       2.249   7.480  19.811  0.00  0.00    +0.000 A 
ENDBRANCH   2   8
BRANCH   7  14
ATOM     14  N   UNL     1       4.176   2.761  17.494  0.00  0.00    +0.000 N 
ATOM     15  C   UNL     1       3.992   1.897  18.659  0.00  0.00    +0.000 C 
ATOM     16  H   UNL     1       5.009   2.408  17.009  0.00  0.00    +0.000 HD
ENDBRANCH   7  14
BRANCH   1  18
ATOM     17  C   UNL     1       1.145   4.223  17.624  0.00  0.00    +0.000 C 
ATOM     18  C   UNL     1       2.116   4.514  18.503  0.00  0.00    +0.000 C 
ENDBRANCH   1  18
BRANCH   4  19
ATOM     19  C   UNL     1       7.170   6.673  16.927  0.00  0.00    +0.000 C 
BRANCH  19  20
ATOM     20  C   UNL     1       7.848   7.444  18.065  0.00  0.00    +0.000 C 
BRANCH  20  21
ATOM     21  C   UNL     1       8.038   8.935  17.775  0.00  0.00    +0.000 C 
ATOM     22  C   UNL     1       8.904   9.599  18.839  0.00  0.00    +0.000 C 
ENDBRANCH  20  21
ENDBRANCH  19  20
ENDBRANCH   4  19
TORSDOF 6
ENDMDL
MODEL 8
REMARK VINA RESULT:      -6.7      2.991      5.931
REMARK  Name = 
REMARK  8 active torsions:
REMARK  status: ('A' for Active; 'I' for Inactive)
REMARK    1  A    between atoms: C_2  and  C_3
REMARK    2  A    between atoms: C_4  and  C_5
REMARK    3  A    between atoms: N_12  and  C_13
REMARK    4  A    between atoms: C_13  and  C_14
REMARK    5  A    between atoms: C_14  and  C_15
REMARK    6  A    between atoms: C_15  and  C_16
REMARK    7  A    between atoms: C_19  and  N_20
REMARK    8  A    between atoms: N_20  and  C_21
REMARK                            x       y       z     vdW  Elec       q    Type
REMARK                         _______ _______ _______ _____ _____    ______ ____
ROOT
ATOM      1  C   UNL     1       4.147   5.639  17.429  0.00  0.00    +0.000 A 
ATOM      2  C   UNL     1       2.830   5.835  18.139  0.00  0.00    +0.000 A 
ATOM      3  N   UNL     1       2.045   4.861  18.502  0.00  0.00    +0.000 NA
ATOM      4  N   UNL     1       2.426   3.573  18.228  0.00  0.00    +0.000 N 
ATOM      5  C   UNL     1       3.622   3.233  17.616  0.00  0.00    +0.000 A 
ATOM      6  O   UNL     1       3.973   2.072  17.392  0.00  0.00    +0.000 OA
ATOM      7  C   UNL     1       4.533   4.364  17.204  0.00  0.00    +0.000 A 
ENDROOT
BRANCH   2   8
ATOM      8  C   UNL     1       2.402   7.227  18.521  0.00  0.00    +0.000 A 
ATOM      9  C   UNL     1       2.042   7.575  19.830  0.00  0.00    +0.000 A 
ATOM     10  C   UNL     1       1.483   8.824  20.109  0.00  0.00    +0.000 A 
ATOM     11  C   UNL     1       1.363   9.773  19.099  0.00  0.00    +0.000 A 
ATOM     12  C   UNL     1       1.821   9.479  17.816  0.00  0.00    +0.000 A 
ATOM     13  C   UNL     1       2.332   8.210  17.525  0.00  0.00    +0.000 A 
ENDBRANCH   2   8
BRANCH   7  14
ATOM     14  N   UNL     1       5.798   4.003  16.681  0.00  0.00    +0.000 N 
ATOM     15  C   UNL     1       5.982   3.877  15.236  0.00  0.00    +0.000 C 
ATOM     16  H   UNL     1       6.017   3.081  17.075  0.00  0.00    +0.000 HD
ENDBRANCH   7  14
BRANCH   1  18
ATOM     17  C   UNL     1       6.264   6.900  17.626  0.00  0.00    +0.000 C 
ATOM     18  C   UNL     1       5.033   6.752  17.116  0.00  0.00    +0.000 C 
ENDBRANCH   1  18
BRANCH   4  19
ATOM     19  C   UNL     1       1.462   2.537  18.589  0.00  0.00    +0.000 C 
BRANCH  19  20
ATOM     20  C   UNL     1       0.730   2.783  19.913  0.00  0.00    +0.000 C 
BRANCH  20  21
ATOM     21  C   UNL     1       1.563   2.452  21.152  0.00  0.00    +0.000 C 
ATOM     22  C   UNL     1       2.210   3.702  21.734  0.00  0.00    +0.000 C 
ENDBRANCH  20  21
ENDBRANCH  19  20
ENDBRANCH   4  19
TORSDOF 6
ENDMDL
MODEL 9
REMARK VINA RESULT:      -6.6      1.825      4.780
REMARK  Name = 
REMARK  8 active torsions:
REMARK  status: ('A' for Active; 'I' for Inactive)
REMARK    1  A    between atoms: C_2  and  C_3
REMARK    2  A    between atoms: C_4  and  C_5
REMARK    3  A    between atoms: N_12  and  C_13
REMARK    4  A    between atoms: C_13  and  C_14
REMARK    5  A    between atoms: C_14  and  C_15
REMARK    6  A    between atoms: C_15  and  C_16
REMARK    7  A    between atoms: C_19  and  N_20
REMARK    8  A    between atoms: N_20  and  C_21
REMARK                            x       y       z     vdW  Elec       q    Type
REMARK                         _______ _______ _______ _____ _____    ______ ____
ROOT
ATOM      1  C   UNL     1       4.445   4.009  17.254  0.00  0.00    +0.000 A 
ATOM      2  C   UNL     1       4.813   4.244  18.699  0.00  0.00    +0.000 A 
ATOM      3  N   UNL     1       5.954   4.736  19.090  0.00  0.00    +0.000 NA
ATOM      4  N   UNL     1       6.887   5.067  18.142  0.00  0.00    +0.000 N 
ATOM      5  C   UNL     1       6.681   4.944  16.777  0.00  0.00    +0.000 A 
ATOM      6  O   UNL     1       7.513   5.264  15.925  0.00  0.00    +0.000 OA
ATOM      7  C   UNL     1       5.355   4.379  16.327  0.00  0.00    +0.000 A 
ENDROOT
BRANCH   2   8
ATOM      8  C   UNL     1       3.796   3.959  19.771  0.00  0.00    +0.000 A 
ATOM      9  C   UNL     1       3.768   2.754  20.486  0.00  0.00    +0.000 A 
ATOM     10  C   UNL     1       2.708   2.456  21.346  0.00  0.00    +0.000 A 
ATOM     11  C   UNL     1       1.711   3.400  21.570  0.00  0.00    +0.000 A 
ATOM     12  C   UNL     1       1.785   4.646  20.952  0.00  0.00    +0.000 A 
ATOM     13  C   UNL     1       2.819   4.924  20.051  0.00  0.00    +0.000 A 
ENDBRANCH   2   8
BRANCH   7  14
ATOM     14  N   UNL     1       5.113   4.361  14.932  0.00  0.00    +0.000 N 
ATOM     15  C   UNL     1       6.025   3.644  14.042  0.00  0.00    +0.000 C 
ATOM     16  H   UNL     1       5.132   5.341  14.627  0.00  0.00    +0.000 HD
ENDBRANCH   7  14
BRANCH   1  18
ATOM     17  C   UNL     1       2.613   2.351  17.223  0.00  0.00    +0.000 C 
ATOM     18  C   UNL     1       3.127   3.533  16.857  0.00  0.00    +0.000 C 
ENDBRANCH   1  18
BRANCH   4  19
ATOM     19  C   UNL     1       8.172   5.537  18.654  0.00  0.00    +0.000 C 
BRANCH  19  20
ATOM     20  C   UNL     1       8.203   7.025  19.023  0.00  0.00    +0.000 C 
BRANCH  20  21
ATOM     21  C   UNL     1       7.914   7.960  17.847  0.00  0.00    +0.000 C 
ATOM     22  C   UNL     1       8.429   9.367  18.120  0.00  0.00    +0.000 C 
ENDBRANCH  20  21
ENDBRANCH  19  20
ENDBRANCH   4  19
TORSDOF 6
ENDMDL
