MODEL 1
REMARK VINA RESULT:      -7.3      0.000      0.000
REMARK  Name = 
REMARK  6 active torsions:
REMARK  status: ('A' for Active; 'I' for Inactive)
REMARK    1  A    between atoms: C_1  and  C_2
REMARK    2  A    between atoms: C_2  and  C_3
REMARK    3  A    between atoms: C_3  and  C_4
REMARK    4  A    between atoms: C_4  and  C_5
REMARK    5  A    between atoms: N_9  and  N_10
REMARK    6  A    between atoms: N_10  and  C_11
REMARK                            x       y       z     vdW  Elec       q    Type
REMARK                         _______ _______ _______ _____ _____    ______ ____
ROOT
ATOM      1  C   UNL     1       1.999   3.743  18.748  0.00  0.00    +0.000 C 
ATOM      2  C   UNL     1       1.283   4.205  17.462  0.00  0.00    +0.000 C 
ATOM      3  C   UNL     1       2.521   4.971  19.507  0.00  0.00    +0.000 C 
ATOM      4  C   UNL     1       3.906   5.181  18.950  0.00  0.00    +0.000 C 
ATOM      5  O   UNL     1       4.614   6.139  19.227  0.00  0.00    +0.000 OA
ATOM      6  N   UNL     1       4.241   4.056  18.228  0.00  0.00    +0.000 N 
ATOM      7  C   UNL     1       3.295   3.055  18.352  0.00  0.00    +0.000 C 
ATOM      8  O   UNL     1       3.435   1.853  18.180  0.00  0.00    +0.000 OA
ENDROOT
BRANCH   6   9
ATOM      9  N   UNL     1       5.595   3.800  17.974  0.00  0.00    +0.000 N 
ATOM     10  H   UNL     1       5.893   2.872  18.282  0.00  0.00    +0.000 HD
BRANCH   9  11
ATOM     11  C   UNL     1       6.105   4.121  16.688  0.00  0.00    +0.000 A 
ATOM     12  C   UNL     1       5.613   3.528  15.516  0.00  0.00    +0.000 A 
ATOM     13  C   UNL     1       6.126   3.878  14.264  0.00  0.00    +0.000 A 
ATOM     14  C   UNL     1       7.100   4.866  14.164  0.00  0.00    +0.000 A 
ATOM     15 CL   UNL     1       7.730   5.287  12.620  0.00  0.00    +0.000 Cl
ATOM     16  C   UNL     1       7.561   5.520  15.300  0.00  0.00    +0.000 A 
ATOM     17  C   UNL     1       7.058   5.154  16.550  0.00  0.00    +0.000 A 
ATOM     18 CL   UNL     1       7.656   5.991  17.944  0.00  0.00    +0.000 Cl
ENDBRANCH   9  11
ENDBRANCH   6   9
BRANCH   1  19
ATOM     19  C   UNL     1       1.052   2.830  19.550  0.00  0.00    +0.000 C 
BRANCH  19  21
ATOM     20  C   UNL     1       2.180   2.379  21.760  0.00  0.00    +0.000 C 
ATOM     21  C   UNL     1       1.016   3.071  21.064  0.00  0.00    +0.000 C 
ENDBRANCH  19  21
ENDBRANCH   1  19
TORSDOF 4
ENDMDL
MODEL 2
REMARK VINA RESULT:      -7.0      1.652      3.162
REMARK  Name = 
REMARK  6 active torsions:
REMARK  status: ('A' for Active; 'I' for Inactive)
REMARK    1  A    between atoms: C_1  and  C_2
REMARK    2  A    between atoms: C_2  and  C_3
REMARK    3  A    between atoms: C_3  and  C_4
REMARK    4  A    between atoms: C_4  and  C_5
REMARK    5  A    between atoms: N_9  and  N_10
REMARK    6  A    between atoms: N_10  and  C_11
REMARK                            x       y       z     vdW  Elec       q    Type
REMARK                         _______ _______ _______ _____ _____    ______ ____
ROOT
ATOM      1  C   UNL     1       2.588   5.794  19.107  0.00  0.00    +0.000 C 
ATOM      2  C   UNL     1       2.155   5.243  20.481  0.00  0.00    +0.000 C 
ATOM      3  C   UNL     1       1.822   5.056  18.000  0.00  0.00    +0.000 C 
ATOM      4  C   UNL     1       2.701   3.875  17.674  0.00  0.00    +0.000 C 
ATOM      5  O   UNL     1       2.380   2.977  16.908  0.00  0.00    +0.000 OA
ATOM      6  N   UNL     1       3.926   4.089  18.270  0.00  0.00    +0.000 N 
ATOM      7  C   UNL     1       4.016   5.345  18.841  0.00  0.00    +0.000 C 
ATOM      8  O   UNL     1       5.020   5.990  19.101  0.00  0.00    +0.000 OA
ENDROOT
BRANCH   6   9
ATOM      9  N   UNL     1       5.039   3.388  17.786  0.00  0.00    +0.000 N 
ATOM     10  H   UNL     1       4.900   2.375  17.772  0.00  0.00    +0.000 HD
BRANCH   9  11
ATOM     11  C   UNL     1       5.656   3.855  16.596  0.00  0.00    +0.000 A 
ATOM     12  C   UNL     1       4.997   3.853  15.358  0.00  0.00    +0.000 A 
ATOM     13  C   UNL     1       5.628   4.335  14.208  0.00  0.00    +0.000 A 
ATOM     14  C   UNL     1       6.907   4.876  14.292  0.00  0.00    +0.000 A 
ATOM     15 CL   UNL     1       7.679   5.462  12.871  0.00  0.00    +0.000 Cl
ATOM     16  C   UNL     1       7.561   4.955  15.516  0.00  0.00    +0.000 A 
ATOM     17  C   UNL     1       6.933   4.455  16.659  0.00  0.00    +0.000 A 
ATOM     18 CL   UNL     1       7.779   4.570  18.166  0.00  0.00    +0.000 Cl
ENDBRANCH   9  11
ENDBRANCH   6   9
BRANCH   1  19
ATOM     19  C   UNL     1       2.426   7.326  19.106  0.00  0.00    +0.000 C 
BRANCH  19  21
ATOM     20  C   UNL     1       1.932   9.441  17.826  0.00  0.00    +0.000 C 
ATOM     21  C   UNL     1       2.384   7.991  17.726  0.00  0.00    +0.000 C 
ENDBRANCH  19  21
ENDBRANCH   1  19
TORSDOF 4
ENDMDL
MODEL 3
REMARK VINA RESULT:      -7.0      1.130      1.198
REMARK  Name = 
REMARK  6 active torsions:
REMARK  status: ('A' for Active; 'I' for Inactive)
REMARK    1  A    between atoms: C_1  and  C_2
REMARK    2  A    between atoms: C_2  and  C_3
REMARK    3  A    between atoms: C_3  and  C_4
REMARK    4  A    between atoms: C_4  and  C_5
REMARK    5  A    between atoms: N_9  and  N_10
REMARK    6  A    between atoms: N_10  and  C_11
REMARK                            x       y       z     vdW  Elec       q    Type
REMARK                         _______ _______ _______ _____ _____    ______ ____
ROOT
ATOM      1  C   UNL     1       2.139   4.767  19.033  0.00  0.00    +0.000 C 
ATOM      2  C   UNL     1       1.331   4.076  17.915  0.00  0.00    +0.000 C 
ATOM      3  C   UNL     1       2.358   6.240  18.663  0.00  0.00    +0.000 C 
ATOM      4  C   UNL     1       3.654   6.231  17.892  0.00  0.00    +0.000 C 
ATOM      5  O   UNL     1       4.117   7.212  17.326  0.00  0.00    +0.000 OA
ATOM      6  N   UNL     1       4.242   4.999  18.078  0.00  0.00    +0.000 N 
ATOM      7  C   UNL     1       3.559   4.228  18.999  0.00  0.00    +0.000 C 
ATOM      8  O   UNL     1       3.978   3.292  19.664  0.00  0.00    +0.000 OA
ENDROOT
BRANCH   6   9
ATOM      9  N   UNL     1       5.619   4.870  17.844  0.00  0.00    +0.000 N 
ATOM     10  H   UNL     1       6.069   4.190  18.460  0.00  0.00    +0.000 HD
BRANCH   9  11
ATOM     11  C   UNL     1       6.057   4.739  16.500  0.00  0.00    +0.000 A 
ATOM     12  C   UNL     1       5.521   3.783  15.625  0.00  0.00    +0.000 A 
ATOM     13  C   UNL     1       5.965   3.691  14.303  0.00  0.00    +0.000 A 
ATOM     14  C   UNL     1       6.911   4.590  13.823  0.00  0.00    +0.000 A 
ATOM     15 CL   UNL     1       7.455   4.467  12.196  0.00  0.00    +0.000 Cl
ATOM     16  C   UNL     1       7.413   5.593  14.645  0.00  0.00    +0.000 A 
ATOM     17  C   UNL     1       6.980   5.669  15.971  0.00  0.00    +0.000 A 
ATOM     18 CL   UNL     1       7.627   6.931  16.965  0.00  0.00    +0.000 Cl
ENDBRANCH   9  11
ENDBRANCH   6   9
BRANCH   1  19
ATOM     19  C   UNL     1       1.435   4.529  20.383  0.00  0.00    +0.000 C 
BRANCH  19  21
ATOM     20  C   UNL     1       1.427   2.491  21.868  0.00  0.00    +0.000 C 
ATOM     21  C   UNL     1       0.867   3.121  20.601  0.00  0.00    +0.000 C 
ENDBRANCH  19  21
ENDBRANCH   1  19
TORSDOF 4
ENDMDL
MODEL 4
REMARK VINA RESULT:      -6.7      3.148      6.435
REMARK  Name = 
REMARK  6 active torsions:
REMARK  status: ('A' for Active; 'I' for Inactive)
REMARK    1  A    between atoms: C_1  and  C_2
REMARK    2  A    between atoms: C_2  and  C_3
REMARK    3  A    between atoms: C_3  and  C_4
REMARK    4  A    between atoms: C_4  and  C_5
REMARK    5  A    between atoms: N_9  and  N_10
REMARK    6  A    between atoms: N_10  and  C_11
REMARK                            x       y       z     vdW  Elec       q    Type
REMARK                         _______ _______ _______ _____ _____    ______ ____
ROOT
ATOM      1  C   UNL     1       6.437   6.259  17.401  0.00  0.00    +0.000 C 
ATOM      2  C   UNL     1       5.265   7.260  17.349  0.00  0.00    +0.000 C 
ATOM      3  C   UNL     1       6.644   5.648  16.008  0.00  0.00    +0.000 C 
ATOM      4  C   UNL     1       5.756   4.429  16.010  0.00  0.00    +0.000 C 
ATOM      5  O   UNL     1       5.558   3.728  15.027  0.00  0.00    +0.000 OA
ATOM      6  N   UNL     1       5.360   4.203  17.311  0.00  0.00    +0.000 N 
ATOM      7  C   UNL     1       5.995   5.047  18.204  0.00  0.00    +0.000 C 
ATOM      8  O   UNL     1       6.175   4.887  19.402  0.00  0.00    +0.000 OA
ENDROOT
BRANCH   6   9
ATOM      9  N   UNL     1       4.902   2.925  17.660  0.00  0.00    +0.000 N 
ATOM     10  H   UNL     1       5.652   2.232  17.719  0.00  0.00    +0.000 HD
BRANCH   9  11
ATOM     11  C   UNL     1       3.993   2.816  18.745  0.00  0.00    +0.000 A 
ATOM     12  C   UNL     1       4.380   2.332  20.003  0.00  0.00    +0.000 A 
ATOM     13  C   UNL     1       3.462   2.253  21.055  0.00  0.00    +0.000 A 
ATOM     14  C   UNL     1       2.159   2.707  20.876  0.00  0.00    +0.000 A 
ATOM     15 CL   UNL     1       1.035   2.601  22.174  0.00  0.00    +0.000 Cl
ATOM     16  C   UNL     1       1.763   3.254  19.661  0.00  0.00    +0.000 A 
ATOM     17  C   UNL     1       2.678   3.315  18.609  0.00  0.00    +0.000 A 
ATOM     18 CL   UNL     1       2.148   4.003  17.110  0.00  0.00    +0.000 Cl
ENDBRANCH   9  11
ENDBRANCH   6   9
BRANCH   1  19
ATOM     19  C   UNL     1       7.671   6.961  17.998  0.00  0.00    +0.000 C 
BRANCH  19  21
ATOM     20  C   UNL     1       8.702   9.174  18.629  0.00  0.00    +0.000 C 
ATOM     21  C   UNL     1       7.861   8.429  17.602  0.00  0.00    +0.000 C 
ENDBRANCH  19  21
ENDBRANCH   1  19
TORSDOF 4
ENDMDL
MODEL 5
REMARK VINA RESULT:      -6.7      3.261      6.580
REMARK  Name = 
REMARK  6 active torsions:
REMARK  status: ('A' for Active; 'I' for Inactive)
REMARK    1  A    between atoms: C_1  and  C_2
REMARK    2  A    between atoms: C_2  and  C_3
REMARK    3  A    between atoms: C_3  and  C_4
REMARK    4  A    between atoms: C_4  and  C_5
REMARK    5  A    between atoms: N_9  and  N_10
REMARK    6  A    between atoms: N_10  and  C_11
REMARK                            x       y       z     vdW  Elec       q    Type
REMARK                         _______ _______ _______ _____ _____    ______ ____
ROOT
ATOM      1  C   UNL     1       6.714   5.637  16.959  0.00  0.00    +0.000 C 
ATOM      2  C   UNL     1       7.099   4.670  15.821  0.00  0.00    +0.000 C 
ATOM      3  C   UNL     1       6.815   4.904  18.304  0.00  0.00    +0.000 C 
ATOM      4  C   UNL     1       5.442   4.313  18.499  0.00  0.00    +0.000 C 
ATOM      5  O   UNL     1       5.151   3.554  19.414  0.00  0.00    +0.000 OA
ATOM      6  N   UNL     1       4.602   4.893  17.573  0.00  0.00    +0.000 N 
ATOM      7  C   UNL     1       5.221   5.909  16.871  0.00  0.00    +0.000 C 
ATOM      8  O   UNL     1       4.706   6.847  16.281  0.00  0.00    +0.000 OA
ENDROOT
BRANCH   6   9
ATOM      9  N   UNL     1       3.220   4.856  17.806  0.00  0.00    +0.000 N 
ATOM     10  H   UNL     1       2.861   3.909  17.945  0.00  0.00    +0.000 HD
BRANCH   9  11
ATOM     11  C   UNL     1       2.678   5.771  18.746  0.00  0.00    +0.000 A 
ATOM     12  C   UNL     1       2.586   7.147  18.487  0.00  0.00    +0.000 A 
ATOM     13  C   UNL     1       2.031   8.019  19.428  0.00  0.00    +0.000 A 
ATOM     14  C   UNL     1       1.512   7.519  20.618  0.00  0.00    +0.000 A 
ATOM     15 CL   UNL     1       0.836   8.599  21.773  0.00  0.00    +0.000 Cl
ATOM     16  C   UNL     1       1.526   6.153  20.875  0.00  0.00    +0.000 A 
ATOM     17  C   UNL     1       2.098   5.288  19.940  0.00  0.00    +0.000 A 
ATOM     18 CL   UNL     1       2.098   3.592  20.295  0.00  0.00    +0.000 Cl
ENDBRANCH   9  11
ENDBRANCH   6   9
BRANCH   1  19
ATOM     19  C   UNL     1       7.568   6.914  16.843  0.00  0.00    +0.000 C 
BRANCH  19  21
ATOM     20  C   UNL     1       8.238   9.060  17.986  0.00  0.00    +0.000 C 
ATOM     21  C   UNL     1       7.965   7.574  18.169  0.00  0.00    +0.000 C 
ENDBRANCH  19  21
ENDBRANCH   1  19
TORSDOF 4
ENDMDL
MODEL 6
REMARK VINA RESULT:      -6.7      2.832      6.381
REMARK  Name = 
REMARK  6 active torsions:
REMARK  status: ('A' for Active; 'I' for Inactive)
REMARK    1  A    between atoms: C_1  and  C_2
REMARK    2  A    between atoms: C_2  and  C_3
REMARK    3  A    between atoms: C_3  and  C_4
REMARK    4  A    between atoms: C_4  and  C_5
REMARK    5  A    between atoms: N_9  and  N_10
REMARK    6  A    between atoms: N_10  and  C_11
REMARK                            x       y       z     vdW  Elec       q    Type
REMARK                         _______ _______ _______ _____ _____    ______ ____
ROOT
ATOM      1  C   UNL     1       6.244   5.154  16.835  0.00  0.00    +0.000 C 
ATOM      2  C   UNL     1       6.964   5.072  18.197  0.00  0.00    +0.000 C 
ATOM      3  C   UNL     1       5.796   6.601  16.585  0.00  0.00    +0.000 C 
ATOM      4  C   UNL     1       4.415   6.663  17.188  0.00  0.00    +0.000 C 
ATOM      5  O   UNL     1       3.760   7.691  17.288  0.00  0.00    +0.000 OA
ATOM      6  N   UNL     1       4.014   5.370  17.446  0.00  0.00    +0.000 N 
ATOM      7  C   UNL     1       4.910   4.438  16.956  0.00  0.00    +0.000 C 
ATOM      8  O   UNL     1       4.707   3.266  16.674  0.00  0.00    +0.000 OA
ENDROOT
BRANCH   6   9
ATOM      9  N   UNL     1       2.645   5.109  17.595  0.00  0.00    +0.000 N 
ATOM     10  H   UNL     1       2.209   4.753  16.742  0.00  0.00    +0.000 HD
BRANCH   9  11
ATOM     11  C   UNL     1       2.224   4.390  18.745  0.00  0.00    +0.000 A 
ATOM     12  C   UNL     1       2.095   2.994  18.751  0.00  0.00    +0.000 A 
ATOM     13  C   UNL     1       1.694   2.315  19.906  0.00  0.00    +0.000 A 
ATOM     14  C   UNL     1       1.470   3.020  21.084  0.00  0.00    +0.000 A 
ATOM     15 CL   UNL     1       0.971   2.178  22.498  0.00  0.00    +0.000 Cl
ATOM     16  C   UNL     1       1.654   4.397  21.129  0.00  0.00    +0.000 A 
ATOM     17  C   UNL     1       2.038   5.072  19.968  0.00  0.00    +0.000 A 
ATOM     18 CL   UNL     1       2.258   6.788  20.062  0.00  0.00    +0.000 Cl
ENDBRANCH   9  11
ENDBRANCH   6   9
BRANCH   1  19
ATOM     19  C   UNL     1       7.156   4.554  15.747  0.00  0.00    +0.000 C 
BRANCH  19  21
ATOM     20  C   UNL     1       6.195   3.825  13.533  0.00  0.00    +0.000 C 
ATOM     21  C   UNL     1       6.837   4.968  14.306  0.00  0.00    +0.000 C 
ENDBRANCH  19  21
ENDBRANCH   1  19
TORSDOF 4
ENDMDL
MODEL 7
REMARK VINA RESULT:      -6.6      1.190      1.374
REMARK  Name = 
REMARK  6 active torsions:
REMARK  status: ('A' for Active; 'I' for Inactive)
REMARK    1  A    between atoms: C_1  and  C_2
REMARK    2  A    between atoms: C_2  and  C_3
REMARK    3  A    between atoms: C_3  and  C_4
REMARK    4  A    between atoms: C_4  and  C_5
REMARK    5  A    between atoms: N_9  and  N_10
REMARK    6  A    between atoms: N_10  and  C_11
REMARK                            x       y       z     vdW  Elec       q    Type
REMARK                         _______ _______ _______ _____ _____    ______ ____
ROOT
ATOM      1  C   UNL     1       2.516   5.149  18.837  0.00  0.00    +0.000 C 
ATOM      2  C   UNL     1       2.462   6.529  18.150  0.00  0.00    +0.000 C 
ATOM      3  C   UNL     1       3.647   5.143  19.875  0.00  0.00    +0.000 C 
ATOM      4  C   UNL     1       4.851   4.674  19.099  0.00  0.00    +0.000 C 
ATOM      5  O   UNL     1       5.985   4.642  19.554  0.00  0.00    +0.000 OA
ATOM      6  N   UNL     1       4.403   4.179  17.893  0.00  0.00    +0.000 N 
ATOM      7  C   UNL     1       3.023   4.132  17.828  0.00  0.00    +0.000 C 
ATOM      8  O   UNL     1       2.320   3.434  17.113  0.00  0.00    +0.000 OA
ENDROOT
BRANCH   6   9
ATOM      9  N   UNL     1       5.232   3.303  17.178  0.00  0.00    +0.000 N 
ATOM     10  H   UNL     1       4.827   2.371  17.063  0.00  0.00    +0.000 HD
BRANCH   9  11
ATOM     11  C   UNL     1       5.822   3.776  15.977  0.00  0.00    +0.000 A 
ATOM     12  C   UNL     1       5.152   3.740  14.745  0.00  0.00    +0.000 A 
ATOM     13  C   UNL     1       5.756   4.229  13.584  0.00  0.00    +0.000 A 
ATOM     14  C   UNL     1       7.019   4.810  13.649  0.00  0.00    +0.000 A 
ATOM     15 CL   UNL     1       7.758   5.404  12.214  0.00  0.00    +0.000 Cl
ATOM     16  C   UNL     1       7.682   4.922  14.866  0.00  0.00    +0.000 A 
ATOM     17  C   UNL     1       7.081   4.416  16.020  0.00  0.00    +0.000 A 
ATOM     18 CL   UNL     1       7.937   4.574  17.518  0.00  0.00    +0.000 Cl
ENDBRANCH   9  11
ENDBRANCH   6   9
BRANCH   1  19
ATOM     19  C   UNL     1       1.118   4.807  19.389  0.00  0.00    +0.000 C 
BRANCH  19  21
ATOM     20  C   UNL     1       1.225   2.573  20.552  0.00  0.00    +0.000 C 
ATOM     21  C   UNL     1       1.093   4.078  20.737  0.00  0.00    +0.000 C 
ENDBRANCH  19  21
ENDBRANCH   1  19
TORSDOF 4
ENDMDL
MODEL 8
REMARK VINA RESULT:      -6.5      1.595      1.851
REMARK  Name = 
REMARK  6 active torsions:
REMARK  status: ('A' for Active; 'I' for Inactive)
REMARK    1  A    between atoms: C_1  and  C_2
REMARK    2  A    between atoms: C_2  and  C_3
REMARK    3  A    between atoms: C_3  and  C_4
REMARK    4  A    between atoms: C_4  and  C_5
REMARK    5  A    between atoms: N_9  and  N_10
REMARK    6  A    between atoms: N_10  and  C_11
REMARK                            x       y       z     vdW  Elec       q    Type
REMARK                         _______ _______ _______ _____ _____    ______ ____
ROOT
ATOM      1  C   UNL     1       2.283   5.197  19.528  0.00  0.00    +0.000 C 
ATOM      2  C   UNL     1       1.477   4.380  18.496  0.00  0.00    +0.000 C 
ATOM      3  C   UNL     1       2.061   6.694  19.273  0.00  0.00    +0.000 C 
ATOM      4  C   UNL     1       3.154   7.063  18.301  0.00  0.00    +0.000 C 
ATOM      5  O   UNL     1       3.248   8.159  17.766  0.00  0.00    +0.000 OA
ATOM      6  N   UNL     1       4.050   6.017  18.264  0.00  0.00    +0.000 N 
ATOM      7  C   UNL     1       3.761   5.048  19.206  0.00  0.00    +0.000 C 
ATOM      8  O   UNL     1       4.512   4.218  19.696  0.00  0.00    +0.000 OA
ENDROOT
BRANCH   6   9
ATOM      9  N   UNL     1       5.348   6.263  17.794  0.00  0.00    +0.000 N 
ATOM     10  H   UNL     1       6.067   6.123  18.508  0.00  0.00    +0.000 HD
BRANCH   9  11
ATOM     11  C   UNL     1       5.723   5.699  16.546  0.00  0.00    +0.000 A 
ATOM     12  C   UNL     1       5.050   6.002  15.354  0.00  0.00    +0.000 A 
ATOM     13  C   UNL     1       5.455   5.442  14.139  0.00  0.00    +0.000 A 
ATOM     14  C   UNL     1       6.572   4.614  14.093  0.00  0.00    +0.000 A 
ATOM     15 CL   UNL     1       7.061   3.924  12.595  0.00  0.00    +0.000 Cl
ATOM     16  C   UNL     1       7.301   4.348  15.247  0.00  0.00    +0.000 A 
ATOM     17  C   UNL     1       6.882   4.896  16.461  0.00  0.00    +0.000 A 
ATOM     18 CL   UNL     1       7.815   4.543  17.877  0.00  0.00    +0.000 Cl
ENDBRANCH   9  11
ENDBRANCH   6   9
BRANCH   1  19
ATOM     19  C   UNL     1       1.922   4.713  20.945  0.00  0.00    +0.000 C 
BRANCH  19  21
ATOM     20  C   UNL     1       2.136   2.323  21.719  0.00  0.00    +0.000 C 
ATOM     21  C   UNL     1       1.241   3.342  21.029  0.00  0.00    +0.000 C 
ENDBRANCH  19  21
ENDBRANCH   1  19
TORSDOF 4
ENDMDL
MODEL 9
REMARK VINA RESULT:      -6.5      3.298      6.424
REMARK  Name = 
REMARK  6 active torsions:
REMARK  status: ('A' for Active; 'I' for Inactive)
REMARK    1  A    between atoms: C_1  and  C_2
REMARK    2  A    between atoms: C_2  and  C_3
REMARK    3  A    between atoms: C_3  and  C_4
REMARK    4  A    between atoms: C_4  and  C_5
REMARK    5  A    between atoms: N_9  and  N_10
REMARK    6  A    between atoms: N_10  and  C_11
REMARK                            x       y       z     vdW  Elec       q    Type
REMARK                         _______ _______ _______ _____ _____    ______ ____
ROOT
ATOM      1  C   UNL     1       7.100   6.730  17.629  0.00  0.00    +0.000 C 
ATOM      2  C   UNL     1       5.921   7.668  17.296  0.00  0.00    +0.000 C 
ATOM      3  C   UNL     1       7.462   5.909  16.384  0.00  0.00    +0.000 C 
ATOM      4  C   UNL     1       6.601   4.676  16.498  0.00  0.00    +0.000 C 
ATOM      5  O   UNL     1       6.519   3.819  15.629  0.00  0.00    +0.000 OA
ATOM      6  N   UNL     1       6.076   4.650  17.772  0.00  0.00    +0.000 N 
ATOM      7  C   UNL     1       6.599   5.649  18.573  0.00  0.00    +0.000 C 
ATOM      8  O   UNL     1       6.656   5.692  19.792  0.00  0.00    +0.000 OA
ENDROOT
BRANCH   6   9
ATOM      9  N   UNL     1       5.608   3.430  18.280  0.00  0.00    +0.000 N 
ATOM     10  H   UNL     1       6.215   3.037  19.003  0.00  0.00    +0.000 HD
BRANCH   9  11
ATOM     11  C   UNL     1       4.236   3.337  18.631  0.00  0.00    +0.000 A 
ATOM     12  C   UNL     1       3.221   3.914  17.853  0.00  0.00    +0.000 A 
ATOM     13  C   UNL     1       1.878   3.790  18.218  0.00  0.00    +0.000 A 
ATOM     14  C   UNL     1       1.528   3.039  19.336  0.00  0.00    +0.000 A 
ATOM     15 CL   UNL     1      -0.127   2.896  19.782  0.00  0.00    +0.000 Cl
ATOM     16  C   UNL     1       2.505   2.398  20.090  0.00  0.00    +0.000 A 
ATOM     17  C   UNL     1       3.847   2.541  19.731  0.00  0.00    +0.000 A 
ATOM     18 CL   UNL     1       5.036   1.728  20.694  0.00  0.00    +0.000 Cl
ENDBRANCH   9  11
ENDBRANCH   6   9
BRANCH   1  19
ATOM     19  C   UNL     1       8.252   7.562  18.222  0.00  0.00    +0.000 C 
BRANCH  19  21
ATOM     20  C   UNL     1       9.074   9.841  18.922  0.00  0.00    +0.000 C 
ATOM     21  C   UNL     1       8.200   9.069  17.944  0.00  0.00    +0.000 C 
ENDBRANCH  19  21
ENDBRANCH   1  19
TORSDOF 4
ENDMDL
