MODEL 1
REMARK VINA RESULT:      -8.2      0.000      0.000
REMARK  Name = 
REMARK  8 active torsions:
REMARK  status: ('A' for Active; 'I' for Inactive)
REMARK    1  A    between atoms: C_1  and  C_2
REMARK    2  A    between atoms: C_2  and  N_3
REMARK    3  A    between atoms: C_2  and  C_18
REMARK    4  A    between atoms: C_4  and  C_6
REMARK    5  A    between atoms: C_6  and  O_7
REMARK    6  A    between atoms: O_7  and  C_8
REMARK    7  A    between atoms: C_8  and  C_10
REMARK    8  A    between atoms: C_13  and  N_14
REMARK                            x       y       z     vdW  Elec       q    Type
REMARK                         _______ _______ _______ _____ _____    ______ ____
ROOT
ATOM      1  N   UNL     1       4.064   6.129  18.568  0.00  0.00    +0.000 N 
ATOM      2  C   UNL     1       4.697   6.734  17.502  0.00  0.00    +0.000 C 
ATOM      3  O   UNL     1       4.097   7.366  16.636  0.00  0.00    +0.000 OA
ATOM      4  H   UNL     1       4.584   5.513  19.178  0.00  0.00    +0.000 HD
ENDROOT
BRANCH   1   6
ATOM      5  C   UNL     1       2.226   7.416  19.594  0.00  0.00    +0.000 C 
ATOM      6  C   UNL     1       2.619   6.205  18.743  0.00  0.00    +0.000 C 
BRANCH   6   7
ATOM      7  C   UNL     1       2.079   4.915  19.336  0.00  0.00    +0.000 A 
ATOM      8  C   UNL     1       1.507   3.951  18.492  0.00  0.00    +0.000 A 
ATOM      9  C   UNL     1       0.978   2.768  19.013  0.00  0.00    +0.000 A 
ATOM     10  C   UNL     1       1.023   2.530  20.385  0.00  0.00    +0.000 A 
ATOM     11  C   UNL     1       1.595   3.473  21.235  0.00  0.00    +0.000 A 
ATOM     12  C   UNL     1       2.120   4.658  20.717  0.00  0.00    +0.000 A 
ENDBRANCH   6   7
ENDBRANCH   1   6
BRANCH   2  13
ATOM     13  C   UNL     1       6.221   6.575  17.491  0.00  0.00    +0.000 C 
BRANCH  13  14
ATOM     14  O   UNL     1       6.667   5.420  18.200  0.00  0.00    +0.000 OA
BRANCH  14  15
ATOM     15  C   UNL     1       7.495   4.610  17.482  0.00  0.00    +0.000 C 
ATOM     16  O   UNL     1       8.526   4.114  17.919  0.00  0.00    +0.000 OA
BRANCH  15  17
ATOM     17  C   UNL     1       7.011   4.453  16.127  0.00  0.00    +0.000 A 
ATOM     18  C   UNL     1       5.839   3.879  15.655  0.00  0.00    +0.000 A 
ATOM     19  C   UNL     1       5.851   3.996  14.242  0.00  0.00    +0.000 A 
ATOM     20  C   UNL     1       7.031   4.631  13.944  0.00  0.00    +0.000 A 
ATOM     21  O   UNL     1       7.752   4.910  15.062  0.00  0.00    +0.000 OA
BRANCH  20  22
ATOM     22  N   UNL     1       7.604   5.030  12.695  0.00  0.00    +0.000 N 
ATOM     23  O   UNL     1       8.341   6.026  12.725  0.00  0.00    +0.000 OA
ATOM     24  O   UNL     1       7.324   4.367  11.689  0.00  0.00    +0.000 OA
ENDBRANCH  20  22
ENDBRANCH  15  17
ENDBRANCH  14  15
ENDBRANCH  13  14
ENDBRANCH   2  13
TORSDOF 7
ENDMDL
MODEL 2
REMARK VINA RESULT:      -8.0      1.829      2.609
REMARK  Name = 
REMARK  8 active torsions:
REMARK  status: ('A' for Active; 'I' for Inactive)
REMARK    1  A    between atoms: C_1  and  C_2
REMARK    2  A    between atoms: C_2  and  N_3
REMARK    3  A    between atoms: C_2  and  C_18
REMARK    4  A    between atoms: C_4  and  C_6
REMARK    5  A    between atoms: C_6  and  O_7
REMARK    6  A    between atoms: O_7  and  C_8
REMARK    7  A    between atoms: C_8  and  C_10
REMARK    8  A    between atoms: C_13  and  N_14
REMARK                            x       y       z     vdW  Elec       q    Type
REMARK                         _______ _______ _______ _____ _____    ______ ____
ROOT
ATOM      1  N   UNL     1       4.129   5.261  17.362  0.00  0.00    +0.000 N 
ATOM      2  C   UNL     1       5.156   5.086  18.267  0.00  0.00    +0.000 C 
ATOM      3  O   UNL     1       5.043   5.331  19.465  0.00  0.00    +0.000 OA
ATOM      4  H   UNL     1       4.311   5.170  16.372  0.00  0.00    +0.000 HD
ENDROOT
BRANCH   1   6
ATOM      5  C   UNL     1       2.940   7.079  18.533  0.00  0.00    +0.000 C 
ATOM      6  C   UNL     1       2.821   5.752  17.776  0.00  0.00    +0.000 C 
BRANCH   6   7
ATOM      7  C   UNL     1       2.090   4.709  18.603  0.00  0.00    +0.000 A 
ATOM      8  C   UNL     1       1.839   4.955  19.962  0.00  0.00    +0.000 A 
ATOM      9  C   UNL     1       1.192   4.002  20.753  0.00  0.00    +0.000 A 
ATOM     10  C   UNL     1       0.782   2.795  20.193  0.00  0.00    +0.000 A 
ATOM     11  C   UNL     1       1.015   2.539  18.844  0.00  0.00    +0.000 A 
ATOM     12  C   UNL     1       1.666   3.488  18.052  0.00  0.00    +0.000 A 
ENDBRANCH   6   7
ENDBRANCH   1   6
BRANCH   2  13
ATOM     13  C   UNL     1       6.452   4.536  17.663  0.00  0.00    +0.000 C 
BRANCH  13  14
ATOM     14  O   UNL     1       6.338   4.238  16.272  0.00  0.00    +0.000 OA
BRANCH  14  15
ATOM     15  C   UNL     1       7.002   5.107  15.459  0.00  0.00    +0.000 C 
ATOM     16  O   UNL     1       7.554   6.130  15.844  0.00  0.00    +0.000 OA
BRANCH  15  17
ATOM     17  C   UNL     1       6.927   4.678  14.078  0.00  0.00    +0.000 A 
ATOM     18  C   UNL     1       7.720   5.016  12.990  0.00  0.00    +0.000 A 
ATOM     19  C   UNL     1       7.223   4.305  11.869  0.00  0.00    +0.000 A 
ATOM     20  C   UNL     1       6.159   3.582  12.345  0.00  0.00    +0.000 A 
ATOM     21  O   UNL     1       5.954   3.795  13.672  0.00  0.00    +0.000 OA
BRANCH  20  22
ATOM     22  N   UNL     1       5.262   2.675  11.695  0.00  0.00    +0.000 N 
ATOM     23  O   UNL     1       5.715   1.550  11.437  0.00  0.00    +0.000 OA
ATOM     24  O   UNL     1       4.120   3.072  11.436  0.00  0.00    +0.000 OA
ENDBRANCH  20  22
ENDBRANCH  15  17
ENDBRANCH  14  15
ENDBRANCH  13  14
ENDBRANCH   2  13
TORSDOF 7
ENDMDL
MODEL 3
REMARK VINA RESULT:      -7.8      0.649      1.179
REMARK  Name = 
REMARK  8 active torsions:
REMARK  status: ('A' for Active; 'I' for Inactive)
REMARK    1  A    between atoms: C_1  and  C_2
REMARK    2  A    between atoms: C_2  and  N_3
REMARK    3  A    between atoms: C_2  and  C_18
REMARK    4  A    between atoms: C_4  and  C_6
REMARK    5  A    between atoms: C_6  and  O_7
REMARK    6  A    between atoms: O_7  and  C_8
REMARK    7  A    between atoms: C_8  and  C_10
REMARK    8  A    between atoms: C_13  and  N_14
REMARK                            x       y       z     vdW  Elec       q    Type
REMARK                         _______ _______ _______ _____ _____    ______ ____
ROOT
ATOM      1  N   UNL     1       3.641   6.065  18.196  0.00  0.00    +0.000 N 
ATOM      2  C   UNL     1       4.098   7.071  17.370  0.00  0.00    +0.000 C 
ATOM      3  O   UNL     1       3.432   8.064  17.089  0.00  0.00    +0.000 OA
ATOM      4  H   UNL     1       4.173   5.211  18.292  0.00  0.00    +0.000 HD
ENDROOT
BRANCH   1   6
ATOM      5  C   UNL     1       2.304   7.034  20.030  0.00  0.00    +0.000 C 
ATOM      6  C   UNL     1       2.317   6.117  18.803  0.00  0.00    +0.000 C 
BRANCH   6   7
ATOM      7  C   UNL     1       1.829   4.722  19.153  0.00  0.00    +0.000 A 
ATOM      8  C   UNL     1       1.567   4.396  20.493  0.00  0.00    +0.000 A 
ATOM      9  C   UNL     1       1.143   3.113  20.847  0.00  0.00    +0.000 A 
ATOM     10  C   UNL     1       0.969   2.142  19.865  0.00  0.00    +0.000 A 
ATOM     11  C   UNL     1       1.216   2.451  18.529  0.00  0.00    +0.000 A 
ATOM     12  C   UNL     1       1.644   3.732  18.174  0.00  0.00    +0.000 A 
ENDBRANCH   6   7
ENDBRANCH   1   6
BRANCH   2  13
ATOM     13  C   UNL     1       5.522   6.866  16.842  0.00  0.00    +0.000 C 
BRANCH  13  14
ATOM     14  O   UNL     1       6.437   6.443  17.853  0.00  0.00    +0.000 OA
BRANCH  14  15
ATOM     15  C   UNL     1       6.989   5.218  17.629  0.00  0.00    +0.000 C 
ATOM     16  O   UNL     1       7.598   4.569  18.471  0.00  0.00    +0.000 OA
BRANCH  15  17
ATOM     17  C   UNL     1       6.793   4.811  16.254  0.00  0.00    +0.000 A 
ATOM     18  C   UNL     1       5.878   3.924  15.703  0.00  0.00    +0.000 A 
ATOM     19  C   UNL     1       6.107   3.896  14.304  0.00  0.00    +0.000 A 
ATOM     20  C   UNL     1       7.149   4.763  14.093  0.00  0.00    +0.000 A 
ATOM     21  O   UNL     1       7.586   5.322  15.253  0.00  0.00    +0.000 OA
BRANCH  20  22
ATOM     22  N   UNL     1       7.825   5.159  12.895  0.00  0.00    +0.000 N 
ATOM     23  O   UNL     1       8.722   6.004  13.028  0.00  0.00    +0.000 OA
ATOM     24  O   UNL     1       7.470   4.642  11.829  0.00  0.00    +0.000 OA
ENDBRANCH  20  22
ENDBRANCH  15  17
ENDBRANCH  14  15
ENDBRANCH  13  14
ENDBRANCH   2  13
TORSDOF 7
ENDMDL
MODEL 4
REMARK VINA RESULT:      -7.7      2.096      3.668
REMARK  Name = 
REMARK  8 active torsions:
REMARK  status: ('A' for Active; 'I' for Inactive)
REMARK    1  A    between atoms: C_1  and  C_2
REMARK    2  A    between atoms: C_2  and  N_3
REMARK    3  A    between atoms: C_2  and  C_18
REMARK    4  A    between atoms: C_4  and  C_6
REMARK    5  A    between atoms: C_6  and  O_7
REMARK    6  A    between atoms: O_7  and  C_8
REMARK    7  A    between atoms: C_8  and  C_10
REMARK    8  A    between atoms: C_13  and  N_14
REMARK                            x       y       z     vdW  Elec       q    Type
REMARK                         _______ _______ _______ _____ _____    ______ ____
ROOT
ATOM      1  N   UNL     1       3.598   5.042  18.473  0.00  0.00    +0.000 N 
ATOM      2  C   UNL     1       4.840   4.447  18.397  0.00  0.00    +0.000 C 
ATOM      3  O   UNL     1       5.627   4.413  19.340  0.00  0.00    +0.000 OA
ATOM      4  H   UNL     1       3.044   5.158  17.635  0.00  0.00    +0.000 HD
ENDROOT
BRANCH   1   6
ATOM      5  C   UNL     1       2.188   4.750  20.476  0.00  0.00    +0.000 C 
ATOM      6  C   UNL     1       3.127   5.676  19.698  0.00  0.00    +0.000 C 
BRANCH   6   7
ATOM      7  C   UNL     1       2.463   7.008  19.395  0.00  0.00    +0.000 A 
ATOM      8  C   UNL     1       2.584   7.566  18.113  0.00  0.00    +0.000 A 
ATOM      9  C   UNL     1       2.006   8.802  17.814  0.00  0.00    +0.000 A 
ATOM     10  C   UNL     1       1.292   9.491  18.791  0.00  0.00    +0.000 A 
ATOM     11  C   UNL     1       1.155   8.946  20.066  0.00  0.00    +0.000 A 
ATOM     12  C   UNL     1       1.736   7.713  20.368  0.00  0.00    +0.000 A 
ENDBRANCH   6   7
ENDBRANCH   1   6
BRANCH   2  13
ATOM     13  C   UNL     1       5.159   3.806  17.042  0.00  0.00    +0.000 C 
BRANCH  13  14
ATOM     14  O   UNL     1       6.368   4.297  16.463  0.00  0.00    +0.000 OA
BRANCH  14  15
ATOM     15  C   UNL     1       6.182   5.249  15.505  0.00  0.00    +0.000 C 
ATOM     16  O   UNL     1       5.840   6.402  15.734  0.00  0.00    +0.000 OA
BRANCH  15  17
ATOM     17  C   UNL     1       6.402   4.698  14.185  0.00  0.00    +0.000 A 
ATOM     18  C   UNL     1       7.463   4.870  13.307  0.00  0.00    +0.000 A 
ATOM     19  C   UNL     1       7.186   4.097  12.152  0.00  0.00    +0.000 A 
ATOM     20  C   UNL     1       5.971   3.506  12.398  0.00  0.00    +0.000 A 
ATOM     21  O   UNL     1       5.474   3.859  13.613  0.00  0.00    +0.000 OA
BRANCH  20  22
ATOM     22  N   UNL     1       5.174   2.615  11.612  0.00  0.00    +0.000 N 
ATOM     23  O   UNL     1       5.705   1.539  11.299  0.00  0.00    +0.000 OA
ATOM     24  O   UNL     1       4.033   2.976  11.302  0.00  0.00    +0.000 OA
ENDBRANCH  20  22
ENDBRANCH  15  17
ENDBRANCH  14  15
ENDBRANCH  13  14
ENDBRANCH   2  13
TORSDOF 7
ENDMDL
MODEL 5
REMARK VINA RESULT:      -7.7      0.711      1.380
REMARK  Name = 
REMARK  8 active torsions:
REMARK  status: ('A' for Active; 'I' for Inactive)
REMARK    1  A    between atoms: C_1  and  C_2
REMARK    2  A    between atoms: C_2  and  N_3
REMARK    3  A    between atoms: C_2  and  C_18
REMARK    4  A    between atoms: C_4  and  C_6
REMARK    5  A    between atoms: C_6  and  O_7
REMARK    6  A    between atoms: O_7  and  C_8
REMARK    7  A    between atoms: C_8  and  C_10
REMARK    8  A    between atoms: C_13  and  N_14
REMARK                            x       y       z     vdW  Elec       q    Type
REMARK                         _______ _______ _______ _____ _____    ______ ____
ROOT
ATOM      1  N   UNL     1       4.292   6.309  18.354  0.00  0.00    +0.000 N 
ATOM      2  C   UNL     1       5.226   6.842  17.490  0.00  0.00    +0.000 C 
ATOM      3  O   UNL     1       4.956   7.194  16.345  0.00  0.00    +0.000 OA
ATOM      4  H   UNL     1       4.590   5.916  19.236  0.00  0.00    +0.000 HD
ENDROOT
BRANCH   1   6
ATOM      5  C   UNL     1       2.125   7.449  18.047  0.00  0.00    +0.000 C 
ATOM      6  C   UNL     1       2.900   6.131  17.961  0.00  0.00    +0.000 C 
BRANCH   6   7
ATOM      7  C   UNL     1       2.239   5.047  18.794  0.00  0.00    +0.000 A 
ATOM      8  C   UNL     1       2.296   5.120  20.195  0.00  0.00    +0.000 A 
ATOM      9  C   UNL     1       1.720   4.123  20.987  0.00  0.00    +0.000 A 
ATOM     10  C   UNL     1       1.073   3.046  20.388  0.00  0.00    +0.000 A 
ATOM     11  C   UNL     1       0.999   2.963  18.999  0.00  0.00    +0.000 A 
ATOM     12  C   UNL     1       1.579   3.955  18.206  0.00  0.00    +0.000 A 
ENDBRANCH   6   7
ENDBRANCH   1   6
BRANCH   2  13
ATOM     13  C   UNL     1       6.634   6.983  18.079  0.00  0.00    +0.000 C 
BRANCH  13  14
ATOM     14  O   UNL     1       7.645   6.410  17.252  0.00  0.00    +0.000 OA
BRANCH  14  15
ATOM     15  C   UNL     1       7.566   5.054  17.133  0.00  0.00    +0.000 C 
ATOM     16  O   UNL     1       7.902   4.263  18.006  0.00  0.00    +0.000 OA
BRANCH  15  17
ATOM     17  C   UNL     1       7.073   4.682  15.824  0.00  0.00    +0.000 A 
ATOM     18  C   UNL     1       5.965   3.926  15.466  0.00  0.00    +0.000 A 
ATOM     19  C   UNL     1       5.931   3.873  14.050  0.00  0.00    +0.000 A 
ATOM     20  C   UNL     1       7.022   4.596  13.637  0.00  0.00    +0.000 A 
ATOM     21  O   UNL     1       7.731   5.087  14.687  0.00  0.00    +0.000 OA
BRANCH  20  22
ATOM     22  N   UNL     1       7.515   4.903  12.329  0.00  0.00    +0.000 N 
ATOM     23  O   UNL     1       7.340   4.035  11.461  0.00  0.00    +0.000 OA
ATOM     24  O   UNL     1       8.076   5.992  12.160  0.00  0.00    +0.000 OA
ENDBRANCH  20  22
ENDBRANCH  15  17
ENDBRANCH  14  15
ENDBRANCH  13  14
ENDBRANCH   2  13
TORSDOF 7
ENDMDL
MODEL 6
REMARK VINA RESULT:      -7.6      2.066      3.769
REMARK  Name = 
REMARK  8 active torsions:
REMARK  status: ('A' for Active; 'I' for Inactive)
REMARK    1  A    between atoms: C_1  and  C_2
REMARK    2  A    between atoms: C_2  and  N_3
REMARK    3  A    between atoms: C_2  and  C_18
REMARK    4  A    between atoms: C_4  and  C_6
REMARK    5  A    between atoms: C_6  and  O_7
REMARK    6  A    between atoms: O_7  and  C_8
REMARK    7  A    between atoms: C_8  and  C_10
REMARK    8  A    between atoms: C_13  and  N_14
REMARK                            x       y       z     vdW  Elec       q    Type
REMARK                         _______ _______ _______ _____ _____    ______ ____
ROOT
ATOM      1  N   UNL     1       4.471   5.833  18.303  0.00  0.00    +0.000 N 
ATOM      2  C   UNL     1       5.527   4.981  18.547  0.00  0.00    +0.000 C 
ATOM      3  O   UNL     1       5.496   4.102  19.404  0.00  0.00    +0.000 OA
ATOM      4  H   UNL     1       4.593   6.620  17.679  0.00  0.00    +0.000 HD
ENDROOT
BRANCH   1   6
ATOM      5  C   UNL     1       2.315   4.649  18.490  0.00  0.00    +0.000 C 
ATOM      6  C   UNL     1       3.226   5.744  19.054  0.00  0.00    +0.000 C 
BRANCH   6   7
ATOM      7  C   UNL     1       2.518   7.087  19.088  0.00  0.00    +0.000 A 
ATOM      8  C   UNL     1       1.876   7.502  20.265  0.00  0.00    +0.000 A 
ATOM      9  C   UNL     1       1.195   8.720  20.316  0.00  0.00    +0.000 A 
ATOM     10  C   UNL     1       1.154   9.543  19.193  0.00  0.00    +0.000 A 
ATOM     11  C   UNL     1       1.794   9.150  18.020  0.00  0.00    +0.000 A 
ATOM     12  C   UNL     1       2.471   7.930  17.965  0.00  0.00    +0.000 A 
ENDBRANCH   6   7
ENDBRANCH   1   6
BRANCH   2  13
ATOM     13  C   UNL     1       6.747   5.200  17.645  0.00  0.00    +0.000 C 
BRANCH  13  14
ATOM     14  O   UNL     1       6.630   4.549  16.380  0.00  0.00    +0.000 OA
BRANCH  14  15
ATOM     15  C   UNL     1       6.188   5.357  15.376  0.00  0.00    +0.000 C 
ATOM     16  O   UNL     1       5.638   6.438  15.549  0.00  0.00    +0.000 OA
BRANCH  15  17
ATOM     17  C   UNL     1       6.420   4.744  14.085  0.00  0.00    +0.000 A 
ATOM     18  C   UNL     1       7.492   4.870  13.213  0.00  0.00    +0.000 A 
ATOM     19  C   UNL     1       7.223   4.045  12.092  0.00  0.00    +0.000 A 
ATOM     20  C   UNL     1       6.003   3.473  12.351  0.00  0.00    +0.000 A 
ATOM     21  O   UNL     1       5.493   3.885  13.542  0.00  0.00    +0.000 OA
BRANCH  20  22
ATOM     22  N   UNL     1       5.209   2.551  11.598  0.00  0.00    +0.000 N 
ATOM     23  O   UNL     1       5.743   1.465  11.327  0.00  0.00    +0.000 OA
ATOM     24  O   UNL     1       4.067   2.897  11.272  0.00  0.00    +0.000 OA
ENDBRANCH  20  22
ENDBRANCH  15  17
ENDBRANCH  14  15
ENDBRANCH  13  14
ENDBRANCH   2  13
TORSDOF 7
ENDMDL
MODEL 7
REMARK VINA RESULT:      -7.6      2.017      3.308
REMARK  Name = 
REMARK  8 active torsions:
REMARK  status: ('A' for Active; 'I' for Inactive)
REMARK    1  A    between atoms: C_1  and  C_2
REMARK    2  A    between atoms: C_2  and  N_3
REMARK    3  A    between atoms: C_2  and  C_18
REMARK    4  A    between atoms: C_4  and  C_6
REMARK    5  A    between atoms: C_6  and  O_7
REMARK    6  A    between atoms: O_7  and  C_8
REMARK    7  A    between atoms: C_8  and  C_10
REMARK    8  A    between atoms: C_13  and  N_14
REMARK                            x       y       z     vdW  Elec       q    Type
REMARK                         _______ _______ _______ _____ _____    ______ ____
ROOT
ATOM      1  N   UNL     1       4.958   3.915  17.957  0.00  0.00    +0.000 N 
ATOM      2  C   UNL     1       6.074   4.465  18.552  0.00  0.00    +0.000 C 
ATOM      3  O   UNL     1       6.090   4.855  19.717  0.00  0.00    +0.000 OA
ATOM      4  H   UNL     1       4.958   3.730  16.962  0.00  0.00    +0.000 HD
ENDROOT
BRANCH   1   6
ATOM      5  C   UNL     1       2.734   2.847  17.919  0.00  0.00    +0.000 C 
ATOM      6  C   UNL     1       3.705   3.753  18.682  0.00  0.00    +0.000 C 
BRANCH   6   7
ATOM      7  C   UNL     1       3.078   5.104  18.983  0.00  0.00    +0.000 A 
ATOM      8  C   UNL     1       3.096   6.108  18.003  0.00  0.00    +0.000 A 
ATOM      9  C   UNL     1       2.551   7.368  18.262  0.00  0.00    +0.000 A 
ATOM     10  C   UNL     1       1.974   7.636  19.501  0.00  0.00    +0.000 A 
ATOM     11  C   UNL     1       1.940   6.647  20.481  0.00  0.00    +0.000 A 
ATOM     12  C   UNL     1       2.489   5.389  20.226  0.00  0.00    +0.000 A 
ENDBRANCH   6   7
ENDBRANCH   1   6
BRANCH   2  13
ATOM     13  C   UNL     1       7.312   4.533  17.650  0.00  0.00    +0.000 C 
BRANCH  13  14
ATOM     14  O   UNL     1       7.046   4.129  16.307  0.00  0.00    +0.000 OA
BRANCH  14  15
ATOM     15  C   UNL     1       6.825   5.163  15.447  0.00  0.00    +0.000 C 
ATOM     16  O   UNL     1       6.617   6.319  15.794  0.00  0.00    +0.000 OA
BRANCH  15  17
ATOM     17  C   UNL     1       6.828   4.699  14.076  0.00  0.00    +0.000 A 
ATOM     18  C   UNL     1       7.680   5.014  13.026  0.00  0.00    +0.000 A 
ATOM     19  C   UNL     1       7.248   4.274  11.896  0.00  0.00    +0.000 A 
ATOM     20  C   UNL     1       6.160   3.558  12.330  0.00  0.00    +0.000 A 
ATOM     21  O   UNL     1       5.882   3.803  13.638  0.00  0.00    +0.000 OA
BRANCH  20  22
ATOM     22  N   UNL     1       5.303   2.633  11.653  0.00  0.00    +0.000 N 
ATOM     23  O   UNL     1       4.175   3.051  11.355  0.00  0.00    +0.000 OA
ATOM     24  O   UNL     1       5.740   1.499  11.422  0.00  0.00    +0.000 OA
ENDBRANCH  20  22
ENDBRANCH  15  17
ENDBRANCH  14  15
ENDBRANCH  13  14
ENDBRANCH   2  13
TORSDOF 7
ENDMDL
MODEL 8
REMARK VINA RESULT:      -7.5      2.064      3.650
REMARK  Name = 
REMARK  8 active torsions:
REMARK  status: ('A' for Active; 'I' for Inactive)
REMARK    1  A    between atoms: C_1  and  C_2
REMARK    2  A    between atoms: C_2  and  N_3
REMARK    3  A    between atoms: C_2  and  C_18
REMARK    4  A    between atoms: C_4  and  C_6
REMARK    5  A    between atoms: C_6  and  O_7
REMARK    6  A    between atoms: O_7  and  C_8
REMARK    7  A    between atoms: C_8  and  C_10
REMARK    8  A    between atoms: C_13  and  N_14
REMARK                            x       y       z     vdW  Elec       q    Type
REMARK                         _______ _______ _______ _____ _____    ______ ____
ROOT
ATOM      1  N   UNL     1       3.450   5.834  18.173  0.00  0.00    +0.000 N 
ATOM      2  C   UNL     1       4.377   4.819  18.058  0.00  0.00    +0.000 C 
ATOM      3  O   UNL     1       4.847   4.227  19.026  0.00  0.00    +0.000 OA
ATOM      4  H   UNL     1       3.192   6.375  17.358  0.00  0.00    +0.000 HD
ENDROOT
BRANCH   1   6
ATOM      5  C   UNL     1       2.110   5.189  20.142  0.00  0.00    +0.000 C 
ATOM      6  C   UNL     1       2.956   6.275  19.471  0.00  0.00    +0.000 C 
BRANCH   6   7
ATOM      7  C   UNL     1       2.180   7.575  19.339  0.00  0.00    +0.000 A 
ATOM      8  C   UNL     1       2.094   8.205  18.088  0.00  0.00    +0.000 A 
ATOM      9  C   UNL     1       1.410   9.415  17.943  0.00  0.00    +0.000 A 
ATOM     10  C   UNL     1       0.796  10.004  19.046  0.00  0.00    +0.000 A 
ATOM     11  C   UNL     1       0.865   9.387  20.293  0.00  0.00    +0.000 A 
ATOM     12  C   UNL     1       1.553   8.180  20.441  0.00  0.00    +0.000 A 
ENDBRANCH   6   7
ENDBRANCH   1   6
BRANCH   2  13
ATOM     13  C   UNL     1       4.763   4.467  16.617  0.00  0.00    +0.000 C 
BRANCH  13  14
ATOM     14  O   UNL     1       5.737   5.352  16.068  0.00  0.00    +0.000 OA
BRANCH  14  15
ATOM     15  C   UNL     1       6.886   4.738  15.667  0.00  0.00    +0.000 C 
ATOM     16  O   UNL     1       7.829   4.484  16.406  0.00  0.00    +0.000 OA
BRANCH  15  17
ATOM     17  C   UNL     1       6.853   4.466  14.245  0.00  0.00    +0.000 A 
ATOM     18  C   UNL     1       7.599   5.014  13.211  0.00  0.00    +0.000 A 
ATOM     19  C   UNL     1       7.179   4.388  12.010  0.00  0.00    +0.000 A 
ATOM     20  C   UNL     1       6.202   3.502  12.390  0.00  0.00    +0.000 A 
ATOM     21  O   UNL     1       5.981   3.536  13.731  0.00  0.00    +0.000 OA
BRANCH  20  22
ATOM     22  N   UNL     1       5.408   2.585  11.631  0.00  0.00    +0.000 N 
ATOM     23  O   UNL     1       4.256   2.954  11.360  0.00  0.00    +0.000 OA
ATOM     24  O   UNL     1       5.916   1.504  11.308  0.00  0.00    +0.000 OA
ENDBRANCH  20  22
ENDBRANCH  15  17
ENDBRANCH  14  15
ENDBRANCH  13  14
ENDBRANCH   2  13
TORSDOF 7
ENDMDL
MODEL 9
REMARK VINA RESULT:      -7.5      1.630      2.301
REMARK  Name = 
REMARK  8 active torsions:
REMARK  status: ('A' for Active; 'I' for Inactive)
REMARK    1  A    between atoms: C_1  and  C_2
REMARK    2  A    between atoms: C_2  and  N_3
REMARK    3  A    between atoms: C_2  and  C_18
REMARK    4  A    between atoms: C_4  and  C_6
REMARK    5  A    between atoms: C_6  and  O_7
REMARK    6  A    between atoms: O_7  and  C_8
REMARK    7  A    between atoms: C_8  and  C_10
REMARK    8  A    between atoms: C_13  and  N_14
REMARK                            x       y       z     vdW  Elec       q    Type
REMARK                         _______ _______ _______ _____ _____    ______ ____
ROOT
ATOM      1  N   UNL     1       4.398   5.734  18.224  0.00  0.00    +0.000 N 
ATOM      2  C   UNL     1       5.170   6.467  17.346  0.00  0.00    +0.000 C 
ATOM      3  O   UNL     1       4.699   7.288  16.564  0.00  0.00    +0.000 OA
ATOM      4  H   UNL     1       4.817   4.981  18.753  0.00  0.00    +0.000 HD
ENDROOT
BRANCH   1   6
ATOM      5  C   UNL     1       2.567   7.264  18.851  0.00  0.00    +0.000 C 
ATOM      6  C   UNL     1       2.951   5.893  18.287  0.00  0.00    +0.000 C 
BRANCH   6   7
ATOM      7  C   UNL     1       2.320   4.769  19.091  0.00  0.00    +0.000 A 
ATOM      8  C   UNL     1       2.520   4.715  20.479  0.00  0.00    +0.000 A 
ATOM      9  C   UNL     1       1.973   3.678  21.239  0.00  0.00    +0.000 A 
ATOM     10  C   UNL     1       1.214   2.688  20.622  0.00  0.00    +0.000 A 
ATOM     11  C   UNL     1       0.999   2.732  19.247  0.00  0.00    +0.000 A 
ATOM     12  C   UNL     1       1.548   3.764  18.484  0.00  0.00    +0.000 A 
ENDBRANCH   6   7
ENDBRANCH   1   6
BRANCH   2  13
ATOM     13  C   UNL     1       6.675   6.191  17.435  0.00  0.00    +0.000 C 
BRANCH  13  14
ATOM     14  O   UNL     1       7.201   5.577  16.260  0.00  0.00    +0.000 OA
BRANCH  14  15
ATOM     15  C   UNL     1       6.535   4.453  15.873  0.00  0.00    +0.000 C 
ATOM     16  O   UNL     1       5.988   3.673  16.643  0.00  0.00    +0.000 OA
BRANCH  15  17
ATOM     17  C   UNL     1       6.601   4.286  14.436  0.00  0.00    +0.000 A 
ATOM     18  C   UNL     1       7.437   4.883  13.502  0.00  0.00    +0.000 A 
ATOM     19  C   UNL     1       7.091   4.359  12.231  0.00  0.00    +0.000 A 
ATOM     20  C   UNL     1       6.065   3.480  12.472  0.00  0.00    +0.000 A 
ATOM     21  O   UNL     1       5.745   3.424  13.792  0.00  0.00    +0.000 OA
BRANCH  20  22
ATOM     22  N   UNL     1       5.305   2.647  11.591  0.00  0.00    +0.000 N 
ATOM     23  O   UNL     1       4.187   3.072  11.265  0.00  0.00    +0.000 OA
ATOM     24  O   UNL     1       5.806   1.576  11.227  0.00  0.00    +0.000 OA
ENDBRANCH  20  22
ENDBRANCH  15  17
ENDBRANCH  14  15
ENDBRANCH  13  14
ENDBRANCH   2  13
TORSDOF 7
ENDMDL
