MODEL 1
REMARK VINA RESULT:      -8.6      0.000      0.000
REMARK  Name = 
REMARK  9 active torsions:
REMARK  status: ('A' for Active; 'I' for Inactive)
REMARK    1  A    between atoms: C_1  and  C_2
REMARK    2  A    between atoms: C_2  and  O_4
REMARK    3  A    between atoms: O_4  and  C_5
REMARK    4  A    between atoms: C_5  and  O_6
REMARK    5  A    between atoms: O_6  and  C_7
REMARK    6  A    between atoms: C_7  and  C_9
REMARK    7  A    between atoms: C_12  and  C_13
REMARK    8  A    between atoms: N_18  and  C_19
REMARK    9  A    between atoms: C_23  and  C_24
REMARK                            x       y       z     vdW  Elec       q    Type
REMARK                         _______ _______ _______ _____ _____    ______ ____
ROOT
ATOM      1  C   UNL     1       1.159   8.214  21.305  0.00  0.00    +0.000 C 
ATOM      2  C   UNL     1       0.527   9.345  20.959  0.00  0.00    +0.000 C 
ATOM      3  S   UNL     1       0.105   9.875  19.383  0.00  0.00    +0.000 S 
ATOM      4  C   UNL     1      -0.689  11.335  19.979  0.00  0.00    +0.000 C 
ATOM      5  S   UNL     1      -1.316  12.472  18.924  0.00  0.00    +0.000 S 
ATOM      6  N   UNL     1      -0.617  11.372  21.362  0.00  0.00    +0.000 N 
ATOM      7  C   UNL     1       0.065  10.328  21.979  0.00  0.00    +0.000 C 
ATOM      8  O   UNL     1       0.250  10.167  23.179  0.00  0.00    +0.000 OA
ENDROOT
BRANCH   1  12
ATOM      9  C   UNL     1       2.621   5.264  18.572  0.00  0.00    +0.000 A 
ATOM     10  C   UNL     1       2.773   6.629  18.295  0.00  0.00    +0.000 A 
ATOM     11  C   UNL     1       2.296   7.591  19.191  0.00  0.00    +0.000 A 
ATOM     12  C   UNL     1       1.662   7.199  20.375  0.00  0.00    +0.000 A 
ATOM     13  C   UNL     1       1.519   5.838  20.661  0.00  0.00    +0.000 A 
ATOM     14  C   UNL     1       1.995   4.873  19.763  0.00  0.00    +0.000 A 
BRANCH   9  15
ATOM     15  C   UNL     1       3.133   4.278  17.582  0.00  0.00    +0.000 C 
ATOM     16  O   UNL     1       2.435   3.430  17.051  0.00  0.00    +0.000 OA
BRANCH  15  17
ATOM     17  O   UNL     1       4.455   4.462  17.377  0.00  0.00    +0.000 OA
BRANCH  17  18
ATOM     18  C   UNL     1       4.921   4.118  16.075  0.00  0.00    +0.000 C 
BRANCH  18  19
ATOM     19  O   UNL     1       5.531   5.228  15.410  0.00  0.00    +0.000 OA
BRANCH  19  21
ATOM     20  C   UNL     1       6.186   3.854  13.630  0.00  0.00    +0.000 C 
ATOM     21  C   UNL     1       6.586   4.900  14.623  0.00  0.00    +0.000 C 
ATOM     22  O   UNL     1       7.711   5.377  14.699  0.00  0.00    +0.000 OA
ENDBRANCH  19  21
ENDBRANCH  18  19
ENDBRANCH  17  18
ENDBRANCH  15  17
ENDBRANCH   9  15
ENDBRANCH   1  12
BRANCH   6  23
ATOM     23  C   UNL     1      -1.236  12.366  22.171  0.00  0.00    +0.000 A 
ATOM     24  C   UNL     1      -0.489  13.449  22.651  0.00  0.00    +0.000 A 
ATOM     25  C   UNL     1      -1.071  14.387  23.506  0.00  0.00    +0.000 A 
ATOM     26  C   UNL     1      -2.393  14.230  23.920  0.00  0.00    +0.000 A 
ATOM     27  C   UNL     1      -3.154  13.142  23.469  0.00  0.00    +0.000 A 
ATOM     28  C   UNL     1      -2.573  12.225  22.575  0.00  0.00    +0.000 A 
BRANCH  27  29
ATOM     29  C   UNL     1      -4.564  12.930  23.969  0.00  0.00    +0.000 C 
ATOM     30  F   UNL     1      -4.647  12.066  25.018  0.00  0.00    +0.000 F 
ATOM     31  F   UNL     1      -5.151  14.084  24.387  0.00  0.00    +0.000 F 
ATOM     32  F   UNL     1      -5.382  12.422  23.005  0.00  0.00    +0.000 F 
ENDBRANCH  27  29
ENDBRANCH   6  23
TORSDOF 8
ENDMDL
MODEL 2
REMARK VINA RESULT:      -8.6      0.968      1.152
REMARK  Name = 
REMARK  9 active torsions:
REMARK  status: ('A' for Active; 'I' for Inactive)
REMARK    1  A    between atoms: C_1  and  C_2
REMARK    2  A    between atoms: C_2  and  O_4
REMARK    3  A    between atoms: O_4  and  C_5
REMARK    4  A    between atoms: C_5  and  O_6
REMARK    5  A    between atoms: O_6  and  C_7
REMARK    6  A    between atoms: C_7  and  C_9
REMARK    7  A    between atoms: C_12  and  C_13
REMARK    8  A    between atoms: N_18  and  C_19
REMARK    9  A    between atoms: C_23  and  C_24
REMARK                            x       y       z     vdW  Elec       q    Type
REMARK                         _______ _______ _______ _____ _____    ______ ____
ROOT
ATOM      1  C   UNL     1       1.205   8.207  21.268  0.00  0.00    +0.000 C 
ATOM      2  C   UNL     1       0.589   9.341  20.905  0.00  0.00    +0.000 C 
ATOM      3  S   UNL     1       0.186   9.858  19.320  0.00  0.00    +0.000 S 
ATOM      4  C   UNL     1      -0.597  11.334  19.894  0.00  0.00    +0.000 C 
ATOM      5  S   UNL     1      -1.202  12.466  18.822  0.00  0.00    +0.000 S 
ATOM      6  N   UNL     1      -0.534  11.386  21.277  0.00  0.00    +0.000 N 
ATOM      7  C   UNL     1       0.131  10.340  21.911  0.00  0.00    +0.000 C 
ATOM      8  O   UNL     1       0.305  10.191  23.114  0.00  0.00    +0.000 OA
ENDROOT
BRANCH   1  12
ATOM      9  C   UNL     1       2.654   5.210  18.579  0.00  0.00    +0.000 A 
ATOM     10  C   UNL     1       2.805   6.570  18.278  0.00  0.00    +0.000 A 
ATOM     11  C   UNL     1       2.334   7.547  19.161  0.00  0.00    +0.000 A 
ATOM     12  C   UNL     1       1.703   7.176  20.353  0.00  0.00    +0.000 A 
ATOM     13  C   UNL     1       1.561   5.820  20.662  0.00  0.00    +0.000 A 
ATOM     14  C   UNL     1       2.032   4.840  19.780  0.00  0.00    +0.000 A 
BRANCH   9  15
ATOM     15  C   UNL     1       3.161   4.207  17.604  0.00  0.00    +0.000 C 
ATOM     16  O   UNL     1       2.435   3.492  16.933  0.00  0.00    +0.000 OA
BRANCH  15  17
ATOM     17  O   UNL     1       4.511   4.210  17.587  0.00  0.00    +0.000 OA
BRANCH  17  18
ATOM     18  C   UNL     1       5.101   4.379  16.301  0.00  0.00    +0.000 C 
BRANCH  18  19
ATOM     19  O   UNL     1       6.510   4.130  16.318  0.00  0.00    +0.000 OA
BRANCH  19  21
ATOM     20  C   UNL     1       7.164   6.289  16.947  0.00  0.00    +0.000 C 
ATOM     21  C   UNL     1       7.191   4.826  17.262  0.00  0.00    +0.000 C 
ATOM     22  O   UNL     1       7.754   4.346  18.238  0.00  0.00    +0.000 OA
ENDBRANCH  19  21
ENDBRANCH  18  19
ENDBRANCH  17  18
ENDBRANCH  15  17
ENDBRANCH   9  15
ENDBRANCH   1  12
BRANCH   6  23
ATOM     23  C   UNL     1      -1.148  12.396  22.070  0.00  0.00    +0.000 A 
ATOM     24  C   UNL     1      -0.410  13.512  22.483  0.00  0.00    +0.000 A 
ATOM     25  C   UNL     1      -0.983  14.469  23.323  0.00  0.00    +0.000 A 
ATOM     26  C   UNL     1      -2.286  14.298  23.789  0.00  0.00    +0.000 A 
ATOM     27  C   UNL     1      -3.037  13.178  23.406  0.00  0.00    +0.000 A 
ATOM     28  C   UNL     1      -2.466  12.240  22.526  0.00  0.00    +0.000 A 
BRANCH  27  29
ATOM     29  C   UNL     1      -4.424  12.954  23.963  0.00  0.00    +0.000 C 
ATOM     30  F   UNL     1      -4.451  12.122  25.040  0.00  0.00    +0.000 F 
ATOM     31  F   UNL     1      -5.019  14.109  24.366  0.00  0.00    +0.000 F 
ATOM     32  F   UNL     1      -5.265  12.400  23.045  0.00  0.00    +0.000 F 
ENDBRANCH  27  29
ENDBRANCH   6  23
TORSDOF 8
ENDMDL
MODEL 3
REMARK VINA RESULT:      -8.6      1.087      1.698
REMARK  Name = 
REMARK  9 active torsions:
REMARK  status: ('A' for Active; 'I' for Inactive)
REMARK    1  A    between atoms: C_1  and  C_2
REMARK    2  A    between atoms: C_2  and  O_4
REMARK    3  A    between atoms: O_4  and  C_5
REMARK    4  A    between atoms: C_5  and  O_6
REMARK    5  A    between atoms: O_6  and  C_7
REMARK    6  A    between atoms: C_7  and  C_9
REMARK    7  A    between atoms: C_12  and  C_13
REMARK    8  A    between atoms: N_18  and  C_19
REMARK    9  A    between atoms: C_23  and  C_24
REMARK                            x       y       z     vdW  Elec       q    Type
REMARK                         _______ _______ _______ _____ _____    ______ ____
ROOT
ATOM      1  C   UNL     1       1.306   8.235  21.159  0.00  0.00    +0.000 C 
ATOM      2  C   UNL     1       0.707   9.381  20.806  0.00  0.00    +0.000 C 
ATOM      3  S   UNL     1       0.363   9.945  19.223  0.00  0.00    +0.000 S 
ATOM      4  C   UNL     1      -0.437  11.405  19.809  0.00  0.00    +0.000 C 
ATOM      5  S   UNL     1      -0.999  12.570  18.748  0.00  0.00    +0.000 S 
ATOM      6  N   UNL     1      -0.425  11.418  21.195  0.00  0.00    +0.000 N 
ATOM      7  C   UNL     1       0.213  10.352  21.823  0.00  0.00    +0.000 C 
ATOM      8  O   UNL     1       0.342  10.168  23.026  0.00  0.00    +0.000 OA
ENDROOT
BRANCH   1  12
ATOM      9  C   UNL     1       2.859   5.284  18.478  0.00  0.00    +0.000 A 
ATOM     10  C   UNL     1       2.219   4.902  19.664  0.00  0.00    +0.000 A 
ATOM     11  C   UNL     1       1.710   5.868  20.537  0.00  0.00    +0.000 A 
ATOM     12  C   UNL     1       1.836   7.228  20.234  0.00  0.00    +0.000 A 
ATOM     13  C   UNL     1       2.463   7.613  19.046  0.00  0.00    +0.000 A 
ATOM     14  C   UNL     1       2.975   6.646  18.171  0.00  0.00    +0.000 A 
BRANCH   9  15
ATOM     15  C   UNL     1       3.396   4.219  17.587  0.00  0.00    +0.000 C 
ATOM     16  O   UNL     1       3.108   3.039  17.697  0.00  0.00    +0.000 OA
BRANCH  15  17
ATOM     17  O   UNL     1       4.232   4.752  16.670  0.00  0.00    +0.000 OA
BRANCH  17  18
ATOM     18  C   UNL     1       5.531   4.168  16.622  0.00  0.00    +0.000 C 
BRANCH  18  19
ATOM     19  O   UNL     1       6.372   4.636  17.680  0.00  0.00    +0.000 OA
BRANCH  19  21
ATOM     20  C   UNL     1       7.718   6.331  18.573  0.00  0.00    +0.000 C 
ATOM     21  C   UNL     1       7.170   5.680  17.343  0.00  0.00    +0.000 C 
ATOM     22  O   UNL     1       7.418   6.052  16.203  0.00  0.00    +0.000 OA
ENDBRANCH  19  21
ENDBRANCH  18  19
ENDBRANCH  17  18
ENDBRANCH  15  17
ENDBRANCH   9  15
ENDBRANCH   1  12
BRANCH   6  23
ATOM     23  C   UNL     1      -1.066  12.407  21.993  0.00  0.00    +0.000 A 
ATOM     24  C   UNL     1      -0.348  13.519  22.448  0.00  0.00    +0.000 A 
ATOM     25  C   UNL     1      -0.949  14.453  23.293  0.00  0.00    +0.000 A 
ATOM     26  C   UNL     1      -2.262  14.264  23.722  0.00  0.00    +0.000 A 
ATOM     27  C   UNL     1      -2.994  13.147  23.297  0.00  0.00    +0.000 A 
ATOM     28  C   UNL     1      -2.395  12.233  22.412  0.00  0.00    +0.000 A 
BRANCH  27  29
ATOM     29  C   UNL     1      -4.393  12.902  23.814  0.00  0.00    +0.000 C 
ATOM     30  F   UNL     1      -5.259  12.465  22.858  0.00  0.00    +0.000 F 
ATOM     31  F   UNL     1      -4.429  11.972  24.806  0.00  0.00    +0.000 F 
ATOM     32  F   UNL     1      -4.955  14.029  24.335  0.00  0.00    +0.000 F 
ENDBRANCH  27  29
ENDBRANCH   6  23
TORSDOF 8
ENDMDL
MODEL 4
REMARK VINA RESULT:      -8.5      0.552      1.240
REMARK  Name = 
REMARK  9 active torsions:
REMARK  status: ('A' for Active; 'I' for Inactive)
REMARK    1  A    between atoms: C_1  and  C_2
REMARK    2  A    between atoms: C_2  and  O_4
REMARK    3  A    between atoms: O_4  and  C_5
REMARK    4  A    between atoms: C_5  and  O_6
REMARK    5  A    between atoms: O_6  and  C_7
REMARK    6  A    between atoms: C_7  and  C_9
REMARK    7  A    between atoms: C_12  and  C_13
REMARK    8  A    between atoms: N_18  and  C_19
REMARK    9  A    between atoms: C_23  and  C_24
REMARK                            x       y       z     vdW  Elec       q    Type
REMARK                         _______ _______ _______ _____ _____    ______ ____
ROOT
ATOM      1  C   UNL     1       1.464   8.148  21.024  0.00  0.00    +0.000 C 
ATOM      2  C   UNL     1       0.818   9.263  20.656  0.00  0.00    +0.000 C 
ATOM      3  S   UNL     1       0.287   9.702  19.085  0.00  0.00    +0.000 S 
ATOM      4  C   UNL     1      -0.451  11.205  19.645  0.00  0.00    +0.000 C 
ATOM      5  S   UNL     1      -1.143  12.283  18.570  0.00  0.00    +0.000 S 
ATOM      6  N   UNL     1      -0.278  11.325  21.014  0.00  0.00    +0.000 N 
ATOM      7  C   UNL     1       0.439  10.312  21.644  0.00  0.00    +0.000 C 
ATOM      8  O   UNL     1       0.709  10.222  22.835  0.00  0.00    +0.000 OA
ENDROOT
BRANCH   1  12
ATOM      9  C   UNL     1       2.713   4.993  18.418  0.00  0.00    +0.000 A 
ATOM     10  C   UNL     1       2.035   4.705  19.609  0.00  0.00    +0.000 A 
ATOM     11  C   UNL     1       1.625   5.739  20.457  0.00  0.00    +0.000 A 
ATOM     12  C   UNL     1       1.891   7.072  20.125  0.00  0.00    +0.000 A 
ATOM     13  C   UNL     1       2.557   7.363  18.931  0.00  0.00    +0.000 A 
ATOM     14  C   UNL     1       2.969   6.329  18.081  0.00  0.00    +0.000 A 
BRANCH   9  15
ATOM     15  C   UNL     1       3.141   3.859  17.554  0.00  0.00    +0.000 C 
ATOM     16  O   UNL     1       2.368   3.039  17.085  0.00  0.00    +0.000 OA
BRANCH  15  17
ATOM     17  O   UNL     1       4.480   3.878  17.383  0.00  0.00    +0.000 OA
BRANCH  17  18
ATOM     18  C   UNL     1       4.920   4.238  16.076  0.00  0.00    +0.000 C 
BRANCH  18  19
ATOM     19  O   UNL     1       6.229   4.814  16.088  0.00  0.00    +0.000 OA
BRANCH  19  21
ATOM     20  C   UNL     1       6.179   3.848  13.956  0.00  0.00    +0.000 C 
ATOM     21  C   UNL     1       6.858   4.803  14.886  0.00  0.00    +0.000 C 
ATOM     22  O   UNL     1       7.841   5.469  14.587  0.00  0.00    +0.000 OA
ENDBRANCH  19  21
ENDBRANCH  18  19
ENDBRANCH  17  18
ENDBRANCH  15  17
ENDBRANCH   9  15
ENDBRANCH   1  12
BRANCH   6  23
ATOM     23  C   UNL     1      -0.829  12.375  21.803  0.00  0.00    +0.000 A 
ATOM     24  C   UNL     1      -0.070  13.517  22.084  0.00  0.00    +0.000 A 
ATOM     25  C   UNL     1      -0.576  14.516  22.918  0.00  0.00    +0.000 A 
ATOM     26  C   UNL     1      -1.829  14.363  23.510  0.00  0.00    +0.000 A 
ATOM     27  C   UNL     1      -2.598  13.218  23.260  0.00  0.00    +0.000 A 
ATOM     28  C   UNL     1      -2.098  12.236  22.385  0.00  0.00    +0.000 A 
BRANCH  27  29
ATOM     29  C   UNL     1      -3.926  13.016  23.953  0.00  0.00    +0.000 C 
ATOM     30  F   UNL     1      -4.988  12.995  23.101  0.00  0.00    +0.000 F 
ATOM     31  F   UNL     1      -3.981  11.849  24.650  0.00  0.00    +0.000 F 
ATOM     32  F   UNL     1      -4.192  14.003  24.853  0.00  0.00    +0.000 F 
ENDBRANCH  27  29
ENDBRANCH   6  23
TORSDOF 8
ENDMDL
MODEL 5
REMARK VINA RESULT:      -8.2      1.918      2.634
REMARK  Name = 
REMARK  9 active torsions:
REMARK  status: ('A' for Active; 'I' for Inactive)
REMARK    1  A    between atoms: C_1  and  C_2
REMARK    2  A    between atoms: C_2  and  O_4
REMARK    3  A    between atoms: O_4  and  C_5
REMARK    4  A    between atoms: C_5  and  O_6
REMARK    5  A    between atoms: O_6  and  C_7
REMARK    6  A    between atoms: C_7  and  C_9
REMARK    7  A    between atoms: C_12  and  C_13
REMARK    8  A    between atoms: N_18  and  C_19
REMARK    9  A    between atoms: C_23  and  C_24
REMARK                            x       y       z     vdW  Elec       q    Type
REMARK                         _______ _______ _______ _____ _____    ______ ____
ROOT
ATOM      1  C   UNL     1       1.109   8.359  21.474  0.00  0.00    +0.000 C 
ATOM      2  C   UNL     1       0.379   9.458  21.238  0.00  0.00    +0.000 C 
ATOM      3  S   UNL     1      -0.134  10.075  19.721  0.00  0.00    +0.000 S 
ATOM      4  C   UNL     1      -1.023  11.413  20.454  0.00  0.00    +0.000 C 
ATOM      5  S   UNL     1      -1.771  12.575  19.512  0.00  0.00    +0.000 S 
ATOM      6  N   UNL     1      -0.909  11.346  21.834  0.00  0.00    +0.000 N 
ATOM      7  C   UNL     1      -0.127  10.316  22.346  0.00  0.00    +0.000 C 
ATOM      8  O   UNL     1       0.108  10.075  23.524  0.00  0.00    +0.000 OA
ENDROOT
BRANCH   1  12
ATOM      9  C   UNL     1       2.730   5.736  18.507  0.00  0.00    +0.000 A 
ATOM     10  C   UNL     1       2.179   5.221  19.687  0.00  0.00    +0.000 A 
ATOM     11  C   UNL     1       1.647   6.081  20.654  0.00  0.00    +0.000 A 
ATOM     12  C   UNL     1       1.662   7.465  20.451  0.00  0.00    +0.000 A 
ATOM     13  C   UNL     1       2.201   7.982  19.269  0.00  0.00    +0.000 A 
ATOM     14  C   UNL     1       2.735   7.122  18.301  0.00  0.00    +0.000 A 
BRANCH   9  15
ATOM     15  C   UNL     1       3.296   4.783  17.513  0.00  0.00    +0.000 C 
ATOM     16  O   UNL     1       2.872   3.651  17.348  0.00  0.00    +0.000 OA
BRANCH  15  17
ATOM     17  O   UNL     1       4.326   5.351  16.851  0.00  0.00    +0.000 OA
BRANCH  17  18
ATOM     18  C   UNL     1       5.319   4.445  16.380  0.00  0.00    +0.000 C 
BRANCH  18  19
ATOM     19  O   UNL     1       6.609   5.058  16.291  0.00  0.00    +0.000 OA
BRANCH  19  21
ATOM     20  C   UNL     1       7.393   6.755  17.701  0.00  0.00    +0.000 C 
ATOM     21  C   UNL     1       7.206   5.285  17.487  0.00  0.00    +0.000 C 
ATOM     22  O   UNL     1       7.551   4.427  18.290  0.00  0.00    +0.000 OA
ENDBRANCH  19  21
ENDBRANCH  18  19
ENDBRANCH  17  18
ENDBRANCH  15  17
ENDBRANCH   9  15
ENDBRANCH   1  12
BRANCH   6  23
ATOM     23  C   UNL     1      -1.580  12.219  22.737  0.00  0.00    +0.000 A 
ATOM     24  C   UNL     1      -2.886  11.934  23.153  0.00  0.00    +0.000 A 
ATOM     25  C   UNL     1      -3.577  12.823  23.978  0.00  0.00    +0.000 A 
ATOM     26  C   UNL     1      -2.982  14.024  24.363  0.00  0.00    +0.000 A 
ATOM     27  C   UNL     1      -1.683  14.341  23.942  0.00  0.00    +0.000 A 
ATOM     28  C   UNL     1      -0.979  13.420  23.145  0.00  0.00    +0.000 A 
BRANCH  27  29
ATOM     29  C   UNL     1      -1.061  15.671  24.300  0.00  0.00    +0.000 C 
ATOM     30  F   UNL     1       0.067  15.953  23.592  0.00  0.00    +0.000 F 
ATOM     31  F   UNL     1      -1.906  16.717  24.091  0.00  0.00    +0.000 F 
ATOM     32  F   UNL     1      -0.702  15.736  25.612  0.00  0.00    +0.000 F 
ENDBRANCH  27  29
ENDBRANCH   6  23
TORSDOF 8
ENDMDL
MODEL 6
REMARK VINA RESULT:      -8.2      0.889      1.376
REMARK  Name = 
REMARK  9 active torsions:
REMARK  status: ('A' for Active; 'I' for Inactive)
REMARK    1  A    between atoms: C_1  and  C_2
REMARK    2  A    between atoms: C_2  and  O_4
REMARK    3  A    between atoms: O_4  and  C_5
REMARK    4  A    between atoms: C_5  and  O_6
REMARK    5  A    between atoms: O_6  and  C_7
REMARK    6  A    between atoms: C_7  and  C_9
REMARK    7  A    between atoms: C_12  and  C_13
REMARK    8  A    between atoms: N_18  and  C_19
REMARK    9  A    between atoms: C_23  and  C_24
REMARK                            x       y       z     vdW  Elec       q    Type
REMARK                         _______ _______ _______ _____ _____    ______ ____
ROOT
ATOM      1  C   UNL     1       1.244   8.127  21.314  0.00  0.00    +0.000 C 
ATOM      2  C   UNL     1       0.644   9.256  20.912  0.00  0.00    +0.000 C 
ATOM      3  S   UNL     1       0.239   9.721  19.311  0.00  0.00    +0.000 S 
ATOM      4  C   UNL     1      -0.517  11.229  19.833  0.00  0.00    +0.000 C 
ATOM      5  S   UNL     1      -1.110  12.330  18.723  0.00  0.00    +0.000 S 
ATOM      6  N   UNL     1      -0.445  11.331  21.213  0.00  0.00    +0.000 N 
ATOM      7  C   UNL     1       0.207  10.300  21.882  0.00  0.00    +0.000 C 
ATOM      8  O   UNL     1       0.386  10.192  23.089  0.00  0.00    +0.000 OA
ENDROOT
BRANCH   1  12
ATOM      9  C   UNL     1       2.639   4.983  18.769  0.00  0.00    +0.000 A 
ATOM     10  C   UNL     1       1.882   4.691  19.911  0.00  0.00    +0.000 A 
ATOM     11  C   UNL     1       1.425   5.722  20.739  0.00  0.00    +0.000 A 
ATOM     12  C   UNL     1       1.721   7.055  20.435  0.00  0.00    +0.000 A 
ATOM     13  C   UNL     1       2.467   7.350  19.290  0.00  0.00    +0.000 A 
ATOM     14  C   UNL     1       2.926   6.319  18.461  0.00  0.00    +0.000 A 
BRANCH   9  15
ATOM     15  C   UNL     1       3.114   3.852  17.925  0.00  0.00    +0.000 C 
ATOM     16  O   UNL     1       2.982   2.679  18.233  0.00  0.00    +0.000 OA
BRANCH  15  17
ATOM     17  O   UNL     1       3.704   4.319  16.804  0.00  0.00    +0.000 OA
BRANCH  17  18
ATOM     18  C   UNL     1       5.044   3.884  16.597  0.00  0.00    +0.000 C 
BRANCH  18  19
ATOM     19  O   UNL     1       5.731   4.694  15.638  0.00  0.00    +0.000 OA
BRANCH  19  21
ATOM     20  C   UNL     1       6.556   6.267  17.164  0.00  0.00    +0.000 C 
ATOM     21  C   UNL     1       5.747   6.018  15.930  0.00  0.00    +0.000 C 
ATOM     22  O   UNL     1       5.185   6.899  15.290  0.00  0.00    +0.000 OA
ENDBRANCH  19  21
ENDBRANCH  18  19
ENDBRANCH  17  18
ENDBRANCH  15  17
ENDBRANCH   9  15
ENDBRANCH   1  12
BRANCH   6  23
ATOM     23  C   UNL     1      -1.038  12.380  21.971  0.00  0.00    +0.000 A 
ATOM     24  C   UNL     1      -0.286  13.508  22.322  0.00  0.00    +0.000 A 
ATOM     25  C   UNL     1      -0.838  14.505  23.128  0.00  0.00    +0.000 A 
ATOM     26  C   UNL     1      -2.134  14.364  23.623  0.00  0.00    +0.000 A 
ATOM     27  C   UNL     1      -2.899  13.234  23.303  0.00  0.00    +0.000 A 
ATOM     28  C   UNL     1      -2.349  12.254  22.456  0.00  0.00    +0.000 A 
BRANCH  27  29
ATOM     29  C   UNL     1      -4.277  13.045  23.893  0.00  0.00    +0.000 C 
ATOM     30  F   UNL     1      -4.309  12.170  24.935  0.00  0.00    +0.000 F 
ATOM     31  F   UNL     1      -4.809  14.205  24.363  0.00  0.00    +0.000 F 
ATOM     32  F   UNL     1      -5.167  12.566  22.980  0.00  0.00    +0.000 F 
ENDBRANCH  27  29
ENDBRANCH   6  23
TORSDOF 8
ENDMDL
MODEL 7
REMARK VINA RESULT:      -8.1      1.842      2.387
REMARK  Name = 
REMARK  9 active torsions:
REMARK  status: ('A' for Active; 'I' for Inactive)
REMARK    1  A    between atoms: C_1  and  C_2
REMARK    2  A    between atoms: C_2  and  O_4
REMARK    3  A    between atoms: O_4  and  C_5
REMARK    4  A    between atoms: C_5  and  O_6
REMARK    5  A    between atoms: O_6  and  C_7
REMARK    6  A    between atoms: C_7  and  C_9
REMARK    7  A    between atoms: C_12  and  C_13
REMARK    8  A    between atoms: N_18  and  C_19
REMARK    9  A    between atoms: C_23  and  C_24
REMARK                            x       y       z     vdW  Elec       q    Type
REMARK                         _______ _______ _______ _____ _____    ______ ____
ROOT
ATOM      1  C   UNL     1       1.142   8.278  21.491  0.00  0.00    +0.000 C 
ATOM      2  C   UNL     1       0.436   9.384  21.217  0.00  0.00    +0.000 C 
ATOM      3  S   UNL     1      -0.075   9.952  19.681  0.00  0.00    +0.000 S 
ATOM      4  C   UNL     1      -0.927  11.339  20.367  0.00  0.00    +0.000 C 
ATOM      5  S   UNL     1      -1.655  12.480  19.385  0.00  0.00    +0.000 S 
ATOM      6  N   UNL     1      -0.803  11.324  21.747  0.00  0.00    +0.000 N 
ATOM      7  C   UNL     1      -0.041  10.296  22.294  0.00  0.00    +0.000 C 
ATOM      8  O   UNL     1       0.198  10.097  23.479  0.00  0.00    +0.000 OA
ENDROOT
BRANCH   1  12
ATOM      9  C   UNL     1       2.663   5.532  18.584  0.00  0.00    +0.000 A 
ATOM     10  C   UNL     1       2.774   6.913  18.384  0.00  0.00    +0.000 A 
ATOM     11  C   UNL     1       2.279   7.809  19.337  0.00  0.00    +0.000 A 
ATOM     12  C   UNL     1       1.666   7.332  20.501  0.00  0.00    +0.000 A 
ATOM     13  C   UNL     1       1.563   5.953  20.710  0.00  0.00    +0.000 A 
ATOM     14  C   UNL     1       2.058   5.056  19.755  0.00  0.00    +0.000 A 
BRANCH   9  15
ATOM     15  C   UNL     1       3.194   4.618  17.535  0.00  0.00    +0.000 C 
ATOM     16  O   UNL     1       2.599   3.631  17.137  0.00  0.00    +0.000 OA
BRANCH  15  17
ATOM     17  O   UNL     1       4.406   5.041  17.115  0.00  0.00    +0.000 OA
BRANCH  17  18
ATOM     18  C   UNL     1       5.009   4.242  16.101  0.00  0.00    +0.000 C 
BRANCH  18  19
ATOM     19  O   UNL     1       6.398   4.011  16.353  0.00  0.00    +0.000 OA
BRANCH  19  21
ATOM     20  C   UNL     1       7.575   5.018  18.110  0.00  0.00    +0.000 C 
ATOM     21  C   UNL     1       7.099   5.121  16.695  0.00  0.00    +0.000 C 
ATOM     22  O   UNL     1       7.320   6.080  15.966  0.00  0.00    +0.000 OA
ENDBRANCH  19  21
ENDBRANCH  18  19
ENDBRANCH  17  18
ENDBRANCH  15  17
ENDBRANCH   9  15
ENDBRANCH   1  12
BRANCH   6  23
ATOM     23  C   UNL     1      -1.446  12.247  22.619  0.00  0.00    +0.000 A 
ATOM     24  C   UNL     1      -2.757  12.013  23.051  0.00  0.00    +0.000 A 
ATOM     25  C   UNL     1      -3.420  12.950  23.845  0.00  0.00    +0.000 A 
ATOM     26  C   UNL     1      -2.792  14.148  24.183  0.00  0.00    +0.000 A 
ATOM     27  C   UNL     1      -1.487  14.415  23.745  0.00  0.00    +0.000 A 
ATOM     28  C   UNL     1      -0.811  13.446  22.980  0.00  0.00    +0.000 A 
BRANCH  27  29
ATOM     29  C   UNL     1      -0.828  15.740  24.050  0.00  0.00    +0.000 C 
ATOM     30  F   UNL     1      -0.555  15.921  25.372  0.00  0.00    +0.000 F 
ATOM     31  F   UNL     1       0.354  15.900  23.398  0.00  0.00    +0.000 F 
ATOM     32  F   UNL     1      -1.605  16.798  23.684  0.00  0.00    +0.000 F 
ENDBRANCH  27  29
ENDBRANCH   6  23
TORSDOF 8
ENDMDL
MODEL 8
REMARK VINA RESULT:      -8.1      1.471      2.701
REMARK  Name = 
REMARK  9 active torsions:
REMARK  status: ('A' for Active; 'I' for Inactive)
REMARK    1  A    between atoms: C_1  and  C_2
REMARK    2  A    between atoms: C_2  and  O_4
REMARK    3  A    between atoms: O_4  and  C_5
REMARK    4  A    between atoms: C_5  and  O_6
REMARK    5  A    between atoms: O_6  and  C_7
REMARK    6  A    between atoms: C_7  and  C_9
REMARK    7  A    between atoms: C_12  and  C_13
REMARK    8  A    between atoms: N_18  and  C_19
REMARK    9  A    between atoms: C_23  and  C_24
REMARK                            x       y       z     vdW  Elec       q    Type
REMARK                         _______ _______ _______ _____ _____    ______ ____
ROOT
ATOM      1  C   UNL     1       1.191   8.447  21.212  0.00  0.00    +0.000 C 
ATOM      2  C   UNL     1       0.551   9.584  20.905  0.00  0.00    +0.000 C 
ATOM      3  S   UNL     1       0.167  10.187  19.345  0.00  0.00    +0.000 S 
ATOM      4  C   UNL     1      -0.669  11.602  19.988  0.00  0.00    +0.000 C 
ATOM      5  S   UNL     1      -1.283  12.781  18.973  0.00  0.00    +0.000 S 
ATOM      6  N   UNL     1      -0.638  11.571  21.374  0.00  0.00    +0.000 N 
ATOM      7  C   UNL     1       0.042  10.507  21.958  0.00  0.00    +0.000 C 
ATOM      8  O   UNL     1       0.194  10.288  23.153  0.00  0.00    +0.000 OA
ENDROOT
BRANCH   1  12
ATOM      9  C   UNL     1       2.796   5.633  18.417  0.00  0.00    +0.000 A 
ATOM     10  C   UNL     1       2.150   5.192  19.579  0.00  0.00    +0.000 A 
ATOM     11  C   UNL     1       1.623   6.115  20.489  0.00  0.00    +0.000 A 
ATOM     12  C   UNL     1       1.739   7.488  20.248  0.00  0.00    +0.000 A 
ATOM     13  C   UNL     1       2.373   7.931  19.084  0.00  0.00    +0.000 A 
ATOM     14  C   UNL     1       2.901   7.009  18.172  0.00  0.00    +0.000 A 
BRANCH   9  15
ATOM     15  C   UNL     1       3.351   4.614  17.484  0.00  0.00    +0.000 C 
ATOM     16  O   UNL     1       4.287   4.827  16.732  0.00  0.00    +0.000 OA
BRANCH  15  17
ATOM     17  O   UNL     1       2.668   3.455  17.596  0.00  0.00    +0.000 OA
BRANCH  17  18
ATOM     18  C   UNL     1       3.471   2.295  17.797  0.00  0.00    +0.000 C 
BRANCH  18  19
ATOM     19  O   UNL     1       3.226   1.683  19.067  0.00  0.00    +0.000 OA
BRANCH  19  21
ATOM     20  C   UNL     1       2.995   2.375  21.292  0.00  0.00    +0.000 C 
ATOM     21  C   UNL     1       3.893   2.252  20.102  0.00  0.00    +0.000 C 
ATOM     22  O   UNL     1       5.061   2.619  20.085  0.00  0.00    +0.000 OA
ENDBRANCH  19  21
ENDBRANCH  18  19
ENDBRANCH  17  18
ENDBRANCH  15  17
ENDBRANCH   9  15
ENDBRANCH   1  12
BRANCH   6  23
ATOM     23  C   UNL     1      -1.298  12.513  22.212  0.00  0.00    +0.000 A 
ATOM     24  C   UNL     1      -0.587  13.587  22.760  0.00  0.00    +0.000 A 
ATOM     25  C   UNL     1      -1.208  14.473  23.642  0.00  0.00    +0.000 A 
ATOM     26  C   UNL     1      -2.536  14.269  24.016  0.00  0.00    +0.000 A 
ATOM     27  C   UNL     1      -3.263  13.188  23.497  0.00  0.00    +0.000 A 
ATOM     28  C   UNL     1      -2.640  12.325  22.576  0.00  0.00    +0.000 A 
BRANCH  27  29
ATOM     29  C   UNL     1      -4.679  12.924  23.951  0.00  0.00    +0.000 C 
ATOM     30  F   UNL     1      -4.764  12.053  24.994  0.00  0.00    +0.000 F 
ATOM     31  F   UNL     1      -5.319  14.054  24.354  0.00  0.00    +0.000 F 
ATOM     32  F   UNL     1      -5.447  12.391  22.961  0.00  0.00    +0.000 F 
ENDBRANCH  27  29
ENDBRANCH   6  23
TORSDOF 8
ENDMDL
MODEL 9
REMARK VINA RESULT:      -8.1      5.709     11.756
REMARK  Name = 
REMARK  9 active torsions:
REMARK  status: ('A' for Active; 'I' for Inactive)
REMARK    1  A    between atoms: C_1  and  C_2
REMARK    2  A    between atoms: C_2  and  O_4
REMARK    3  A    between atoms: O_4  and  C_5
REMARK    4  A    between atoms: C_5  and  O_6
REMARK    5  A    between atoms: O_6  and  C_7
REMARK    6  A    between atoms: C_7  and  C_9
REMARK    7  A    between atoms: C_12  and  C_13
REMARK    8  A    between atoms: N_18  and  C_19
REMARK    9  A    between atoms: C_23  and  C_24
REMARK                            x       y       z     vdW  Elec       q    Type
REMARK                         _______ _______ _______ _____ _____    ______ ____
ROOT
ATOM      1  C   UNL     1       0.989   9.692  19.564  0.00  0.00    +0.000 C 
ATOM      2  C   UNL     1       1.436   8.439  19.726  0.00  0.00    +0.000 C 
ATOM      3  S   UNL     1       1.084   7.355  21.009  0.00  0.00    +0.000 S 
ATOM      4  C   UNL     1       2.037   6.049  20.298  0.00  0.00    +0.000 C 
ATOM      5  S   UNL     1       2.242   4.593  21.096  0.00  0.00    +0.000 S 
ATOM      6  N   UNL     1       2.589   6.474  19.101  0.00  0.00    +0.000 N 
ATOM      7  C   UNL     1       2.331   7.790  18.728  0.00  0.00    +0.000 C 
ATOM      8  O   UNL     1       2.720   8.367  17.720  0.00  0.00    +0.000 OA
ENDROOT
BRANCH   1  12
ATOM      9  C   UNL     1      -1.545  11.827  22.271  0.00  0.00    +0.000 A 
ATOM     10  C   UNL     1      -1.646  12.033  20.889  0.00  0.00    +0.000 A 
ATOM     11  C   UNL     1      -0.818  11.332  20.007  0.00  0.00    +0.000 A 
ATOM     12  C   UNL     1       0.121  10.417  20.496  0.00  0.00    +0.000 A 
ATOM     13  C   UNL     1       0.216  10.200  21.874  0.00  0.00    +0.000 A 
ATOM     14  C   UNL     1      -0.612  10.902  22.759  0.00  0.00    +0.000 A 
BRANCH   9  15
ATOM     15  C   UNL     1      -2.439  12.606  23.171  0.00  0.00    +0.000 C 
ATOM     16  O   UNL     1      -2.085  13.607  23.771  0.00  0.00    +0.000 OA
BRANCH  15  17
ATOM     17  O   UNL     1      -3.663  12.039  23.222  0.00  0.00    +0.000 OA
BRANCH  17  18
ATOM     18  C   UNL     1      -4.436  12.364  24.374  0.00  0.00    +0.000 C 
BRANCH  18  19
ATOM     19  O   UNL     1      -5.475  13.302  24.078  0.00  0.00    +0.000 OA
BRANCH  19  21
ATOM     20  C   UNL     1      -7.749  13.860  24.016  0.00  0.00    +0.000 C 
ATOM     21  C   UNL     1      -6.723  12.771  24.064  0.00  0.00    +0.000 C 
ATOM     22  O   UNL     1      -6.993  11.577  24.088  0.00  0.00    +0.000 OA
ENDBRANCH  19  21
ENDBRANCH  18  19
ENDBRANCH  17  18
ENDBRANCH  15  17
ENDBRANCH   9  15
ENDBRANCH   1  12
BRANCH   6  23
ATOM     23  C   UNL     1       3.340   5.642  18.223  0.00  0.00    +0.000 A 
ATOM     24  C   UNL     1       2.736   4.535  17.616  0.00  0.00    +0.000 A 
ATOM     25  C   UNL     1       3.485   3.671  16.814  0.00  0.00    +0.000 A 
ATOM     26  C   UNL     1       4.852   3.885  16.644  0.00  0.00    +0.000 A 
ATOM     27  C   UNL     1       5.483   4.975  17.259  0.00  0.00    +0.000 A 
ATOM     28  C   UNL     1       4.712   5.864  18.031  0.00  0.00    +0.000 A 
BRANCH  27  29
ATOM     29  C   UNL     1       6.976   5.172  17.134  0.00  0.00    +0.000 C 
ATOM     30  F   UNL     1       7.359   6.478  17.171  0.00  0.00    +0.000 F 
ATOM     31  F   UNL     1       7.671   4.550  18.125  0.00  0.00    +0.000 F 
ATOM     32  F   UNL     1       7.465   4.675  15.964  0.00  0.00    +0.000 F 
ENDBRANCH  27  29
ENDBRANCH   6  23
TORSDOF 8
ENDMDL
