MODEL 1
REMARK VINA RESULT:      -7.6      0.000      0.000
REMARK  Name = 
REMARK  4 active torsions:
REMARK  status: ('A' for Active; 'I' for Inactive)
REMARK    1  A    between atoms: C_1  and  C_2
REMARK    2  A    between atoms: C_2  and  C_3
REMARK    3  A    between atoms: C_3  and  C_4
REMARK    4  A    between atoms: C_6  and  N_7
REMARK                            x       y       z     vdW  Elec       q    Type
REMARK                         _______ _______ _______ _____ _____    ______ ____
ROOT
ATOM      1  C   UNL     1       6.503   4.643  15.503  0.00  0.00    +0.000 A 
ATOM      2  C   UNL     1       5.219   4.113  16.029  0.00  0.00    +0.000 A 
ATOM      3  C   UNL     1       4.994   4.212  17.359  0.00  0.00    +0.000 A 
ATOM      4  N   UNL     1       6.016   4.807  18.153  0.00  0.00    +0.000 N 
ATOM      5  N   UNL     1       6.045   4.996  19.510  0.00  0.00    +0.000 NA
ATOM      6  C   UNL     1       7.222   5.565  19.750  0.00  0.00    +0.000 A 
ATOM      7  C   UNL     1       7.975   5.766  18.590  0.00  0.00    +0.000 A 
ATOM      8  C   UNL     1       7.199   5.272  17.565  0.00  0.00    +0.000 A 
ATOM      9  N   UNL     1       7.436   5.198  16.225  0.00  0.00    +0.000 NA
ENDROOT
BRANCH   3  10
ATOM     10  N   UNL     1       3.794   3.774  17.931  0.00  0.00    +0.000 N 
ATOM     11  C   UNL     1       3.329   2.382  17.830  0.00  0.00    +0.000 C 
ATOM     12  C   UNL     1       3.031   1.910  19.254  0.00  0.00    +0.000 C 
ATOM     13  N   UNL     1       2.050   2.759  19.901  0.00  0.00    +0.000 N 
ATOM     14  C   UNL     1       1.983   4.112  19.672  0.00  0.00    +0.000 C 
ATOM     15  O   UNL     1       1.253   4.811  20.375  0.00  0.00    +0.000 OA
ATOM     16  C   UNL     1       2.775   4.698  18.488  0.00  0.00    +0.000 C 
ATOM     17  H   UNL     1       1.569   2.440  20.730  0.00  0.00    +0.000 HD
ENDBRANCH   3  10
BRANCH   1  18
ATOM     18  C   UNL     1       6.722   4.526  14.007  0.00  0.00    +0.000 C 
BRANCH  18  20
ATOM     19  C   UNL     1       5.944   3.114  12.073  0.00  0.00    +0.000 C 
ATOM     20  C   UNL     1       5.541   3.808  13.362  0.00  0.00    +0.000 C 
ENDBRANCH  18  20
ENDBRANCH   1  18
TORSDOF 3
ENDMDL
MODEL 2
REMARK VINA RESULT:      -7.5      0.998      1.056
REMARK  Name = 
REMARK  4 active torsions:
REMARK  status: ('A' for Active; 'I' for Inactive)
REMARK    1  A    between atoms: C_1  and  C_2
REMARK    2  A    between atoms: C_2  and  C_3
REMARK    3  A    between atoms: C_3  and  C_4
REMARK    4  A    between atoms: C_6  and  N_7
REMARK                            x       y       z     vdW  Elec       q    Type
REMARK                         _______ _______ _______ _____ _____    ______ ____
ROOT
ATOM      1  C   UNL     1       6.542   4.824  15.514  0.00  0.00    +0.000 A 
ATOM      2  C   UNL     1       5.441   4.006  16.084  0.00  0.00    +0.000 A 
ATOM      3  C   UNL     1       5.279   4.016  17.426  0.00  0.00    +0.000 A 
ATOM      4  N   UNL     1       6.189   4.802  18.189  0.00  0.00    +0.000 N 
ATOM      5  N   UNL     1       6.254   4.956  19.550  0.00  0.00    +0.000 NA
ATOM      6  C   UNL     1       7.288   5.766  19.752  0.00  0.00    +0.000 A 
ATOM      7  C   UNL     1       7.909   6.163  18.562  0.00  0.00    +0.000 A 
ATOM      8  C   UNL     1       7.202   5.536  17.561  0.00  0.00    +0.000 A 
ATOM      9  N   UNL     1       7.370   5.553  16.208  0.00  0.00    +0.000 NA
ENDROOT
BRANCH   3  10
ATOM     10  N   UNL     1       4.241   3.304  18.041  0.00  0.00    +0.000 N 
ATOM     11  C   UNL     1       4.453   2.456  19.224  0.00  0.00    +0.000 C 
ATOM     12  C   UNL     1       3.441   2.906  20.278  0.00  0.00    +0.000 C 
ATOM     13  N   UNL     1       2.081   2.810  19.785  0.00  0.00    +0.000 N 
ATOM     14  C   UNL     1       1.756   3.055  18.473  0.00  0.00    +0.000 C 
ATOM     15  O   UNL     1       0.572   3.133  18.145  0.00  0.00    +0.000 OA
ATOM     16  C   UNL     1       2.893   3.153  17.439  0.00  0.00    +0.000 C 
ATOM     17  H   UNL     1       1.303   2.826  20.430  0.00  0.00    +0.000 HD
ENDBRANCH   3  10
BRANCH   1  18
ATOM     18  C   UNL     1       6.692   4.799  14.005  0.00  0.00    +0.000 C 
BRANCH  18  20
ATOM     19  C   UNL     1       6.282   3.239  12.072  0.00  0.00    +0.000 C 
ATOM     20  C   UNL     1       5.764   3.749  13.405  0.00  0.00    +0.000 C 
ENDBRANCH  18  20
ENDBRANCH   1  18
TORSDOF 3
ENDMDL
MODEL 3
REMARK VINA RESULT:      -7.4      1.108      1.505
REMARK  Name = 
REMARK  4 active torsions:
REMARK  status: ('A' for Active; 'I' for Inactive)
REMARK    1  A    between atoms: C_1  and  C_2
REMARK    2  A    between atoms: C_2  and  C_3
REMARK    3  A    between atoms: C_3  and  C_4
REMARK    4  A    between atoms: C_6  and  N_7
REMARK                            x       y       z     vdW  Elec       q    Type
REMARK                         _______ _______ _______ _____ _____    ______ ____
ROOT
ATOM      1  C   UNL     1       6.584   4.392  15.681  0.00  0.00    +0.000 A 
ATOM      2  C   UNL     1       5.240   4.109  16.247  0.00  0.00    +0.000 A 
ATOM      3  C   UNL     1       5.043   4.366  17.560  0.00  0.00    +0.000 A 
ATOM      4  N   UNL     1       6.148   4.875  18.300  0.00  0.00    +0.000 N 
ATOM      5  N   UNL     1       6.216   5.186  19.633  0.00  0.00    +0.000 NA
ATOM      6  C   UNL     1       7.465   5.594  19.826  0.00  0.00    +0.000 A 
ATOM      7  C   UNL     1       8.231   5.572  18.656  0.00  0.00    +0.000 A 
ATOM      8  C   UNL     1       7.382   5.103  17.678  0.00  0.00    +0.000 A 
ATOM      9  N   UNL     1       7.595   4.869  16.353  0.00  0.00    +0.000 NA
ENDROOT
BRANCH   3  10
ATOM     10  N   UNL     1       3.796   4.165  18.164  0.00  0.00    +0.000 N 
ATOM     11  C   UNL     1       2.720   5.167  18.114  0.00  0.00    +0.000 C 
ATOM     12  C   UNL     1       1.475   4.452  17.587  0.00  0.00    +0.000 C 
ATOM     13  N   UNL     1       1.118   3.321  18.421  0.00  0.00    +0.000 N 
ATOM     14  C   UNL     1       2.061   2.539  19.042  0.00  0.00    +0.000 C 
ATOM     15  O   UNL     1       1.716   1.492  19.590  0.00  0.00    +0.000 OA
ATOM     16  C   UNL     1       3.516   3.042  19.093  0.00  0.00    +0.000 C 
ATOM     17  H   UNL     1       0.196   2.911  18.355  0.00  0.00    +0.000 HD
ENDBRANCH   3  10
BRANCH   1  18
ATOM     18  C   UNL     1       6.771   4.103  14.204  0.00  0.00    +0.000 C 
BRANCH  18  20
ATOM     19  C   UNL     1       5.547   3.308  12.152  0.00  0.00    +0.000 C 
ATOM     20  C   UNL     1       5.414   3.930  13.530  0.00  0.00    +0.000 C 
ENDBRANCH  18  20
ENDBRANCH   1  18
TORSDOF 3
ENDMDL
MODEL 4
REMARK VINA RESULT:      -7.4      1.990      4.148
REMARK  Name = 
REMARK  4 active torsions:
REMARK  status: ('A' for Active; 'I' for Inactive)
REMARK    1  A    between atoms: C_1  and  C_2
REMARK    2  A    between atoms: C_2  and  C_3
REMARK    3  A    between atoms: C_3  and  C_4
REMARK    4  A    between atoms: C_6  and  N_7
REMARK                            x       y       z     vdW  Elec       q    Type
REMARK                         _______ _______ _______ _____ _____    ______ ____
ROOT
ATOM      1  C   UNL     1       7.270   6.529  17.584  0.00  0.00    +0.000 A 
ATOM      2  C   UNL     1       6.044   6.033  18.262  0.00  0.00    +0.000 A 
ATOM      3  C   UNL     1       5.249   5.178  17.578  0.00  0.00    +0.000 A 
ATOM      4  N   UNL     1       5.646   4.833  16.254  0.00  0.00    +0.000 N 
ATOM      5  N   UNL     1       5.008   4.019  15.354  0.00  0.00    +0.000 NA
ATOM      6  C   UNL     1       5.772   4.047  14.268  0.00  0.00    +0.000 A 
ATOM      7  C   UNL     1       6.907   4.851  14.421  0.00  0.00    +0.000 A 
ATOM      8  C   UNL     1       6.818   5.359  15.698  0.00  0.00    +0.000 A 
ATOM      9  N   UNL     1       7.642   6.206  16.377  0.00  0.00    +0.000 NA
ENDROOT
BRANCH   3  10
ATOM     10  N   UNL     1       4.097   4.633  18.156  0.00  0.00    +0.000 N 
ATOM     11  C   UNL     1       2.862   5.409  18.349  0.00  0.00    +0.000 C 
ATOM     12  C   UNL     1       1.729   4.603  17.713  0.00  0.00    +0.000 C 
ATOM     13  N   UNL     1       1.627   3.278  18.294  0.00  0.00    +0.000 N 
ATOM     14  C   UNL     1       2.730   2.572  18.710  0.00  0.00    +0.000 C 
ATOM     15  O   UNL     1       2.607   1.389  19.031  0.00  0.00    +0.000 OA
ATOM     16  C   UNL     1       4.075   3.311  18.830  0.00  0.00    +0.000 C 
ATOM     17  H   UNL     1       0.789   2.729  18.166  0.00  0.00    +0.000 HD
ENDBRANCH   3  10
BRANCH   1  18
ATOM     18  C   UNL     1       8.144   7.479  18.380  0.00  0.00    +0.000 C 
BRANCH  18  20
ATOM     19  C   UNL     1       8.875   9.878  18.601  0.00  0.00    +0.000 C 
ATOM     20  C   UNL     1       8.035   8.890  17.812  0.00  0.00    +0.000 C 
ENDBRANCH  18  20
ENDBRANCH   1  18
TORSDOF 3
ENDMDL
MODEL 5
REMARK VINA RESULT:      -7.3      1.699      3.859
REMARK  Name = 
REMARK  4 active torsions:
REMARK  status: ('A' for Active; 'I' for Inactive)
REMARK    1  A    between atoms: C_1  and  C_2
REMARK    2  A    between atoms: C_2  and  C_3
REMARK    3  A    between atoms: C_3  and  C_4
REMARK    4  A    between atoms: C_6  and  N_7
REMARK                            x       y       z     vdW  Elec       q    Type
REMARK                         _______ _______ _______ _____ _____    ______ ____
ROOT
ATOM      1  C   UNL     1       7.280   6.459  17.729  0.00  0.00    +0.000 A 
ATOM      2  C   UNL     1       6.142   5.865  18.476  0.00  0.00    +0.000 A 
ATOM      3  C   UNL     1       5.345   4.991  17.819  0.00  0.00    +0.000 A 
ATOM      4  N   UNL     1       5.654   4.722  16.455  0.00  0.00    +0.000 N 
ATOM      5  N   UNL     1       4.994   3.908  15.572  0.00  0.00    +0.000 NA
ATOM      6  C   UNL     1       5.667   4.025  14.432  0.00  0.00    +0.000 A 
ATOM      7  C   UNL     1       6.762   4.888  14.533  0.00  0.00    +0.000 A 
ATOM      8  C   UNL     1       6.747   5.339  15.834  0.00  0.00    +0.000 A 
ATOM      9  N   UNL     1       7.573   6.207  16.484  0.00  0.00    +0.000 NA
ENDROOT
BRANCH   3  10
ATOM     10  N   UNL     1       4.275   4.356  18.460  0.00  0.00    +0.000 N 
ATOM     11  C   UNL     1       4.189   2.894  18.601  0.00  0.00    +0.000 C 
ATOM     12  C   UNL     1       3.962   2.605  20.085  0.00  0.00    +0.000 C 
ATOM     13  N   UNL     1       2.768   3.263  20.578  0.00  0.00    +0.000 N 
ATOM     14  C   UNL     1       2.364   4.494  20.119  0.00  0.00    +0.000 C 
ATOM     15  O   UNL     1       1.449   5.085  20.693  0.00  0.00    +0.000 OA
ATOM     16  C   UNL     1       3.029   5.061  18.851  0.00  0.00    +0.000 C 
ATOM     17  H   UNL     1       2.350   2.973  21.451  0.00  0.00    +0.000 HD
ENDBRANCH   3  10
BRANCH   1  18
ATOM     18  C   UNL     1       8.160   7.428  18.496  0.00  0.00    +0.000 C 
BRANCH  18  20
ATOM     19  C   UNL     1       8.872   9.837  18.661  0.00  0.00    +0.000 C 
ATOM     20  C   UNL     1       8.102   8.809  17.852  0.00  0.00    +0.000 C 
ENDBRANCH  18  20
ENDBRANCH   1  18
TORSDOF 3
ENDMDL
MODEL 6
REMARK VINA RESULT:      -7.3      1.831      3.937
REMARK  Name = 
REMARK  4 active torsions:
REMARK  status: ('A' for Active; 'I' for Inactive)
REMARK    1  A    between atoms: C_1  and  C_2
REMARK    2  A    between atoms: C_2  and  C_3
REMARK    3  A    between atoms: C_3  and  C_4
REMARK    4  A    between atoms: C_6  and  N_7
REMARK                            x       y       z     vdW  Elec       q    Type
REMARK                         _______ _______ _______ _____ _____    ______ ____
ROOT
ATOM      1  C   UNL     1       7.224   6.284  17.539  0.00  0.00    +0.000 A 
ATOM      2  C   UNL     1       6.100   5.553  18.178  0.00  0.00    +0.000 A 
ATOM      3  C   UNL     1       5.430   4.648  17.427  0.00  0.00    +0.000 A 
ATOM      4  N   UNL     1       5.850   4.480  16.076  0.00  0.00    +0.000 N 
ATOM      5  N   UNL     1       5.325   3.658  15.113  0.00  0.00    +0.000 NA
ATOM      6  C   UNL     1       6.056   3.893  14.029  0.00  0.00    +0.000 A 
ATOM      7  C   UNL     1       7.059   4.844  14.245  0.00  0.00    +0.000 A 
ATOM      8  C   UNL     1       6.919   5.222  15.561  0.00  0.00    +0.000 A 
ATOM      9  N   UNL     1       7.618   6.124  16.306  0.00  0.00    +0.000 NA
ENDROOT
BRANCH   3  10
ATOM     10  N   UNL     1       4.384   3.887  17.962  0.00  0.00    +0.000 N 
ATOM     11  C   UNL     1       4.551   3.029  19.145  0.00  0.00    +0.000 C 
ATOM     12  C   UNL     1       3.455   3.422  20.136  0.00  0.00    +0.000 C 
ATOM     13  N   UNL     1       2.136   3.282  19.553  0.00  0.00    +0.000 N 
ATOM     14  C   UNL     1       1.888   3.536  18.226  0.00  0.00    +0.000 C 
ATOM     15  O   UNL     1       0.725   3.573  17.822  0.00  0.00    +0.000 OA
ATOM     16  C   UNL     1       3.085   3.694  17.270  0.00  0.00    +0.000 C 
ATOM     17  H   UNL     1       1.317   3.258  20.146  0.00  0.00    +0.000 HD
ENDBRANCH   3  10
BRANCH   1  18
ATOM     18  C   UNL     1       7.961   7.285  18.409  0.00  0.00    +0.000 C 
BRANCH  18  20
ATOM     19  C   UNL     1       8.751   9.671  18.551  0.00  0.00    +0.000 C 
ATOM     20  C   UNL     1       8.000   8.646  17.722  0.00  0.00    +0.000 C 
ENDBRANCH  18  20
ENDBRANCH   1  18
TORSDOF 3
ENDMDL
MODEL 7
REMARK VINA RESULT:      -7.2      1.871      3.964
REMARK  Name = 
REMARK  4 active torsions:
REMARK  status: ('A' for Active; 'I' for Inactive)
REMARK    1  A    between atoms: C_1  and  C_2
REMARK    2  A    between atoms: C_2  and  C_3
REMARK    3  A    between atoms: C_3  and  C_4
REMARK    4  A    between atoms: C_6  and  N_7
REMARK                            x       y       z     vdW  Elec       q    Type
REMARK                         _______ _______ _______ _____ _____    ______ ____
ROOT
ATOM      1  C   UNL     1       7.232   6.398  17.561  0.00  0.00    +0.000 A 
ATOM      2  C   UNL     1       6.062   5.789  18.247  0.00  0.00    +0.000 A 
ATOM      3  C   UNL     1       5.317   4.901  17.550  0.00  0.00    +0.000 A 
ATOM      4  N   UNL     1       5.706   4.631  16.207  0.00  0.00    +0.000 N 
ATOM      5  N   UNL     1       5.108   3.803  15.293  0.00  0.00    +0.000 NA
ATOM      6  C   UNL     1       5.842   3.924  14.191  0.00  0.00    +0.000 A 
ATOM      7  C   UNL     1       6.917   4.805  14.349  0.00  0.00    +0.000 A 
ATOM      8  C   UNL     1       6.823   5.261  15.645  0.00  0.00    +0.000 A 
ATOM      9  N   UNL     1       7.597   6.144  16.336  0.00  0.00    +0.000 NA
ENDROOT
BRANCH   3  10
ATOM     10  N   UNL     1       4.222   4.252  18.133  0.00  0.00    +0.000 N 
ATOM     11  C   UNL     1       3.032   3.857  17.365  0.00  0.00    +0.000 C 
ATOM     12  C   UNL     1       2.800   2.371  17.639  0.00  0.00    +0.000 C 
ATOM     13  N   UNL     1       2.635   2.111  19.056  0.00  0.00    +0.000 N 
ATOM     14  C   UNL     1       3.317   2.817  20.017  0.00  0.00    +0.000 C 
ATOM     15  O   UNL     1       3.276   2.442  21.189  0.00  0.00    +0.000 OA
ATOM     16  C   UNL     1       4.054   4.104  19.600  0.00  0.00    +0.000 C 
ATOM     17  H   UNL     1       2.231   1.239  19.370  0.00  0.00    +0.000 HD
ENDBRANCH   3  10
BRANCH   1  18
ATOM     18  C   UNL     1       8.053   7.382  18.371  0.00  0.00    +0.000 C 
BRANCH  18  20
ATOM     19  C   UNL     1       8.805   9.781  18.510  0.00  0.00    +0.000 C 
ATOM     20  C   UNL     1       7.956   8.774  17.756  0.00  0.00    +0.000 C 
ENDBRANCH  18  20
ENDBRANCH   1  18
TORSDOF 3
ENDMDL
MODEL 8
REMARK VINA RESULT:      -7.1      2.112      2.398
REMARK  Name = 
REMARK  4 active torsions:
REMARK  status: ('A' for Active; 'I' for Inactive)
REMARK    1  A    between atoms: C_1  and  C_2
REMARK    2  A    between atoms: C_2  and  C_3
REMARK    3  A    between atoms: C_3  and  C_4
REMARK    4  A    between atoms: C_6  and  N_7
REMARK                            x       y       z     vdW  Elec       q    Type
REMARK                         _______ _______ _______ _____ _____    ______ ____
ROOT
ATOM      1  C   UNL     1       5.698   5.004  15.608  0.00  0.00    +0.000 A 
ATOM      2  C   UNL     1       5.088   3.911  16.409  0.00  0.00    +0.000 A 
ATOM      3  C   UNL     1       4.171   4.253  17.344  0.00  0.00    +0.000 A 
ATOM      4  N   UNL     1       3.874   5.637  17.494  0.00  0.00    +0.000 N 
ATOM      5  N   UNL     1       3.015   6.238  18.377  0.00  0.00    +0.000 NA
ATOM      6  C   UNL     1       3.121   7.538  18.125  0.00  0.00    +0.000 A 
ATOM      7  C   UNL     1       4.021   7.821  17.093  0.00  0.00    +0.000 A 
ATOM      8  C   UNL     1       4.508   6.596  16.694  0.00  0.00    +0.000 A 
ATOM      9  N   UNL     1       5.420   6.271  15.735  0.00  0.00    +0.000 NA
ENDROOT
BRANCH   3  10
ATOM     10  N   UNL     1       3.520   3.283  18.115  0.00  0.00    +0.000 N 
ATOM     11  C   UNL     1       4.154   2.630  19.270  0.00  0.00    +0.000 C 
ATOM     12  C   UNL     1       3.195   2.791  20.451  0.00  0.00    +0.000 C 
ATOM     13  N   UNL     1       1.893   2.223  20.160  0.00  0.00    +0.000 N 
ATOM     14  C   UNL     1       1.338   2.262  18.904  0.00  0.00    +0.000 C 
ATOM     15  O   UNL     1       0.164   1.926  18.749  0.00  0.00    +0.000 OA
ATOM     16  C   UNL     1       2.234   2.659  17.716  0.00  0.00    +0.000 C 
ATOM     17  H   UNL     1       1.245   2.026  20.910  0.00  0.00    +0.000 HD
ENDBRANCH   3  10
BRANCH   1  18
ATOM     18  C   UNL     1       6.715   4.588  14.562  0.00  0.00    +0.000 C 
BRANCH  18  20
ATOM     19  C   UNL     1       6.819   3.801  12.173  0.00  0.00    +0.000 C 
ATOM     20  C   UNL     1       6.038   3.763  13.474  0.00  0.00    +0.000 C 
ENDBRANCH  18  20
ENDBRANCH   1  18
TORSDOF 3
ENDMDL
MODEL 9
REMARK VINA RESULT:      -7.1      2.854      5.993
REMARK  Name = 
REMARK  4 active torsions:
REMARK  status: ('A' for Active; 'I' for Inactive)
REMARK    1  A    between atoms: C_1  and  C_2
REMARK    2  A    between atoms: C_2  and  C_3
REMARK    3  A    between atoms: C_3  and  C_4
REMARK    4  A    between atoms: C_6  and  N_7
REMARK                            x       y       z     vdW  Elec       q    Type
REMARK                         _______ _______ _______ _____ _____    ______ ____
ROOT
ATOM      1  C   UNL     1       2.735   4.930  20.158  0.00  0.00    +0.000 A 
ATOM      2  C   UNL     1       3.919   4.696  19.291  0.00  0.00    +0.000 A 
ATOM      3  C   UNL     1       4.251   5.663  18.405  0.00  0.00    +0.000 A 
ATOM      4  N   UNL     1       3.429   6.824  18.365  0.00  0.00    +0.000 N 
ATOM      5  N   UNL     1       3.534   7.920  17.548  0.00  0.00    +0.000 NA
ATOM      6  C   UNL     1       2.516   8.702  17.893  0.00  0.00    +0.000 A 
ATOM      7  C   UNL     1       1.740   8.161  18.923  0.00  0.00    +0.000 A 
ATOM      8  C   UNL     1       2.327   6.951  19.219  0.00  0.00    +0.000 A 
ATOM      9  N   UNL     1       1.987   5.997  20.131  0.00  0.00    +0.000 NA
ENDROOT
BRANCH   3  10
ATOM     10  N   UNL     1       5.374   5.539  17.578  0.00  0.00    +0.000 N 
ATOM     11  C   UNL     1       6.720   5.959  17.999  0.00  0.00    +0.000 C 
ATOM     12  C   UNL     1       7.648   4.766  17.771  0.00  0.00    +0.000 C 
ATOM     13  N   UNL     1       7.629   4.334  16.387  0.00  0.00    +0.000 N 
ATOM     14  C   UNL     1       6.493   4.390  15.616  0.00  0.00    +0.000 C 
ATOM     15  O   UNL     1       6.484   3.850  14.508  0.00  0.00    +0.000 OA
ATOM     16  C   UNL     1       5.287   5.193  16.137  0.00  0.00    +0.000 C 
ATOM     17  H   UNL     1       8.361   3.736  16.030  0.00  0.00    +0.000 HD
ENDBRANCH   3  10
BRANCH   1  18
ATOM     18  C   UNL     1       2.394   3.832  21.147  0.00  0.00    +0.000 C 
BRANCH  18  20
ATOM     19  C   UNL     1       1.008   2.551  19.480  0.00  0.00    +0.000 C 
ATOM     20  C   UNL     1       1.021   3.250  20.827  0.00  0.00    +0.000 C 
ENDBRANCH  18  20
ENDBRANCH   1  18
TORSDOF 3
ENDMDL
