MODEL 1
REMARK VINA RESULT:      -7.3      0.000      0.000
REMARK  Name = 
REMARK  6 active torsions:
REMARK  status: ('A' for Active; 'I' for Inactive)
REMARK    1  A    between atoms: C_1  and  C_2
REMARK    2  A    between atoms: C_2  and  C_3
REMARK    3  A    between atoms: C_3  and  C_4
REMARK    4  A    between atoms: C_4  and  N_5
REMARK    5  A    between atoms: C_10  and  C_12
REMARK    6  A    between atoms: C_15  and  N_16
REMARK                            x       y       z     vdW  Elec       q    Type
REMARK                         _______ _______ _______ _____ _____    ______ ____
ROOT
ATOM      1  N   UNL     1       7.074   4.583  13.286  0.00  0.00    +0.000 N 
ATOM      2  N   UNL     1       7.773   5.487  13.984  0.00  0.00    +0.000 NA
ATOM      3  N   UNL     1       7.204   5.493  15.178  0.00  0.00    +0.000 NA
ATOM      4  C   UNL     1       6.157   4.613  15.126  0.00  0.00    +0.000 A 
ATOM      5  N   UNL     1       5.314   4.347  16.177  0.00  0.00    +0.000 N 
ATOM      6  C   UNL     1       5.594   4.772  17.451  0.00  0.00    +0.000 C 
ATOM      7  O   UNL     1       6.612   5.380  17.784  0.00  0.00    +0.000 OA
ATOM      8  N   UNL     1       6.015   4.039  13.924  0.00  0.00    +0.000 NA
ATOM      9  H   UNL     1       4.533   3.747  15.958  0.00  0.00    +0.000 HD
ENDROOT
BRANCH   6  10
ATOM     10  C   UNL     1       4.607   4.500  18.534  0.00  0.00    +0.000 A 
ATOM     11  C   UNL     1       4.713   3.221  19.122  0.00  0.00    +0.000 A 
ATOM     12  C   UNL     1       3.802   2.780  20.080  0.00  0.00    +0.000 A 
ATOM     13  C   UNL     1       2.763   3.627  20.467  0.00  0.00    +0.000 A 
ATOM     14  C   UNL     1       2.644   4.909  19.910  0.00  0.00    +0.000 A 
ATOM     15  C   UNL     1       3.566   5.345  18.944  0.00  0.00    +0.000 A 
ATOM     16 CL   UNL     1       3.303   6.918  18.279  0.00  0.00    +0.000 Cl
BRANCH  13  17
ATOM     17  N   UNL     1       1.779   3.158  21.451  0.00  0.00    +0.000 N 
ATOM     18  O   UNL     1       0.650   2.857  21.040  0.00  0.00    +0.000 OA
ATOM     19  O   UNL     1       2.140   3.095  22.634  0.00  0.00    +0.000 OA
ENDBRANCH  13  17
ENDBRANCH   6  10
BRANCH   1  20
ATOM     20  C   UNL     1       7.450   4.220  11.939  0.00  0.00    +0.000 C 
BRANCH  20  21
ATOM     21  C   UNL     1       6.549   3.154  11.307  0.00  0.00    +0.000 C 
BRANCH  21  23
ATOM     22  C   UNL     1       6.283   0.653  11.117  0.00  0.00    +0.000 C 
ATOM     23  C   UNL     1       7.262   1.816  11.098  0.00  0.00    +0.000 C 
ENDBRANCH  21  23
ENDBRANCH  20  21
ENDBRANCH   1  20
TORSDOF 5
ENDMDL
MODEL 2
REMARK VINA RESULT:      -7.0      4.509      9.335
REMARK  Name = 
REMARK  6 active torsions:
REMARK  status: ('A' for Active; 'I' for Inactive)
REMARK    1  A    between atoms: C_1  and  C_2
REMARK    2  A    between atoms: C_2  and  C_3
REMARK    3  A    between atoms: C_3  and  C_4
REMARK    4  A    between atoms: C_4  and  N_5
REMARK    5  A    between atoms: C_10  and  C_12
REMARK    6  A    between atoms: C_15  and  N_16
REMARK                            x       y       z     vdW  Elec       q    Type
REMARK                         _______ _______ _______ _____ _____    ______ ____
ROOT
ATOM      1  N   UNL     1       0.734   9.021  20.843  0.00  0.00    +0.000 N 
ATOM      2  N   UNL     1       0.790   7.890  21.558  0.00  0.00    +0.000 NA
ATOM      3  N   UNL     1       1.586   7.097  20.861  0.00  0.00    +0.000 NA
ATOM      4  C   UNL     1       1.942   7.783  19.730  0.00  0.00    +0.000 A 
ATOM      5  N   UNL     1       2.761   7.284  18.748  0.00  0.00    +0.000 N 
ATOM      6  C   UNL     1       3.487   6.134  18.928  0.00  0.00    +0.000 C 
ATOM      7  O   UNL     1       3.511   5.471  19.965  0.00  0.00    +0.000 OA
ATOM      8  N   UNL     1       1.389   9.001  19.661  0.00  0.00    +0.000 NA
ATOM      9  H   UNL     1       2.856   7.871  17.932  0.00  0.00    +0.000 HD
ENDROOT
BRANCH   6  10
ATOM     10  C   UNL     1       4.311   5.619  17.798  0.00  0.00    +0.000 A 
ATOM     11  C   UNL     1       5.399   6.441  17.437  0.00  0.00    +0.000 A 
ATOM     12  C   UNL     1       6.206   6.145  16.340  0.00  0.00    +0.000 A 
ATOM     13  C   UNL     1       5.929   5.007  15.583  0.00  0.00    +0.000 A 
ATOM     14  C   UNL     1       4.863   4.164  15.930  0.00  0.00    +0.000 A 
ATOM     15  C   UNL     1       4.054   4.470  17.036  0.00  0.00    +0.000 A 
ATOM     16 CL   UNL     1       2.734   3.400  17.348  0.00  0.00    +0.000 Cl
BRANCH  13  17
ATOM     17  N   UNL     1       6.753   4.705  14.406  0.00  0.00    +0.000 N 
ATOM     18  O   UNL     1       7.803   5.346  14.258  0.00  0.00    +0.000 OA
ATOM     19  O   UNL     1       6.345   3.830  13.631  0.00  0.00    +0.000 OA
ENDBRANCH  13  17
ENDBRANCH   6  10
BRANCH   1  20
ATOM     20  C   UNL     1       0.022  10.181  21.326  0.00  0.00    +0.000 C 
BRANCH  20  21
ATOM     21  C   UNL     1      -0.252  10.161  22.834  0.00  0.00    +0.000 C 
BRANCH  21  23
ATOM     22  C   UNL     1      -1.299  12.455  22.786  0.00  0.00    +0.000 C 
ATOM     23  C   UNL     1      -1.460  11.011  23.233  0.00  0.00    +0.000 C 
ENDBRANCH  21  23
ENDBRANCH  20  21
ENDBRANCH   1  20
TORSDOF 5
ENDMDL
MODEL 3
REMARK VINA RESULT:      -7.0      5.234      9.791
REMARK  Name = 
REMARK  6 active torsions:
REMARK  status: ('A' for Active; 'I' for Inactive)
REMARK    1  A    between atoms: C_1  and  C_2
REMARK    2  A    between atoms: C_2  and  C_3
REMARK    3  A    between atoms: C_3  and  C_4
REMARK    4  A    between atoms: C_4  and  N_5
REMARK    5  A    between atoms: C_10  and  C_12
REMARK    6  A    between atoms: C_15  and  N_16
REMARK                            x       y       z     vdW  Elec       q    Type
REMARK                         _______ _______ _______ _____ _____    ______ ____
ROOT
ATOM      1  N   UNL     1       0.111   9.645  21.679  0.00  0.00    +0.000 N 
ATOM      2  N   UNL     1       0.017  10.340  20.538  0.00  0.00    +0.000 NA
ATOM      3  N   UNL     1       0.775   9.673  19.683  0.00  0.00    +0.000 NA
ATOM      4  C   UNL     1       1.322   8.623  20.369  0.00  0.00    +0.000 A 
ATOM      5  N   UNL     1       2.178   7.700  19.819  0.00  0.00    +0.000 N 
ATOM      6  C   UNL     1       2.376   7.617  18.464  0.00  0.00    +0.000 C 
ATOM      7  O   UNL     1       1.800   8.309  17.624  0.00  0.00    +0.000 OA
ATOM      8  N   UNL     1       0.954   8.590  21.656  0.00  0.00    +0.000 NA
ATOM      9  H   UNL     1       2.571   7.040  20.473  0.00  0.00    +0.000 HD
ENDROOT
BRANCH   6  10
ATOM     10  C   UNL     1       3.363   6.631  17.940  0.00  0.00    +0.000 A 
ATOM     11  C   UNL     1       4.607   7.183  17.566  0.00  0.00    +0.000 A 
ATOM     12  C   UNL     1       5.600   6.408  16.969  0.00  0.00    +0.000 A 
ATOM     13  C   UNL     1       5.355   5.054  16.740  0.00  0.00    +0.000 A 
ATOM     14  C   UNL     1       4.134   4.477  17.117  0.00  0.00    +0.000 A 
ATOM     15  C   UNL     1       3.138   5.266  17.716  0.00  0.00    +0.000 A 
ATOM     16 CL   UNL     1       1.649   4.474  18.094  0.00  0.00    +0.000 Cl
BRANCH  13  17
ATOM     17  N   UNL     1       6.383   4.237  16.081  0.00  0.00    +0.000 N 
ATOM     18  O   UNL     1       7.570   4.514  16.304  0.00  0.00    +0.000 OA
ATOM     19  O   UNL     1       5.999   3.323  15.341  0.00  0.00    +0.000 OA
ENDBRANCH  13  17
ENDBRANCH   6  10
BRANCH   1  20
ATOM     20  C   UNL     1      -0.657  10.011  22.846  0.00  0.00    +0.000 C 
BRANCH  20  21
ATOM     21  C   UNL     1      -0.993  11.504  22.927  0.00  0.00    +0.000 C 
BRANCH  21  23
ATOM     22  C   UNL     1      -2.728  13.232  23.532  0.00  0.00    +0.000 C 
ATOM     23  C   UNL     1      -2.474  11.769  23.206  0.00  0.00    +0.000 C 
ENDBRANCH  21  23
ENDBRANCH  20  21
ENDBRANCH   1  20
TORSDOF 5
ENDMDL
MODEL 4
REMARK VINA RESULT:      -7.0      3.636      4.291
REMARK  Name = 
REMARK  6 active torsions:
REMARK  status: ('A' for Active; 'I' for Inactive)
REMARK    1  A    between atoms: C_1  and  C_2
REMARK    2  A    between atoms: C_2  and  C_3
REMARK    3  A    between atoms: C_3  and  C_4
REMARK    4  A    between atoms: C_4  and  N_5
REMARK    5  A    between atoms: C_10  and  C_12
REMARK    6  A    between atoms: C_15  and  N_16
REMARK                            x       y       z     vdW  Elec       q    Type
REMARK                         _______ _______ _______ _____ _____    ______ ____
ROOT
ATOM      1  N   UNL     1       6.409   4.712  14.883  0.00  0.00    +0.000 N 
ATOM      2  N   UNL     1       5.972   3.649  15.570  0.00  0.00    +0.000 NA
ATOM      3  N   UNL     1       5.099   4.148  16.430  0.00  0.00    +0.000 NA
ATOM      4  C   UNL     1       5.084   5.504  16.240  0.00  0.00    +0.000 A 
ATOM      5  N   UNL     1       4.302   6.377  16.956  0.00  0.00    +0.000 N 
ATOM      6  C   UNL     1       3.288   5.938  17.770  0.00  0.00    +0.000 C 
ATOM      7  O   UNL     1       2.958   4.760  17.912  0.00  0.00    +0.000 OA
ATOM      8  N   UNL     1       5.934   5.909  15.288  0.00  0.00    +0.000 NA
ATOM      9  H   UNL     1       4.469   7.354  16.767  0.00  0.00    +0.000 HD
ENDROOT
BRANCH   6  10
ATOM     10  C   UNL     1       2.518   6.937  18.562  0.00  0.00    +0.000 A 
ATOM     11  C   UNL     1       2.255   8.150  17.890  0.00  0.00    +0.000 A 
ATOM     12  C   UNL     1       1.630   9.219  18.528  0.00  0.00    +0.000 A 
ATOM     13  C   UNL     1       1.253   9.083  19.865  0.00  0.00    +0.000 A 
ATOM     14  C   UNL     1       1.487   7.883  20.552  0.00  0.00    +0.000 A 
ATOM     15  C   UNL     1       2.120   6.810  19.901  0.00  0.00    +0.000 A 
ATOM     16 CL   UNL     1       2.412   5.396  20.848  0.00  0.00    +0.000 Cl
BRANCH  13  17
ATOM     17  N   UNL     1       0.623  10.215  20.555  0.00  0.00    +0.000 N 
ATOM     18  O   UNL     1       1.154  11.329  20.440  0.00  0.00    +0.000 OA
ATOM     19  O   UNL     1      -0.401   9.986  21.212  0.00  0.00    +0.000 OA
ENDBRANCH  13  17
ENDBRANCH   6  10
BRANCH   1  20
ATOM     20  C   UNL     1       7.324   4.565  13.775  0.00  0.00    +0.000 C 
BRANCH  20  21
ATOM     21  C   UNL     1       6.636   4.424  12.413  0.00  0.00    +0.000 C 
BRANCH  21  23
ATOM     22  C   UNL     1       4.548   3.294  11.560  0.00  0.00    +0.000 C 
ATOM     23  C   UNL     1       5.886   3.100  12.256  0.00  0.00    +0.000 C 
ENDBRANCH  21  23
ENDBRANCH  20  21
ENDBRANCH   1  20
TORSDOF 5
ENDMDL
MODEL 5
REMARK VINA RESULT:      -6.9      7.420      9.545
REMARK  Name = 
REMARK  6 active torsions:
REMARK  status: ('A' for Active; 'I' for Inactive)
REMARK    1  A    between atoms: C_1  and  C_2
REMARK    2  A    between atoms: C_2  and  C_3
REMARK    3  A    between atoms: C_3  and  C_4
REMARK    4  A    between atoms: C_4  and  N_5
REMARK    5  A    between atoms: C_10  and  C_12
REMARK    6  A    between atoms: C_15  and  N_16
REMARK                            x       y       z     vdW  Elec       q    Type
REMARK                         _______ _______ _______ _____ _____    ______ ____
ROOT
ATOM      1  N   UNL     1       7.126   6.596  17.536  0.00  0.00    +0.000 N 
ATOM      2  N   UNL     1       7.905   6.410  18.609  0.00  0.00    +0.000 NA
ATOM      3  N   UNL     1       8.461   7.592  18.822  0.00  0.00    +0.000 NA
ATOM      4  C   UNL     1       8.014   8.427  17.833  0.00  0.00    +0.000 A 
ATOM      5  N   UNL     1       8.377   9.745  17.710  0.00  0.00    +0.000 N 
ATOM      6  C   UNL     1       9.044  10.407  18.711  0.00  0.00    +0.000 C 
ATOM      7  O   UNL     1       9.342   9.919  19.801  0.00  0.00    +0.000 OA
ATOM      8  N   UNL     1       7.189   7.821  16.969  0.00  0.00    +0.000 NA
ATOM      9  H   UNL     1       8.040  10.206  16.878  0.00  0.00    +0.000 HD
ENDROOT
BRANCH   6  10
ATOM     10  C   UNL     1       9.459  11.820  18.487  0.00  0.00    +0.000 A 
ATOM     11  C   UNL     1       8.425  12.678  18.055  0.00  0.00    +0.000 A 
ATOM     12  C   UNL     1       8.673  14.006  17.711  0.00  0.00    +0.000 A 
ATOM     13  C   UNL     1       9.977  14.495  17.798  0.00  0.00    +0.000 A 
ATOM     14  C   UNL     1      11.020  13.668  18.240  0.00  0.00    +0.000 A 
ATOM     15  C   UNL     1      10.761  12.331  18.584  0.00  0.00    +0.000 A 
ATOM     16 CL   UNL     1      12.121  11.379  19.063  0.00  0.00    +0.000 Cl
BRANCH  13  17
ATOM     17  N   UNL     1      10.254  15.883  17.406  0.00  0.00    +0.000 N 
ATOM     18  O   UNL     1      10.984  16.070  16.423  0.00  0.00    +0.000 OA
ATOM     19  O   UNL     1       9.740  16.782  18.086  0.00  0.00    +0.000 OA
ENDBRANCH  13  17
ENDBRANCH   6  10
BRANCH   1  20
ATOM     20  C   UNL     1       6.271   5.544  17.037  0.00  0.00    +0.000 C 
BRANCH  20  21
ATOM     21  C   UNL     1       6.063   5.579  15.518  0.00  0.00    +0.000 C 
BRANCH  21  23
ATOM     22  C   UNL     1       5.960   3.920  13.621  0.00  0.00    +0.000 C 
ATOM     23  C   UNL     1       6.780   4.440  14.791  0.00  0.00    +0.000 C 
ENDBRANCH  21  23
ENDBRANCH  20  21
ENDBRANCH   1  20
TORSDOF 5
ENDMDL
MODEL 6
REMARK VINA RESULT:      -6.8      4.662      5.861
REMARK  Name = 
REMARK  6 active torsions:
REMARK  status: ('A' for Active; 'I' for Inactive)
REMARK    1  A    between atoms: C_1  and  C_2
REMARK    2  A    between atoms: C_2  and  C_3
REMARK    3  A    between atoms: C_3  and  C_4
REMARK    4  A    between atoms: C_4  and  N_5
REMARK    5  A    between atoms: C_10  and  C_12
REMARK    6  A    between atoms: C_15  and  N_16
REMARK                            x       y       z     vdW  Elec       q    Type
REMARK                         _______ _______ _______ _____ _____    ______ ____
ROOT
ATOM      1  N   UNL     1       4.865   4.567  17.258  0.00  0.00    +0.000 N 
ATOM      2  N   UNL     1       4.559   3.887  18.370  0.00  0.00    +0.000 NA
ATOM      3  N   UNL     1       3.818   4.725  19.076  0.00  0.00    +0.000 NA
ATOM      4  C   UNL     1       3.747   5.892  18.363  0.00  0.00    +0.000 A 
ATOM      5  N   UNL     1       3.066   7.011  18.775  0.00  0.00    +0.000 N 
ATOM      6  C   UNL     1       2.198   6.978  19.837  0.00  0.00    +0.000 C 
ATOM      7  O   UNL     1       1.917   5.970  20.487  0.00  0.00    +0.000 OA
ATOM      8  N   UNL     1       4.433   5.846  17.214  0.00  0.00    +0.000 NA
ATOM      9  H   UNL     1       3.183   7.823  18.187  0.00  0.00    +0.000 HD
ENDROOT
BRANCH   6  10
ATOM     10  C   UNL     1       1.537   8.242  20.267  0.00  0.00    +0.000 A 
ATOM     11  C   UNL     1       1.227   8.309  21.642  0.00  0.00    +0.000 A 
ATOM     12  C   UNL     1       0.522   9.384  22.181  0.00  0.00    +0.000 A 
ATOM     13  C   UNL     1       0.117  10.419  21.337  0.00  0.00    +0.000 A 
ATOM     14  C   UNL     1       0.425  10.384  19.969  0.00  0.00    +0.000 A 
ATOM     15  C   UNL     1       1.135   9.296  19.434  0.00  0.00    +0.000 A 
ATOM     16 CL   UNL     1       1.418   9.321  17.730  0.00  0.00    +0.000 Cl
BRANCH  13  17
ATOM     17  N   UNL     1      -0.655  11.539  21.889  0.00  0.00    +0.000 N 
ATOM     18  O   UNL     1      -0.598  11.731  23.112  0.00  0.00    +0.000 OA
ATOM     19  O   UNL     1      -1.318  12.222  21.098  0.00  0.00    +0.000 OA
ENDBRANCH  13  17
ENDBRANCH   6  10
BRANCH   1  20
ATOM     20  C   UNL     1       5.603   3.950  16.180  0.00  0.00    +0.000 C 
BRANCH  20  21
ATOM     21  C   UNL     1       5.503   4.701  14.847  0.00  0.00    +0.000 C 
BRANCH  21  23
ATOM     22  C   UNL     1       5.986   3.493  12.687  0.00  0.00    +0.000 C 
ATOM     23  C   UNL     1       6.579   4.282  13.843  0.00  0.00    +0.000 C 
ENDBRANCH  21  23
ENDBRANCH  20  21
ENDBRANCH   1  20
TORSDOF 5
ENDMDL
MODEL 7
REMARK VINA RESULT:      -6.7      5.673      9.847
REMARK  Name = 
REMARK  6 active torsions:
REMARK  status: ('A' for Active; 'I' for Inactive)
REMARK    1  A    between atoms: C_1  and  C_2
REMARK    2  A    between atoms: C_2  and  C_3
REMARK    3  A    between atoms: C_3  and  C_4
REMARK    4  A    between atoms: C_4  and  N_5
REMARK    5  A    between atoms: C_10  and  C_12
REMARK    6  A    between atoms: C_15  and  N_16
REMARK                            x       y       z     vdW  Elec       q    Type
REMARK                         _______ _______ _______ _____ _____    ______ ____
ROOT
ATOM      1  N   UNL     1      -0.358  10.432  22.382  0.00  0.00    +0.000 N 
ATOM      2  N   UNL     1       0.360  11.051  21.436  0.00  0.00    +0.000 NA
ATOM      3  N   UNL     1       1.036  10.079  20.846  0.00  0.00    +0.000 NA
ATOM      4  C   UNL     1       0.718   8.919  21.499  0.00  0.00    +0.000 A 
ATOM      5  N   UNL     1       1.229   7.685  21.180  0.00  0.00    +0.000 N 
ATOM      6  C   UNL     1       1.931   7.472  20.021  0.00  0.00    +0.000 C 
ATOM      7  O   UNL     1       2.137   8.324  19.155  0.00  0.00    +0.000 OA
ATOM      8  N   UNL     1      -0.140   9.105  22.511  0.00  0.00    +0.000 NA
ATOM      9  H   UNL     1       0.973   6.940  21.811  0.00  0.00    +0.000 HD
ENDROOT
BRANCH   6  10
ATOM     10  C   UNL     1       2.508   6.122  19.766  0.00  0.00    +0.000 A 
ATOM     11  C   UNL     1       2.077   5.117  20.657  0.00  0.00    +0.000 A 
ATOM     12  C   UNL     1       2.598   3.826  20.611  0.00  0.00    +0.000 A 
ATOM     13  C   UNL     1       3.569   3.522  19.655  0.00  0.00    +0.000 A 
ATOM     14  C   UNL     1       4.004   4.498  18.747  0.00  0.00    +0.000 A 
ATOM     15  C   UNL     1       3.474   5.798  18.802  0.00  0.00    +0.000 A 
ATOM     16 CL   UNL     1       4.113   6.941  17.676  0.00  0.00    +0.000 Cl
BRANCH  13  17
ATOM     17  N   UNL     1       4.148   2.173  19.620  0.00  0.00    +0.000 N 
ATOM     18  O   UNL     1       4.986   1.882  20.485  0.00  0.00    +0.000 OA
ATOM     19  O   UNL     1       3.764   1.409  18.724  0.00  0.00    +0.000 OA
ENDBRANCH  13  17
ENDBRANCH   6  10
BRANCH   1  20
ATOM     20  C   UNL     1      -1.307  11.154  23.197  0.00  0.00    +0.000 C 
BRANCH  20  21
ATOM     21  C   UNL     1      -1.708  12.519  22.625  0.00  0.00    +0.000 C 
BRANCH  21  23
ATOM     22  C   UNL     1      -3.714  12.418  24.150  0.00  0.00    +0.000 C 
ATOM     23  C   UNL     1      -3.202  12.814  22.775  0.00  0.00    +0.000 C 
ENDBRANCH  21  23
ENDBRANCH  20  21
ENDBRANCH   1  20
TORSDOF 5
ENDMDL
MODEL 8
REMARK VINA RESULT:      -6.7      4.594      8.879
REMARK  Name = 
REMARK  6 active torsions:
REMARK  status: ('A' for Active; 'I' for Inactive)
REMARK    1  A    between atoms: C_1  and  C_2
REMARK    2  A    between atoms: C_2  and  C_3
REMARK    3  A    between atoms: C_3  and  C_4
REMARK    4  A    between atoms: C_4  and  N_5
REMARK    5  A    between atoms: C_10  and  C_12
REMARK    6  A    between atoms: C_15  and  N_16
REMARK                            x       y       z     vdW  Elec       q    Type
REMARK                         _______ _______ _______ _____ _____    ______ ____
ROOT
ATOM      1  N   UNL     1       0.611   9.246  20.681  0.00  0.00    +0.000 N 
ATOM      2  N   UNL     1       0.626   8.127  21.417  0.00  0.00    +0.000 NA
ATOM      3  N   UNL     1       1.430   7.309  20.758  0.00  0.00    +0.000 NA
ATOM      4  C   UNL     1       1.831   7.969  19.627  0.00  0.00    +0.000 A 
ATOM      5  N   UNL     1       2.672   7.441  18.679  0.00  0.00    +0.000 N 
ATOM      6  C   UNL     1       3.374   6.283  18.901  0.00  0.00    +0.000 C 
ATOM      7  O   UNL     1       3.355   5.638  19.950  0.00  0.00    +0.000 OA
ATOM      8  N   UNL     1       1.300   9.194  19.520  0.00  0.00    +0.000 NA
ATOM      9  H   UNL     1       2.801   8.011  17.857  0.00  0.00    +0.000 HD
ENDROOT
BRANCH   6  10
ATOM     10  C   UNL     1       4.223   5.735  17.807  0.00  0.00    +0.000 A 
ATOM     11  C   UNL     1       5.291   6.569  17.414  0.00  0.00    +0.000 A 
ATOM     12  C   UNL     1       6.117   6.241  16.340  0.00  0.00    +0.000 A 
ATOM     13  C   UNL     1       5.880   5.058  15.640  0.00  0.00    +0.000 A 
ATOM     14  C   UNL     1       4.835   4.204  16.020  0.00  0.00    +0.000 A 
ATOM     15  C   UNL     1       4.007   4.542  17.102  0.00  0.00    +0.000 A 
ATOM     16 CL   UNL     1       2.714   3.451  17.457  0.00  0.00    +0.000 Cl
BRANCH  13  17
ATOM     17  N   UNL     1       6.724   4.721  14.487  0.00  0.00    +0.000 N 
ATOM     18  O   UNL     1       7.769   5.369  14.327  0.00  0.00    +0.000 OA
ATOM     19  O   UNL     1       6.338   3.811  13.742  0.00  0.00    +0.000 OA
ENDBRANCH  13  17
ENDBRANCH   6  10
BRANCH   1  20
ATOM     20  C   UNL     1      -0.098  10.425  21.121  0.00  0.00    +0.000 C 
BRANCH  20  21
ATOM     21  C   UNL     1       0.036  11.622  20.173  0.00  0.00    +0.000 C 
BRANCH  21  23
ATOM     22  C   UNL     1      -0.944  12.740  18.135  0.00  0.00    +0.000 C 
ATOM     23  C   UNL     1      -1.232  11.883  19.358  0.00  0.00    +0.000 C 
ENDBRANCH  21  23
ENDBRANCH  20  21
ENDBRANCH   1  20
TORSDOF 5
ENDMDL
MODEL 9
REMARK VINA RESULT:      -6.7      4.517      5.280
REMARK  Name = 
REMARK  6 active torsions:
REMARK  status: ('A' for Active; 'I' for Inactive)
REMARK    1  A    between atoms: C_1  and  C_2
REMARK    2  A    between atoms: C_2  and  C_3
REMARK    3  A    between atoms: C_3  and  C_4
REMARK    4  A    between atoms: C_4  and  N_5
REMARK    5  A    between atoms: C_10  and  C_12
REMARK    6  A    between atoms: C_15  and  N_16
REMARK                            x       y       z     vdW  Elec       q    Type
REMARK                         _______ _______ _______ _____ _____    ______ ____
ROOT
ATOM      1  N   UNL     1       6.019   5.031  15.762  0.00  0.00    +0.000 N 
ATOM      2  N   UNL     1       5.225   4.101  16.307  0.00  0.00    +0.000 NA
ATOM      3  N   UNL     1       4.329   4.792  16.993  0.00  0.00    +0.000 NA
ATOM      4  C   UNL     1       4.656   6.114  16.856  0.00  0.00    +0.000 A 
ATOM      5  N   UNL     1       3.959   7.147  17.433  0.00  0.00    +0.000 N 
ATOM      6  C   UNL     1       2.729   6.956  18.010  0.00  0.00    +0.000 C 
ATOM      7  O   UNL     1       2.123   5.884  18.038  0.00  0.00    +0.000 OA
ATOM      8  N   UNL     1       5.751   6.309  16.110  0.00  0.00    +0.000 NA
ATOM      9  H   UNL     1       4.375   8.060  17.319  0.00  0.00    +0.000 HD
ENDROOT
BRANCH   6  10
ATOM     10  C   UNL     1       2.056   8.109  18.669  0.00  0.00    +0.000 A 
ATOM     11  C   UNL     1       2.027   9.294  17.903  0.00  0.00    +0.000 A 
ATOM     12  C   UNL     1       1.519  10.485  18.417  0.00  0.00    +0.000 A 
ATOM     13  C   UNL     1       1.025  10.503  19.722  0.00  0.00    +0.000 A 
ATOM     14  C   UNL     1       1.026   9.336  20.500  0.00  0.00    +0.000 A 
ATOM     15  C   UNL     1       1.542   8.140  19.974  0.00  0.00    +0.000 A 
ATOM     16 CL   UNL     1       1.549   6.772  21.029  0.00  0.00    +0.000 Cl
BRANCH  13  17
ATOM     17  N   UNL     1       0.517  11.761  20.283  0.00  0.00    +0.000 N 
ATOM     18  O   UNL     1      -0.029  12.560  19.509  0.00  0.00    +0.000 OA
ATOM     19  O   UNL     1       0.669  11.948  21.498  0.00  0.00    +0.000 OA
ENDBRANCH  13  17
ENDBRANCH   6  10
BRANCH   1  20
ATOM     20  C   UNL     1       7.085   4.672  14.856  0.00  0.00    +0.000 C 
BRANCH  20  21
ATOM     21  C   UNL     1       6.702   4.768  13.375  0.00  0.00    +0.000 C 
BRANCH  21  23
ATOM     22  C   UNL     1       4.989   3.442  12.084  0.00  0.00    +0.000 C 
ATOM     23  C   UNL     1       6.350   3.412  12.759  0.00  0.00    +0.000 C 
ENDBRANCH  21  23
ENDBRANCH  20  21
ENDBRANCH   1  20
TORSDOF 5
ENDMDL
