MODEL 1
REMARK VINA RESULT:      -9.5      0.000      0.000
REMARK  Name = 
REMARK  8 active torsions:
REMARK  status: ('A' for Active; 'I' for Inactive)
REMARK    1  A    between atoms: C_1  and  N_2
REMARK    2  A    between atoms: N_2  and  C_26
REMARK    3  A    between atoms: C_3  and  C_5
REMARK    4  A    between atoms: C_5  and  C_6
REMARK    5  A    between atoms: C_5  and  N_13
REMARK    6  A    between atoms: C_6  and  C_7
REMARK    7  A    between atoms: C_14  and  C_16
REMARK    8  A    between atoms: C_16  and  C_17
REMARK                            x       y       z     vdW  Elec       q    Type
REMARK                         _______ _______ _______ _____ _____    ______ ____
ROOT
ATOM      1  C   UNL     1       6.135   6.302  16.670  0.00  0.00    +0.000 C 
ENDROOT
BRANCH   1   4
ATOM      2  C   UNL     1       3.437   6.920  17.797  0.00  0.00    +0.000 C 
ATOM      3  N   UNL     1       4.247   5.804  18.313  0.00  0.00    +0.000 N 
ATOM      4  C   UNL     1       5.589   5.570  17.943  0.00  0.00    +0.000 C 
ATOM      5  O   UNL     1       6.313   4.756  18.527  0.00  0.00    +0.000 OA
BRANCH   3   6
ATOM      6  C   UNL     1       3.594   5.024  19.324  0.00  0.00    +0.000 A 
ATOM      7  C   UNL     1       2.530   5.519  20.085  0.00  0.00    +0.000 A 
ATOM      8  C   UNL     1       1.827   4.672  20.960  0.00  0.00    +0.000 A 
ATOM      9  C   UNL     1       2.215   3.338  21.119  0.00  0.00    +0.000 A 
ATOM     10 CL   UNL     1       1.349   2.299  22.178  0.00  0.00    +0.000 Cl
ATOM     11  C   UNL     1       3.297   2.839  20.404  0.00  0.00    +0.000 A 
ATOM     12  C   UNL     1       3.967   3.678  19.500  0.00  0.00    +0.000 A 
ENDBRANCH   3   6
ENDBRANCH   1   4
BRANCH   1  13
ATOM     13  N   UNL     1       6.506   7.721  16.911  0.00  0.00    +0.000 N 
ATOM     14  C   UNL     1       7.593   8.090  17.663  0.00  0.00    +0.000 C 
ATOM     15  O   UNL     1       8.259   7.242  18.280  0.00  0.00    +0.000 OA
ATOM     16  H   UNL     1       6.004   8.422  16.381  0.00  0.00    +0.000 HD
BRANCH  14  17
ATOM     17  C   UNL     1       8.017   9.536  17.589  0.00  0.00    +0.000 C 
BRANCH  17  18
ATOM     18  C   UNL     1       8.961  10.127  18.600  0.00  0.00    +0.000 A 
ATOM     19  C   UNL     1       9.065   9.587  19.877  0.00  0.00    +0.000 A 
ATOM     20  N   UNL     1       9.449  10.642  20.649  0.00  0.00    +0.000 N 
ATOM     21  C   UNL     1      10.381  11.334  19.924  0.00  0.00    +0.000 A 
ATOM     22  C   UNL     1      11.438  12.147  20.347  0.00  0.00    +0.000 A 
ATOM     23  C   UNL     1      12.246  12.688  19.354  0.00  0.00    +0.000 A 
ATOM     24  C   UNL     1      11.947  12.476  18.010  0.00  0.00    +0.000 A 
ATOM     25  C   UNL     1      10.833  11.710  17.611  0.00  0.00    +0.000 A 
ATOM     26  C   UNL     1      10.048  11.074  18.585  0.00  0.00    +0.000 A 
ATOM     27  H   UNL     1       9.166  10.836  21.599  0.00  0.00    +0.000 HD
ENDBRANCH  17  18
ENDBRANCH  14  17
ENDBRANCH   1  13
BRANCH   1  28
ATOM     28  C   UNL     1       7.288   5.530  15.987  0.00  0.00    +0.000 C 
BRANCH  28  29
ATOM     29  C   UNL     1       7.016   4.926  14.626  0.00  0.00    +0.000 A 
ATOM     30  C   UNL     1       7.831   5.184  13.518  0.00  0.00    +0.000 A 
ATOM     31  C   UNL     1       7.537   4.621  12.273  0.00  0.00    +0.000 A 
ATOM     32  C   UNL     1       6.444   3.772  12.126  0.00  0.00    +0.000 A 
ATOM     33  C   UNL     1       5.662   3.460  13.232  0.00  0.00    +0.000 A 
ATOM     34  C   UNL     1       5.946   4.030  14.475  0.00  0.00    +0.000 A 
ENDBRANCH  28  29
ENDBRANCH   1  28
TORSDOF 7
ENDMDL
MODEL 2
REMARK VINA RESULT:      -9.4      6.585     10.791
REMARK  Name = 
REMARK  8 active torsions:
REMARK  status: ('A' for Active; 'I' for Inactive)
REMARK    1  A    between atoms: C_1  and  N_2
REMARK    2  A    between atoms: N_2  and  C_26
REMARK    3  A    between atoms: C_3  and  C_5
REMARK    4  A    between atoms: C_5  and  C_6
REMARK    5  A    between atoms: C_5  and  N_13
REMARK    6  A    between atoms: C_6  and  C_7
REMARK    7  A    between atoms: C_14  and  C_16
REMARK    8  A    between atoms: C_16  and  C_17
REMARK                            x       y       z     vdW  Elec       q    Type
REMARK                         _______ _______ _______ _____ _____    ______ ____
ROOT
ATOM      1  C   UNL     1       0.316  10.814  19.578  0.00  0.00    +0.000 C 
ENDROOT
BRANCH   1   4
ATOM      2  C   UNL     1       2.417  12.386  18.148  0.00  0.00    +0.000 C 
ATOM      3  N   UNL     1       1.883  12.824  19.449  0.00  0.00    +0.000 N 
ATOM      4  C   UNL     1       1.022  12.042  20.248  0.00  0.00    +0.000 C 
ATOM      5  O   UNL     1       0.741  12.335  21.416  0.00  0.00    +0.000 OA
BRANCH   3   6
ATOM      6  C   UNL     1       2.403  14.082  19.902  0.00  0.00    +0.000 A 
ATOM      7  C   UNL     1       3.564  14.181  20.675  0.00  0.00    +0.000 A 
ATOM      8  C   UNL     1       4.115  15.440  20.971  0.00  0.00    +0.000 A 
ATOM      9  C   UNL     1       3.482  16.610  20.543  0.00  0.00    +0.000 A 
ATOM     10 CL   UNL     1       4.161  18.148  20.894  0.00  0.00    +0.000 Cl
ATOM     11  C   UNL     1       2.303  16.533  19.810  0.00  0.00    +0.000 A 
ATOM     12  C   UNL     1       1.781  15.273  19.480  0.00  0.00    +0.000 A 
ENDBRANCH   3   6
ENDBRANCH   1   4
BRANCH   1  13
ATOM     13  N   UNL     1       0.827   9.501  20.051  0.00  0.00    +0.000 N 
ATOM     14  C   UNL     1       1.557   8.655  19.255  0.00  0.00    +0.000 C 
ATOM     15  O   UNL     1       1.729   8.903  18.050  0.00  0.00    +0.000 OA
ATOM     16  H   UNL     1       0.735   9.304  21.040  0.00  0.00    +0.000 HD
BRANCH  14  17
ATOM     17  C   UNL     1       2.250   7.502  19.937  0.00  0.00    +0.000 C 
BRANCH  17  18
ATOM     18  C   UNL     1       2.490   6.200  19.223  0.00  0.00    +0.000 A 
ATOM     19  C   UNL     1       3.631   6.014  18.450  0.00  0.00    +0.000 A 
ATOM     20  N   UNL     1       3.248   5.098  17.517  0.00  0.00    +0.000 N 
ATOM     21  C   UNL     1       2.487   4.170  18.173  0.00  0.00    +0.000 A 
ATOM     22  C   UNL     1       2.258   2.819  17.887  0.00  0.00    +0.000 A 
ATOM     23  C   UNL     1       1.454   2.120  18.780  0.00  0.00    +0.000 A 
ATOM     24  C   UNL     1       0.857   2.778  19.854  0.00  0.00    +0.000 A 
ATOM     25  C   UNL     1       1.049   4.156  20.076  0.00  0.00    +0.000 A 
ATOM     26  C   UNL     1       1.926   4.874  19.249  0.00  0.00    +0.000 A 
ATOM     27  H   UNL     1       3.532   5.062  16.548  0.00  0.00    +0.000 HD
ENDBRANCH  17  18
ENDBRANCH  14  17
ENDBRANCH   1  13
BRANCH   1  28
ATOM     28  C   UNL     1      -1.226  10.885  19.680  0.00  0.00    +0.000 C 
BRANCH  28  29
ATOM     29  C   UNL     1      -2.016  10.802  18.392  0.00  0.00    +0.000 A 
ATOM     30  C   UNL     1      -1.627   9.979  17.328  0.00  0.00    +0.000 A 
ATOM     31  C   UNL     1      -2.373   9.943  16.147  0.00  0.00    +0.000 A 
ATOM     32  C   UNL     1      -3.531  10.705  16.024  0.00  0.00    +0.000 A 
ATOM     33  C   UNL     1      -3.961  11.480  17.095  0.00  0.00    +0.000 A 
ATOM     34  C   UNL     1      -3.212  11.528  18.272  0.00  0.00    +0.000 A 
ENDBRANCH  28  29
ENDBRANCH   1  28
TORSDOF 7
ENDMDL
MODEL 3
REMARK VINA RESULT:      -9.4      6.523     10.517
REMARK  Name = 
REMARK  8 active torsions:
REMARK  status: ('A' for Active; 'I' for Inactive)
REMARK    1  A    between atoms: C_1  and  N_2
REMARK    2  A    between atoms: N_2  and  C_26
REMARK    3  A    between atoms: C_3  and  C_5
REMARK    4  A    between atoms: C_5  and  C_6
REMARK    5  A    between atoms: C_5  and  N_13
REMARK    6  A    between atoms: C_6  and  C_7
REMARK    7  A    between atoms: C_14  and  C_16
REMARK    8  A    between atoms: C_16  and  C_17
REMARK                            x       y       z     vdW  Elec       q    Type
REMARK                         _______ _______ _______ _____ _____    ______ ____
ROOT
ATOM      1  C   UNL     1       0.464  10.538  19.362  0.00  0.00    +0.000 C 
ENDROOT
BRANCH   1   4
ATOM      2  C   UNL     1       2.075  12.865  18.403  0.00  0.00    +0.000 C 
ATOM      3  N   UNL     1       1.684  12.733  19.816  0.00  0.00    +0.000 N 
ATOM      4  C   UNL     1       1.076  11.581  20.359  0.00  0.00    +0.000 C 
ATOM      5  O   UNL     1       0.934  11.407  21.574  0.00  0.00    +0.000 OA
BRANCH   3   6
ATOM      6  C   UNL     1       2.077  13.840  20.639  0.00  0.00    +0.000 A 
ATOM      7  C   UNL     1       1.159  14.771  21.137  0.00  0.00    +0.000 A 
ATOM      8  C   UNL     1       1.569  15.752  22.057  0.00  0.00    +0.000 A 
ATOM      9  C   UNL     1       2.908  15.843  22.446  0.00  0.00    +0.000 A 
ATOM     10 CL   UNL     1       3.407  17.033  23.579  0.00  0.00    +0.000 Cl
ATOM     11  C   UNL     1       3.843  14.954  21.930  0.00  0.00    +0.000 A 
ATOM     12  C   UNL     1       3.420  13.950  21.045  0.00  0.00    +0.000 A 
ENDBRANCH   3   6
ENDBRANCH   1   4
BRANCH   1  13
ATOM     13  N   UNL     1       1.185   9.239  19.340  0.00  0.00    +0.000 N 
ATOM     14  C   UNL     1       1.919   8.812  18.262  0.00  0.00    +0.000 C 
ATOM     15  O   UNL     1       1.919   9.452  17.198  0.00  0.00    +0.000 OA
ATOM     16  H   UNL     1       1.232   8.727  20.212  0.00  0.00    +0.000 HD
BRANCH  14  17
ATOM     17  C   UNL     1       2.823   7.624  18.477  0.00  0.00    +0.000 C 
BRANCH  17  18
ATOM     18  C   UNL     1       2.381   6.443  19.296  0.00  0.00    +0.000 A 
ATOM     19  C   UNL     1       1.932   6.610  20.602  0.00  0.00    +0.000 A 
ATOM     20  N   UNL     1       2.224   5.423  21.203  0.00  0.00    +0.000 N 
ATOM     21  C   UNL     1       1.911   4.444  20.301  0.00  0.00    +0.000 A 
ATOM     22  C   UNL     1       1.530   3.112  20.503  0.00  0.00    +0.000 A 
ATOM     23  C   UNL     1       1.237   2.368  19.366  0.00  0.00    +0.000 A 
ATOM     24  C   UNL     1       1.398   2.924  18.099  0.00  0.00    +0.000 A 
ATOM     25  C   UNL     1       1.852   4.247  17.924  0.00  0.00    +0.000 A 
ATOM     26  C   UNL     1       2.071   5.057  19.049  0.00  0.00    +0.000 A 
ATOM     27  H   UNL     1       2.534   5.283  22.155  0.00  0.00    +0.000 HD
ENDBRANCH  17  18
ENDBRANCH  14  17
ENDBRANCH   1  13
BRANCH   1  28
ATOM     28  C   UNL     1      -1.055  10.333  19.573  0.00  0.00    +0.000 C 
BRANCH  28  29
ATOM     29  C   UNL     1      -1.959  10.524  18.375  0.00  0.00    +0.000 A 
ATOM     30  C   UNL     1      -3.056  11.394  18.398  0.00  0.00    +0.000 A 
ATOM     31  C   UNL     1      -3.879  11.532  17.276  0.00  0.00    +0.000 A 
ATOM     32  C   UNL     1      -3.601  10.825  16.111  0.00  0.00    +0.000 A 
ATOM     33  C   UNL     1      -2.480  10.004  16.054  0.00  0.00    +0.000 A 
ATOM     34  C   UNL     1      -1.663   9.855  17.177  0.00  0.00    +0.000 A 
ENDBRANCH  28  29
ENDBRANCH   1  28
TORSDOF 7
ENDMDL
MODEL 4
REMARK VINA RESULT:      -9.3      6.515     10.108
REMARK  Name = 
REMARK  8 active torsions:
REMARK  status: ('A' for Active; 'I' for Inactive)
REMARK    1  A    between atoms: C_1  and  N_2
REMARK    2  A    between atoms: N_2  and  C_26
REMARK    3  A    between atoms: C_3  and  C_5
REMARK    4  A    between atoms: C_5  and  C_6
REMARK    5  A    between atoms: C_5  and  N_13
REMARK    6  A    between atoms: C_6  and  C_7
REMARK    7  A    between atoms: C_14  and  C_16
REMARK    8  A    between atoms: C_16  and  C_17
REMARK                            x       y       z     vdW  Elec       q    Type
REMARK                         _______ _______ _______ _____ _____    ______ ____
ROOT
ATOM      1  C   UNL     1       0.372  10.706  19.475  0.00  0.00    +0.000 C 
ENDROOT
BRANCH   1   4
ATOM      2  C   UNL     1       2.460  12.340  18.096  0.00  0.00    +0.000 C 
ATOM      3  N   UNL     1       1.921  12.733  19.409  0.00  0.00    +0.000 N 
ATOM      4  C   UNL     1       1.067  11.919  20.183  0.00  0.00    +0.000 C 
ATOM      5  O   UNL     1       0.783  12.173  21.359  0.00  0.00    +0.000 OA
BRANCH   3   6
ATOM      6  C   UNL     1       2.430  13.981  19.901  0.00  0.00    +0.000 A 
ATOM      7  C   UNL     1       3.563  14.062  20.716  0.00  0.00    +0.000 A 
ATOM      8  C   UNL     1       4.109  15.313  21.053  0.00  0.00    +0.000 A 
ATOM      9  C   UNL     1       3.496  16.492  20.622  0.00  0.00    +0.000 A 
ATOM     10 CL   UNL     1       4.168  18.021  21.022  0.00  0.00    +0.000 Cl
ATOM     11  C   UNL     1       2.344  16.433  19.847  0.00  0.00    +0.000 A 
ATOM     12  C   UNL     1       1.829  15.181  19.477  0.00  0.00    +0.000 A 
ENDBRANCH   3   6
ENDBRANCH   1   4
BRANCH   1  13
ATOM     13  N   UNL     1       0.927   9.385  19.872  0.00  0.00    +0.000 N 
ATOM     14  C   UNL     1       1.617   8.576  19.005  0.00  0.00    +0.000 C 
ATOM     15  O   UNL     1       1.711   8.865  17.801  0.00  0.00    +0.000 OA
ATOM     16  H   UNL     1       0.900   9.155  20.857  0.00  0.00    +0.000 HD
BRANCH  14  17
ATOM     17  C   UNL     1       2.364   7.411  19.604  0.00  0.00    +0.000 C 
BRANCH  17  18
ATOM     18  C   UNL     1       2.815   6.252  18.759  0.00  0.00    +0.000 A 
ATOM     19  C   UNL     1       2.076   5.075  18.712  0.00  0.00    +0.000 A 
ATOM     20  N   UNL     1       3.003   4.117  18.431  0.00  0.00    +0.000 N 
ATOM     21  C   UNL     1       3.839   4.650  17.489  0.00  0.00    +0.000 A 
ATOM     22  C   UNL     1       4.610   4.025  16.502  0.00  0.00    +0.000 A 
ATOM     23  C   UNL     1       5.337   4.856  15.659  0.00  0.00    +0.000 A 
ATOM     24  C   UNL     1       5.340   6.235  15.859  0.00  0.00    +0.000 A 
ATOM     25  C   UNL     1       4.609   6.832  16.906  0.00  0.00    +0.000 A 
ATOM     26  C   UNL     1       3.792   6.034  17.721  0.00  0.00    +0.000 A 
ATOM     27  H   UNL     1       3.026   3.171  18.785  0.00  0.00    +0.000 HD
ENDBRANCH  17  18
ENDBRANCH  14  17
ENDBRANCH   1  13
BRANCH   1  28
ATOM     28  C   UNL     1      -1.167  10.733  19.621  0.00  0.00    +0.000 C 
BRANCH  28  29
ATOM     29  C   UNL     1      -1.990  10.715  18.351  0.00  0.00    +0.000 A 
ATOM     30  C   UNL     1      -1.645   9.925  17.248  0.00  0.00    +0.000 A 
ATOM     31  C   UNL     1      -2.421   9.948  16.085  0.00  0.00    +0.000 A 
ATOM     32  C   UNL     1      -3.564  10.738  16.020  0.00  0.00    +0.000 A 
ATOM     33  C   UNL     1      -3.952  11.481  17.129  0.00  0.00    +0.000 A 
ATOM     34  C   UNL     1      -3.173  11.469  18.288  0.00  0.00    +0.000 A 
ENDBRANCH  28  29
ENDBRANCH   1  28
TORSDOF 7
ENDMDL
MODEL 5
REMARK VINA RESULT:      -9.2      6.733     10.646
REMARK  Name = 
REMARK  8 active torsions:
REMARK  status: ('A' for Active; 'I' for Inactive)
REMARK    1  A    between atoms: C_1  and  N_2
REMARK    2  A    between atoms: N_2  and  C_26
REMARK    3  A    between atoms: C_3  and  C_5
REMARK    4  A    between atoms: C_5  and  C_6
REMARK    5  A    between atoms: C_5  and  N_13
REMARK    6  A    between atoms: C_6  and  C_7
REMARK    7  A    between atoms: C_14  and  C_16
REMARK    8  A    between atoms: C_16  and  C_17
REMARK                            x       y       z     vdW  Elec       q    Type
REMARK                         _______ _______ _______ _____ _____    ______ ____
ROOT
ATOM      1  C   UNL     1       0.306  10.210  19.262  0.00  0.00    +0.000 C 
ENDROOT
BRANCH   1   4
ATOM      2  C   UNL     1       0.319  13.114  18.558  0.00  0.00    +0.000 C 
ATOM      3  N   UNL     1       0.579  12.656  19.933  0.00  0.00    +0.000 N 
ATOM      4  C   UNL     1       0.756  11.303  20.291  0.00  0.00    +0.000 C 
ATOM      5  O   UNL     1       1.167  10.951  21.402  0.00  0.00    +0.000 OA
BRANCH   3   6
ATOM      6  C   UNL     1       0.756  13.719  20.881  0.00  0.00    +0.000 A 
ATOM      7  C   UNL     1       1.874  14.559  20.870  0.00  0.00    +0.000 A 
ATOM      8  C   UNL     1       1.933  15.675  21.722  0.00  0.00    +0.000 A 
ATOM      9  C   UNL     1       0.900  15.930  22.629  0.00  0.00    +0.000 A 
ATOM     10 CL   UNL     1       0.965  17.301  23.662  0.00  0.00    +0.000 Cl
ATOM     11  C   UNL     1      -0.200  15.083  22.684  0.00  0.00    +0.000 A 
ATOM     12  C   UNL     1      -0.274  13.995  21.801  0.00  0.00    +0.000 A 
ENDBRANCH   3   6
ENDBRANCH   1   4
BRANCH   1  13
ATOM     13  N   UNL     1       1.100   8.955  19.339  0.00  0.00    +0.000 N 
ATOM     14  C   UNL     1       1.957   8.553  18.344  0.00  0.00    +0.000 C 
ATOM     15  O   UNL     1       2.020   9.173  17.269  0.00  0.00    +0.000 OA
ATOM     16  H   UNL     1       1.095   8.464  20.223  0.00  0.00    +0.000 HD
BRANCH  14  17
ATOM     17  C   UNL     1       2.904   7.426  18.671  0.00  0.00    +0.000 C 
BRANCH  17  18
ATOM     18  C   UNL     1       2.442   5.995  18.683  0.00  0.00    +0.000 A 
ATOM     19  C   UNL     1       2.447   5.236  17.517  0.00  0.00    +0.000 A 
ATOM     20  N   UNL     1       1.455   4.323  17.716  0.00  0.00    +0.000 N 
ATOM     21  C   UNL     1       1.562   3.911  19.016  0.00  0.00    +0.000 A 
ATOM     22  C   UNL     1       1.189   2.704  19.618  0.00  0.00    +0.000 A 
ATOM     23  C   UNL     1       1.467   2.571  20.973  0.00  0.00    +0.000 A 
ATOM     24  C   UNL     1       2.020   3.633  21.686  0.00  0.00    +0.000 A 
ATOM     25  C   UNL     1       2.321   4.863  21.068  0.00  0.00    +0.000 A 
ATOM     26  C   UNL     1       2.137   5.003  19.684  0.00  0.00    +0.000 A 
ATOM     27  H   UNL     1       0.815   3.960  17.023  0.00  0.00    +0.000 HD
ENDBRANCH  17  18
ENDBRANCH  14  17
ENDBRANCH   1  13
BRANCH   1  28
ATOM     28  C   UNL     1      -1.211   9.916  19.329  0.00  0.00    +0.000 C 
BRANCH  28  29
ATOM     29  C   UNL     1      -2.052  10.308  18.133  0.00  0.00    +0.000 A 
ATOM     30  C   UNL     1      -1.848   9.755  16.863  0.00  0.00    +0.000 A 
ATOM     31  C   UNL     1      -2.634  10.155  15.779  0.00  0.00    +0.000 A 
ATOM     32  C   UNL     1      -3.650  11.088  15.955  0.00  0.00    +0.000 A 
ATOM     33  C   UNL     1      -3.903  11.600  17.223  0.00  0.00    +0.000 A 
ATOM     34  C   UNL     1      -3.112  11.212  18.305  0.00  0.00    +0.000 A 
ENDBRANCH  28  29
ENDBRANCH   1  28
TORSDOF 7
ENDMDL
MODEL 6
REMARK VINA RESULT:      -9.2      6.528     10.629
REMARK  Name = 
REMARK  8 active torsions:
REMARK  status: ('A' for Active; 'I' for Inactive)
REMARK    1  A    between atoms: C_1  and  N_2
REMARK    2  A    between atoms: N_2  and  C_26
REMARK    3  A    between atoms: C_3  and  C_5
REMARK    4  A    between atoms: C_5  and  C_6
REMARK    5  A    between atoms: C_5  and  N_13
REMARK    6  A    between atoms: C_6  and  C_7
REMARK    7  A    between atoms: C_14  and  C_16
REMARK    8  A    between atoms: C_16  and  C_17
REMARK                            x       y       z     vdW  Elec       q    Type
REMARK                         _______ _______ _______ _____ _____    ______ ____
ROOT
ATOM      1  C   UNL     1       0.360  10.445  19.048  0.00  0.00    +0.000 C 
ENDROOT
BRANCH   1   4
ATOM      2  C   UNL     1       2.569  12.046  17.827  0.00  0.00    +0.000 C 
ATOM      3  N   UNL     1       1.772  12.568  18.949  0.00  0.00    +0.000 N 
ATOM      4  C   UNL     1       0.837  11.799  19.675  0.00  0.00    +0.000 C 
ATOM      5  O   UNL     1       0.324  12.188  20.730  0.00  0.00    +0.000 OA
BRANCH   3   6
ATOM      6  C   UNL     1       2.104  13.912  19.329  0.00  0.00    +0.000 A 
ATOM      7  C   UNL     1       1.345  15.016  18.930  0.00  0.00    +0.000 A 
ATOM      8  C   UNL     1       1.623  16.294  19.445  0.00  0.00    +0.000 A 
ATOM      9  C   UNL     1       2.694  16.486  20.323  0.00  0.00    +0.000 A 
ATOM     10 CL   UNL     1       3.027  18.045  20.963  0.00  0.00    +0.000 Cl
ATOM     11  C   UNL     1       3.486  15.408  20.698  0.00  0.00    +0.000 A 
ATOM     12  C   UNL     1       3.177  14.128  20.214  0.00  0.00    +0.000 A 
ENDBRANCH   3   6
ENDBRANCH   1   4
BRANCH   1  13
ATOM     13  N   UNL     1       1.151   9.268  19.495  0.00  0.00    +0.000 N 
ATOM     14  C   UNL     1       1.833   8.455  18.625  0.00  0.00    +0.000 C 
ATOM     15  O   UNL     1       1.724   8.602  17.397  0.00  0.00    +0.000 OA
ATOM     16  H   UNL     1       1.287   9.160  20.492  0.00  0.00    +0.000 HD
BRANCH  14  17
ATOM     17  C   UNL     1       2.816   7.482  19.227  0.00  0.00    +0.000 C 
BRANCH  17  18
ATOM     18  C   UNL     1       2.911   6.063  18.737  0.00  0.00    +0.000 A 
ATOM     19  C   UNL     1       4.012   5.637  18.001  0.00  0.00    +0.000 A 
ATOM     20  N   UNL     1       3.521   4.624  17.235  0.00  0.00    +0.000 N 
ATOM     21  C   UNL     1       2.686   3.898  18.039  0.00  0.00    +0.000 A 
ATOM     22  C   UNL     1       2.319   2.549  17.983  0.00  0.00    +0.000 A 
ATOM     23  C   UNL     1       1.468   2.091  18.982  0.00  0.00    +0.000 A 
ATOM     24  C   UNL     1       0.962   2.974  19.934  0.00  0.00    +0.000 A 
ATOM     25  C   UNL     1       1.293   4.344  19.924  0.00  0.00    +0.000 A 
ATOM     26  C   UNL     1       2.220   4.823  18.986  0.00  0.00    +0.000 A 
ATOM     27  H   UNL     1       3.780   4.400  16.284  0.00  0.00    +0.000 HD
ENDBRANCH  17  18
ENDBRANCH  14  17
ENDBRANCH   1  13
BRANCH   1  28
ATOM     28  C   UNL     1      -1.156  10.204  19.233  0.00  0.00    +0.000 C 
BRANCH  28  29
ATOM     29  C   UNL     1      -2.051  10.421  18.032  0.00  0.00    +0.000 A 
ATOM     30  C   UNL     1      -1.850   9.750  16.820  0.00  0.00    +0.000 A 
ATOM     31  C   UNL     1      -2.688   9.989  15.727  0.00  0.00    +0.000 A 
ATOM     32  C   UNL     1      -3.752  10.879  15.839  0.00  0.00    +0.000 A 
ATOM     33  C   UNL     1      -3.999  11.506  17.055  0.00  0.00    +0.000 A 
ATOM     34  C   UNL     1      -3.157  11.278  18.145  0.00  0.00    +0.000 A 
ENDBRANCH  28  29
ENDBRANCH   1  28
TORSDOF 7
ENDMDL
MODEL 7
REMARK VINA RESULT:      -9.2      1.348      1.830
REMARK  Name = 
REMARK  8 active torsions:
REMARK  status: ('A' for Active; 'I' for Inactive)
REMARK    1  A    between atoms: C_1  and  N_2
REMARK    2  A    between atoms: N_2  and  C_26
REMARK    3  A    between atoms: C_3  and  C_5
REMARK    4  A    between atoms: C_5  and  C_6
REMARK    5  A    between atoms: C_5  and  N_13
REMARK    6  A    between atoms: C_6  and  C_7
REMARK    7  A    between atoms: C_14  and  C_16
REMARK    8  A    between atoms: C_16  and  C_17
REMARK                            x       y       z     vdW  Elec       q    Type
REMARK                         _______ _______ _______ _____ _____    ______ ____
ROOT
ATOM      1  C   UNL     1       7.289   6.506  17.908  0.00  0.00    +0.000 C 
ENDROOT
BRANCH   1   4
ATOM      2  C   UNL     1       4.334   6.650  17.485  0.00  0.00    +0.000 C 
ATOM      3  N   UNL     1       4.920   5.790  18.527  0.00  0.00    +0.000 N 
ATOM      4  C   UNL     1       6.284   5.809  18.887  0.00  0.00    +0.000 C 
ATOM      5  O   UNL     1       6.721   5.231  19.889  0.00  0.00    +0.000 OA
BRANCH   3   6
ATOM      6  C   UNL     1       3.960   4.997  19.240  0.00  0.00    +0.000 A 
ATOM      7  C   UNL     1       3.992   3.599  19.241  0.00  0.00    +0.000 A 
ATOM      8  C   UNL     1       3.122   2.868  20.069  0.00  0.00    +0.000 A 
ATOM      9  C   UNL     1       2.180   3.528  20.864  0.00  0.00    +0.000 A 
ATOM     10 CL   UNL     1       1.126   2.637  21.886  0.00  0.00    +0.000 Cl
ATOM     11  C   UNL     1       2.104   4.915  20.845  0.00  0.00    +0.000 A 
ATOM     12  C   UNL     1       3.004   5.640  20.048  0.00  0.00    +0.000 A 
ENDBRANCH   3   6
ENDBRANCH   1   4
BRANCH   1  13
ATOM     13  N   UNL     1       8.276   7.383  18.591  0.00  0.00    +0.000 N 
ATOM     14  C   UNL     1       8.333   8.740  18.389  0.00  0.00    +0.000 C 
ATOM     15  O   UNL     1       7.625   9.285  17.526  0.00  0.00    +0.000 OA
ATOM     16  H   UNL     1       8.829   6.964  19.328  0.00  0.00    +0.000 HD
BRANCH  14  17
ATOM     17  C   UNL     1       9.179   9.539  19.348  0.00  0.00    +0.000 C 
BRANCH  17  18
ATOM     18  C   UNL     1       9.363  11.022  19.179  0.00  0.00    +0.000 A 
ATOM     19  C   UNL     1       8.911  11.910  20.150  0.00  0.00    +0.000 A 
ATOM     20  N   UNL     1       8.657  13.054  19.455  0.00  0.00    +0.000 N 
ATOM     21  C   UNL     1       9.679  13.200  18.559  0.00  0.00    +0.000 A 
ATOM     22  C   UNL     1      10.212  14.352  17.970  0.00  0.00    +0.000 A 
ATOM     23  C   UNL     1      11.293  14.174  17.115  0.00  0.00    +0.000 A 
ATOM     24  C   UNL     1      11.751  12.892  16.816  0.00  0.00    +0.000 A 
ATOM     25  C   UNL     1      11.149  11.744  17.369  0.00  0.00    +0.000 A 
ATOM     26  C   UNL     1      10.115  11.889  18.307  0.00  0.00    +0.000 A 
ATOM     27  H   UNL     1       7.906  13.710  19.618  0.00  0.00    +0.000 HD
ENDBRANCH  17  18
ENDBRANCH  14  17
ENDBRANCH   1  13
BRANCH   1  28
ATOM     28  C   UNL     1       7.992   5.504  16.962  0.00  0.00    +0.000 C 
BRANCH  28  29
ATOM     29  C   UNL     1       7.186   4.953  15.806  0.00  0.00    +0.000 A 
ATOM     30  C   UNL     1       7.475   5.274  14.474  0.00  0.00    +0.000 A 
ATOM     31  C   UNL     1       6.697   4.759  13.433  0.00  0.00    +0.000 A 
ATOM     32  C   UNL     1       5.642   3.894  13.707  0.00  0.00    +0.000 A 
ATOM     33  C   UNL     1       5.383   3.519  15.020  0.00  0.00    +0.000 A 
ATOM     34  C   UNL     1       6.150   4.041  16.063  0.00  0.00    +0.000 A 
ENDBRANCH  28  29
ENDBRANCH   1  28
TORSDOF 7
ENDMDL
MODEL 8
REMARK VINA RESULT:      -9.1      5.116      8.788
REMARK  Name = 
REMARK  8 active torsions:
REMARK  status: ('A' for Active; 'I' for Inactive)
REMARK    1  A    between atoms: C_1  and  N_2
REMARK    2  A    between atoms: N_2  and  C_26
REMARK    3  A    between atoms: C_3  and  C_5
REMARK    4  A    between atoms: C_5  and  C_6
REMARK    5  A    between atoms: C_5  and  N_13
REMARK    6  A    between atoms: C_6  and  C_7
REMARK    7  A    between atoms: C_14  and  C_16
REMARK    8  A    between atoms: C_16  and  C_17
REMARK                            x       y       z     vdW  Elec       q    Type
REMARK                         _______ _______ _______ _____ _____    ______ ____
ROOT
ATOM      1  C   UNL     1       2.155   7.264  19.841  0.00  0.00    +0.000 C 
ENDROOT
BRANCH   1   4
ATOM      2  C   UNL     1       4.801   5.908  19.535  0.00  0.00    +0.000 C 
ATOM      3  N   UNL     1       3.916   6.133  18.381  0.00  0.00    +0.000 N 
ATOM      4  C   UNL     1       2.742   6.914  18.431  0.00  0.00    +0.000 C 
ATOM      5  O   UNL     1       2.119   7.256  17.419  0.00  0.00    +0.000 OA
BRANCH   3   6
ATOM      6  C   UNL     1       4.406   5.582  17.150  0.00  0.00    +0.000 A 
ATOM      7  C   UNL     1       5.023   6.364  16.169  0.00  0.00    +0.000 A 
ATOM      8  C   UNL     1       5.617   5.760  15.047  0.00  0.00    +0.000 A 
ATOM      9  C   UNL     1       5.554   4.374  14.872  0.00  0.00    +0.000 A 
ATOM     10 CL   UNL     1       6.291   3.634  13.509  0.00  0.00    +0.000 Cl
ATOM     11  C   UNL     1       4.908   3.584  15.815  0.00  0.00    +0.000 A 
ATOM     12  C   UNL     1       4.354   4.189  16.954  0.00  0.00    +0.000 A 
ENDBRANCH   3   6
ENDBRANCH   1   4
BRANCH   1  13
ATOM     13  N   UNL     1       1.561   8.624  19.921  0.00  0.00    +0.000 N 
ATOM     14  C   UNL     1       1.179   9.203  21.105  0.00  0.00    +0.000 C 
ATOM     15  O   UNL     1       1.208   8.559  22.167  0.00  0.00    +0.000 OA
ATOM     16  H   UNL     1       1.571   9.178  19.074  0.00  0.00    +0.000 HD
BRANCH  14  17
ATOM     17  C   UNL     1       0.863  10.677  21.075  0.00  0.00    +0.000 C 
BRANCH  17  18
ATOM     18  C   UNL     1      -0.370  11.199  20.391  0.00  0.00    +0.000 A 
ATOM     19  C   UNL     1      -0.916  12.428  20.749  0.00  0.00    +0.000 A 
ATOM     20  N   UNL     1      -2.240  12.297  20.452  0.00  0.00    +0.000 N 
ATOM     21  C   UNL     1      -2.306  11.637  19.256  0.00  0.00    +0.000 A 
ATOM     22  C   UNL     1      -3.288  11.663  18.259  0.00  0.00    +0.000 A 
ATOM     23  C   UNL     1      -3.045  10.899  17.123  0.00  0.00    +0.000 A 
ATOM     24  C   UNL     1      -1.908  10.096  17.045  0.00  0.00    +0.000 A 
ATOM     25  C   UNL     1      -0.971  10.035  18.095  0.00  0.00    +0.000 A 
ATOM     26  C   UNL     1      -1.137  10.861  19.218  0.00  0.00    +0.000 A 
ATOM     27  H   UNL     1      -3.019  12.679  20.968  0.00  0.00    +0.000 HD
ENDBRANCH  17  18
ENDBRANCH  14  17
ENDBRANCH   1  13
BRANCH   1  28
ATOM     28  C   UNL     1       1.169   6.191  20.359  0.00  0.00    +0.000 C 
BRANCH  28  29
ATOM     29  C   UNL     1       1.589   4.742  20.246  0.00  0.00    +0.000 A 
ATOM     30  C   UNL     1       2.265   4.077  21.277  0.00  0.00    +0.000 A 
ATOM     31  C   UNL     1       2.652   2.742  21.128  0.00  0.00    +0.000 A 
ATOM     32  C   UNL     1       2.345   2.047  19.962  0.00  0.00    +0.000 A 
ATOM     33  C   UNL     1       1.622   2.678  18.956  0.00  0.00    +0.000 A 
ATOM     34  C   UNL     1       1.244   4.014  19.096  0.00  0.00    +0.000 A 
ENDBRANCH  28  29
ENDBRANCH   1  28
TORSDOF 7
ENDMDL
MODEL 9
REMARK VINA RESULT:      -9.0      5.094      8.799
REMARK  Name = 
REMARK  8 active torsions:
REMARK  status: ('A' for Active; 'I' for Inactive)
REMARK    1  A    between atoms: C_1  and  N_2
REMARK    2  A    between atoms: N_2  and  C_26
REMARK    3  A    between atoms: C_3  and  C_5
REMARK    4  A    between atoms: C_5  and  C_6
REMARK    5  A    between atoms: C_5  and  N_13
REMARK    6  A    between atoms: C_6  and  C_7
REMARK    7  A    between atoms: C_14  and  C_16
REMARK    8  A    between atoms: C_16  and  C_17
REMARK                            x       y       z     vdW  Elec       q    Type
REMARK                         _______ _______ _______ _____ _____    ______ ____
ROOT
ATOM      1  C   UNL     1       2.175   7.148  19.807  0.00  0.00    +0.000 C 
ENDROOT
BRANCH   1   4
ATOM      2  C   UNL     1       4.869   5.862  19.654  0.00  0.00    +0.000 C 
ATOM      3  N   UNL     1       4.015   6.000  18.462  0.00  0.00    +0.000 N 
ATOM      4  C   UNL     1       2.817   6.745  18.435  0.00  0.00    +0.000 C 
ATOM      5  O   UNL     1       2.218   7.013  17.388  0.00  0.00    +0.000 OA
BRANCH   3   6
ATOM      6  C   UNL     1       4.561   5.401  17.278  0.00  0.00    +0.000 A 
ATOM      7  C   UNL     1       4.436   4.037  16.999  0.00  0.00    +0.000 A 
ATOM      8  C   UNL     1       4.858   3.523  15.760  0.00  0.00    +0.000 A 
ATOM      9  C   UNL     1       5.454   4.359  14.812  0.00  0.00    +0.000 A 
ATOM     10 CL   UNL     1       5.957   3.735  13.293  0.00  0.00    +0.000 Cl
ATOM     11  C   UNL     1       5.625   5.710  15.087  0.00  0.00    +0.000 A 
ATOM     12  C   UNL     1       5.163   6.225  16.308  0.00  0.00    +0.000 A 
ENDBRANCH   3   6
ENDBRANCH   1   4
BRANCH   1  13
ATOM     13  N   UNL     1       1.605   8.520  19.819  0.00  0.00    +0.000 N 
ATOM     14  C   UNL     1       1.226   9.160  20.972  0.00  0.00    +0.000 C 
ATOM     15  O   UNL     1       1.237   8.566  22.063  0.00  0.00    +0.000 OA
ATOM     16  H   UNL     1       1.631   9.034  18.947  0.00  0.00    +0.000 HD
BRANCH  14  17
ATOM     17  C   UNL     1       0.937  10.637  20.872  0.00  0.00    +0.000 C 
BRANCH  17  18
ATOM     18  C   UNL     1      -0.324  11.145  20.228  0.00  0.00    +0.000 A 
ATOM     19  C   UNL     1      -0.868  12.370  20.600  0.00  0.00    +0.000 A 
ATOM     20  N   UNL     1      -2.200  12.226  20.349  0.00  0.00    +0.000 N 
ATOM     21  C   UNL     1      -2.301  11.561  19.158  0.00  0.00    +0.000 A 
ATOM     22  C   UNL     1      -3.316  11.574  18.194  0.00  0.00    +0.000 A 
ATOM     23  C   UNL     1      -3.104  10.808  17.054  0.00  0.00    +0.000 A 
ATOM     24  C   UNL     1      -1.964  10.016  16.940  0.00  0.00    +0.000 A 
ATOM     25  C   UNL     1      -0.991   9.967  17.958  0.00  0.00    +0.000 A 
ATOM     26  C   UNL     1      -1.126  10.796  19.083  0.00  0.00    +0.000 A 
ATOM     27  H   UNL     1      -2.965  12.603  20.890  0.00  0.00    +0.000 HD
ENDBRANCH  17  18
ENDBRANCH  14  17
ENDBRANCH   1  13
BRANCH   1  28
ATOM     28  C   UNL     1       1.146   6.109  20.312  0.00  0.00    +0.000 C 
BRANCH  28  29
ATOM     29  C   UNL     1       1.508   4.646  20.183  0.00  0.00    +0.000 A 
ATOM     30  C   UNL     1       1.233   3.907  19.025  0.00  0.00    +0.000 A 
ATOM     31  C   UNL     1       1.568   2.552  18.950  0.00  0.00    +0.000 A 
ATOM     32  C   UNL     1       2.205   1.926  20.017  0.00  0.00    +0.000 A 
ATOM     33  C   UNL     1       2.538   2.663  21.148  0.00  0.00    +0.000 A 
ATOM     34  C   UNL     1       2.195   4.013  21.231  0.00  0.00    +0.000 A 
ENDBRANCH  28  29
ENDBRANCH   1  28
TORSDOF 7
ENDMDL
