MODEL 1
REMARK VINA RESULT:      -6.6      0.000      0.000
REMARK  Name = 
REMARK  16 active torsions:
REMARK  status: ('A' for Active; 'I' for Inactive)
REMARK    1  A    between atoms: C_1  and  C_2
REMARK    2  A    between atoms: C_2  and  C_3
REMARK    3  A    between atoms: C_3  and  C_4
REMARK    4  A    between atoms: C_4  and  C_5
REMARK    5  A    between atoms: C_5  and  C_6
REMARK    6  A    between atoms: C_6  and  C_7
REMARK    7  A    between atoms: C_7  and  C_8
REMARK    8  A    between atoms: C_8  and  C_9
REMARK    9  A    between atoms: C_9  and  C_10
REMARK   10  A    between atoms: C_10  and  C_11
REMARK   11  A    between atoms: C_11  and  C_12
REMARK   12  A    between atoms: C_14  and  O_15
REMARK   13  A    between atoms: C_16  and  C_17
REMARK   14  A    between atoms: C_17  and  C_19
REMARK   15  A    between atoms: C_19  and  C_20
REMARK   16  A    between atoms: C_20  and  C_21
REMARK                            x       y       z     vdW  Elec       q    Type
REMARK                         _______ _______ _______ _____ _____    ______ ____
ROOT
ATOM      1  C   UNL     1       5.159   5.381  18.433  0.00  0.00    +0.000 C 
ATOM      2  C   UNL     1       5.009   6.581  17.514  0.00  0.00    +0.000 C 
ATOM      3  C   UNL     1       5.567   6.253  16.156  0.00  0.00    +0.000 C 
ATOM      4  C   UNL     1       6.548   5.337  15.984  0.00  0.00    +0.000 C 
ATOM      5  C   UNL     1       7.155   4.734  17.208  0.00  0.00    +0.000 C 
ATOM      6  O   UNL     1       8.199   4.094  17.185  0.00  0.00    +0.000 OA
ATOM      7  O   UNL     1       6.525   4.936  18.395  0.00  0.00    +0.000 OA
ENDROOT
BRANCH   3   8
ATOM      8  O   UNL     1       4.962   6.911  15.106  0.00  0.00    +0.000 OA
ATOM      9  H   UNL     1       5.469   6.799  14.283  0.00  0.00    +0.000 HD
ENDBRANCH   3   8
BRANCH   4  10
ATOM     10  C   UNL     1       7.033   4.965  14.596  0.00  0.00    +0.000 C 
ATOM     11  O   UNL     1       8.032   5.485  14.098  0.00  0.00    +0.000 OA
BRANCH  10  12
ATOM     12  C   UNL     1       6.240   3.941  13.793  0.00  0.00    +0.000 C 
BRANCH  12  13
ATOM     13  C   UNL     1       6.640   3.904  12.317  0.00  0.00    +0.000 C 
ATOM     14  C   UNL     1       6.410   2.526  11.718  0.00  0.00    +0.000 C 
ENDBRANCH  12  13
ENDBRANCH  10  12
ENDBRANCH   4  10
BRANCH   1  15
ATOM     15  C   UNL     1       4.208   4.232  18.074  0.00  0.00    +0.000 C 
BRANCH  15  16
ATOM     16  C   UNL     1       4.507   2.959  18.875  0.00  0.00    +0.000 C 
BRANCH  16  17
ATOM     17  C   UNL     1       3.676   2.882  20.151  0.00  0.00    +0.000 C 
BRANCH  17  18
ATOM     18  C   UNL     1       2.218   3.254  19.904  0.00  0.00    +0.000 C 
BRANCH  18  19
ATOM     19  C   UNL     1       1.667   4.113  21.026  0.00  0.00    +0.000 C 
BRANCH  19  20
ATOM     20  C   UNL     1       1.149   5.425  20.456  0.00  0.00    +0.000 C 
BRANCH  20  21
ATOM     21  C   UNL     1       2.305   6.370  20.181  0.00  0.00    +0.000 C 
BRANCH  21  22
ATOM     22  C   UNL     1       1.819   7.812  20.134  0.00  0.00    +0.000 C 
BRANCH  22  23
ATOM     23  C   UNL     1       0.961   8.114  21.353  0.00  0.00    +0.000 C 
BRANCH  23  25
ATOM     24  C   UNL     1       0.193   9.942  19.830  0.00  0.00    +0.000 C 
ATOM     25  C   UNL     1       0.376   9.518  21.273  0.00  0.00    +0.000 C 
ENDBRANCH  23  25
ENDBRANCH  22  23
ENDBRANCH  21  22
ENDBRANCH  20  21
ENDBRANCH  19  20
ENDBRANCH  18  19
ENDBRANCH  17  18
ENDBRANCH  16  17
ENDBRANCH  15  16
ENDBRANCH   1  15
TORSDOF 14
ENDMDL
MODEL 2
REMARK VINA RESULT:      -6.4      0.786      1.122
REMARK  Name = 
REMARK  16 active torsions:
REMARK  status: ('A' for Active; 'I' for Inactive)
REMARK    1  A    between atoms: C_1  and  C_2
REMARK    2  A    between atoms: C_2  and  C_3
REMARK    3  A    between atoms: C_3  and  C_4
REMARK    4  A    between atoms: C_4  and  C_5
REMARK    5  A    between atoms: C_5  and  C_6
REMARK    6  A    between atoms: C_6  and  C_7
REMARK    7  A    between atoms: C_7  and  C_8
REMARK    8  A    between atoms: C_8  and  C_9
REMARK    9  A    between atoms: C_9  and  C_10
REMARK   10  A    between atoms: C_10  and  C_11
REMARK   11  A    between atoms: C_11  and  C_12
REMARK   12  A    between atoms: C_14  and  O_15
REMARK   13  A    between atoms: C_16  and  C_17
REMARK   14  A    between atoms: C_17  and  C_19
REMARK   15  A    between atoms: C_19  and  C_20
REMARK   16  A    between atoms: C_20  and  C_21
REMARK                            x       y       z     vdW  Elec       q    Type
REMARK                         _______ _______ _______ _____ _____    ______ ____
ROOT
ATOM      1  C   UNL     1       5.481   5.670  18.799  0.00  0.00    +0.000 C 
ATOM      2  C   UNL     1       5.339   6.810  17.805  0.00  0.00    +0.000 C 
ATOM      3  C   UNL     1       5.771   6.351  16.440  0.00  0.00    +0.000 C 
ATOM      4  C   UNL     1       6.676   5.360  16.268  0.00  0.00    +0.000 C 
ATOM      5  C   UNL     1       7.334   4.802  17.487  0.00  0.00    +0.000 C 
ATOM      6  O   UNL     1       8.330   4.092  17.438  0.00  0.00    +0.000 OA
ATOM      7  O   UNL     1       6.809   5.129  18.697  0.00  0.00    +0.000 OA
ENDROOT
BRANCH   3   8
ATOM      8  O   UNL     1       5.132   6.975  15.388  0.00  0.00    +0.000 OA
ATOM      9  H   UNL     1       5.350   7.922  15.359  0.00  0.00    +0.000 HD
ENDBRANCH   3   8
BRANCH   4  10
ATOM     10  C   UNL     1       7.031   4.860  14.880  0.00  0.00    +0.000 C 
ATOM     11  O   UNL     1       7.837   5.454  14.164  0.00  0.00    +0.000 OA
BRANCH  10  12
ATOM     12  C   UNL     1       6.344   3.604  14.357  0.00  0.00    +0.000 C 
BRANCH  12  13
ATOM     13  C   UNL     1       5.572   3.846  13.059  0.00  0.00    +0.000 C 
ATOM     14  C   UNL     1       6.292   3.234  11.868  0.00  0.00    +0.000 C 
ENDBRANCH  12  13
ENDBRANCH  10  12
ENDBRANCH   4  10
BRANCH   1  15
ATOM     15  C   UNL     1       4.434   4.567  18.594  0.00  0.00    +0.000 C 
BRANCH  15  16
ATOM     16  C   UNL     1       4.774   3.291  19.372  0.00  0.00    +0.000 C 
BRANCH  16  17
ATOM     17  C   UNL     1       3.851   2.136  19.001  0.00  0.00    +0.000 C 
BRANCH  17  18
ATOM     18  C   UNL     1       2.392   2.572  18.937  0.00  0.00    +0.000 C 
BRANCH  18  19
ATOM     19  C   UNL     1       1.704   2.407  20.278  0.00  0.00    +0.000 C 
BRANCH  19  20
ATOM     20  C   UNL     1       0.870   3.644  20.579  0.00  0.00    +0.000 C 
BRANCH  20  21
ATOM     21  C   UNL     1       1.774   4.821  20.899  0.00  0.00    +0.000 C 
BRANCH  21  22
ATOM     22  C   UNL     1       1.011   6.132  20.771  0.00  0.00    +0.000 C 
BRANCH  22  23
ATOM     23  C   UNL     1       1.979   7.277  20.513  0.00  0.00    +0.000 C 
BRANCH  23  25
ATOM     24  C   UNL     1      -0.045   8.608  21.135  0.00  0.00    +0.000 C 
ATOM     25  C   UNL     1       1.470   8.571  21.136  0.00  0.00    +0.000 C 
ENDBRANCH  23  25
ENDBRANCH  22  23
ENDBRANCH  21  22
ENDBRANCH  20  21
ENDBRANCH  19  20
ENDBRANCH  18  19
ENDBRANCH  17  18
ENDBRANCH  16  17
ENDBRANCH  15  16
ENDBRANCH   1  15
TORSDOF 14
ENDMDL
MODEL 3
REMARK VINA RESULT:      -6.4      1.057      1.999
REMARK  Name = 
REMARK  16 active torsions:
REMARK  status: ('A' for Active; 'I' for Inactive)
REMARK    1  A    between atoms: C_1  and  C_2
REMARK    2  A    between atoms: C_2  and  C_3
REMARK    3  A    between atoms: C_3  and  C_4
REMARK    4  A    between atoms: C_4  and  C_5
REMARK    5  A    between atoms: C_5  and  C_6
REMARK    6  A    between atoms: C_6  and  C_7
REMARK    7  A    between atoms: C_7  and  C_8
REMARK    8  A    between atoms: C_8  and  C_9
REMARK    9  A    between atoms: C_9  and  C_10
REMARK   10  A    between atoms: C_10  and  C_11
REMARK   11  A    between atoms: C_11  and  C_12
REMARK   12  A    between atoms: C_14  and  O_15
REMARK   13  A    between atoms: C_16  and  C_17
REMARK   14  A    between atoms: C_17  and  C_19
REMARK   15  A    between atoms: C_19  and  C_20
REMARK   16  A    between atoms: C_20  and  C_21
REMARK                            x       y       z     vdW  Elec       q    Type
REMARK                         _______ _______ _______ _____ _____    ______ ____
ROOT
ATOM      1  C   UNL     1       5.610   5.577  18.775  0.00  0.00    +0.000 C 
ATOM      2  C   UNL     1       5.473   6.778  17.854  0.00  0.00    +0.000 C 
ATOM      3  C   UNL     1       5.833   6.383  16.448  0.00  0.00    +0.000 C 
ATOM      4  C   UNL     1       6.691   5.371  16.183  0.00  0.00    +0.000 C 
ATOM      5  C   UNL     1       7.375   4.721  17.340  0.00  0.00    +0.000 C 
ATOM      6  O   UNL     1       8.341   3.979  17.210  0.00  0.00    +0.000 OA
ATOM      7  O   UNL     1       6.912   4.996  18.588  0.00  0.00    +0.000 OA
ENDROOT
BRANCH   3   8
ATOM      8  O   UNL     1       5.177   7.089  15.461  0.00  0.00    +0.000 OA
ATOM      9  H   UNL     1       4.922   7.974  15.774  0.00  0.00    +0.000 HD
ENDBRANCH   3   8
BRANCH   4  10
ATOM     10  C   UNL     1       6.971   4.939  14.756  0.00  0.00    +0.000 C 
ATOM     11  O   UNL     1       7.902   5.417  14.106  0.00  0.00    +0.000 OA
BRANCH  10  12
ATOM     12  C   UNL     1       6.054   3.908  14.110  0.00  0.00    +0.000 C 
BRANCH  12  13
ATOM     13  C   UNL     1       6.387   3.657  12.638  0.00  0.00    +0.000 C 
ATOM     14  C   UNL     1       5.190   3.091  11.891  0.00  0.00    +0.000 C 
ENDBRANCH  12  13
ENDBRANCH  10  12
ENDBRANCH   4  10
BRANCH   1  15
ATOM     15  C   UNL     1       4.515   4.527  18.553  0.00  0.00    +0.000 C 
BRANCH  15  16
ATOM     16  C   UNL     1       3.753   4.199  19.842  0.00  0.00    +0.000 C 
BRANCH  16  17
ATOM     17  C   UNL     1       2.578   5.145  20.064  0.00  0.00    +0.000 C 
BRANCH  17  18
ATOM     18  C   UNL     1       2.287   5.990  18.829  0.00  0.00    +0.000 C 
BRANCH  18  19
ATOM     19  C   UNL     1       2.192   7.463  19.175  0.00  0.00    +0.000 C 
BRANCH  19  20
ATOM     20  C   UNL     1       2.282   8.291  17.901  0.00  0.00    +0.000 C 
BRANCH  20  21
ATOM     21  C   UNL     1       1.126   9.273  17.832  0.00  0.00    +0.000 C 
BRANCH  21  22
ATOM     22  C   UNL     1       1.453  10.541  18.608  0.00  0.00    +0.000 C 
BRANCH  22  23
ATOM     23  C   UNL     1       0.228  11.013  19.378  0.00  0.00    +0.000 C 
BRANCH  23  25
ATOM     24  C   UNL     1       0.405   9.783  21.548  0.00  0.00    +0.000 C 
ATOM     25  C   UNL     1      -0.343   9.889  20.234  0.00  0.00    +0.000 C 
ENDBRANCH  23  25
ENDBRANCH  22  23
ENDBRANCH  21  22
ENDBRANCH  20  21
ENDBRANCH  19  20
ENDBRANCH  18  19
ENDBRANCH  17  18
ENDBRANCH  16  17
ENDBRANCH  15  16
ENDBRANCH   1  15
TORSDOF 14
ENDMDL
MODEL 4
REMARK VINA RESULT:      -6.3      1.187      1.997
REMARK  Name = 
REMARK  16 active torsions:
REMARK  status: ('A' for Active; 'I' for Inactive)
REMARK    1  A    between atoms: C_1  and  C_2
REMARK    2  A    between atoms: C_2  and  C_3
REMARK    3  A    between atoms: C_3  and  C_4
REMARK    4  A    between atoms: C_4  and  C_5
REMARK    5  A    between atoms: C_5  and  C_6
REMARK    6  A    between atoms: C_6  and  C_7
REMARK    7  A    between atoms: C_7  and  C_8
REMARK    8  A    between atoms: C_8  and  C_9
REMARK    9  A    between atoms: C_9  and  C_10
REMARK   10  A    between atoms: C_10  and  C_11
REMARK   11  A    between atoms: C_11  and  C_12
REMARK   12  A    between atoms: C_14  and  O_15
REMARK   13  A    between atoms: C_16  and  C_17
REMARK   14  A    between atoms: C_17  and  C_19
REMARK   15  A    between atoms: C_19  and  C_20
REMARK   16  A    between atoms: C_20  and  C_21
REMARK                            x       y       z     vdW  Elec       q    Type
REMARK                         _______ _______ _______ _____ _____    ______ ____
ROOT
ATOM      1  C   UNL     1       5.318   5.922  18.362  0.00  0.00    +0.000 C 
ATOM      2  C   UNL     1       5.268   7.029  17.322  0.00  0.00    +0.000 C 
ATOM      3  C   UNL     1       5.715   6.493  15.989  0.00  0.00    +0.000 C 
ATOM      4  C   UNL     1       6.570   5.449  15.884  0.00  0.00    +0.000 C 
ATOM      5  C   UNL     1       7.160   4.907  17.144  0.00  0.00    +0.000 C 
ATOM      6  O   UNL     1       8.117   4.143  17.155  0.00  0.00    +0.000 OA
ATOM      7  O   UNL     1       6.618   5.309  18.324  0.00  0.00    +0.000 OA
ENDROOT
BRANCH   3   8
ATOM      8  O   UNL     1       5.143   7.108  14.895  0.00  0.00    +0.000 OA
ATOM      9  H   UNL     1       4.631   7.891  15.161  0.00  0.00    +0.000 HD
ENDBRANCH   3   8
BRANCH   4  10
ATOM     10  C   UNL     1       6.939   4.876  14.529  0.00  0.00    +0.000 C 
ATOM     11  O   UNL     1       7.791   5.403  13.813  0.00  0.00    +0.000 OA
BRANCH  10  12
ATOM     12  C   UNL     1       6.209   3.632  14.037  0.00  0.00    +0.000 C 
BRANCH  12  13
ATOM     13  C   UNL     1       5.494   3.852  12.703  0.00  0.00    +0.000 C 
ATOM     14  C   UNL     1       5.714   2.680  11.760  0.00  0.00    +0.000 C 
ENDBRANCH  12  13
ENDBRANCH  10  12
ENDBRANCH   4  10
BRANCH   1  15
ATOM     15  C   UNL     1       4.220   4.870  18.166  0.00  0.00    +0.000 C 
BRANCH  15  16
ATOM     16  C   UNL     1       4.667   3.473  18.612  0.00  0.00    +0.000 C 
BRANCH  16  17
ATOM     17  C   UNL     1       4.227   2.393  17.629  0.00  0.00    +0.000 C 
BRANCH  17  18
ATOM     18  C   UNL     1       3.270   1.396  18.272  0.00  0.00    +0.000 C 
BRANCH  18  19
ATOM     19  C   UNL     1       2.542   2.008  19.452  0.00  0.00    +0.000 C 
BRANCH  19  20
ATOM     20  C   UNL     1       1.373   2.844  18.951  0.00  0.00    +0.000 C 
BRANCH  20  21
ATOM     21  C   UNL     1       0.621   3.449  20.122  0.00  0.00    +0.000 C 
BRANCH  21  22
ATOM     22  C   UNL     1       1.590   3.890  21.211  0.00  0.00    +0.000 C 
BRANCH  22  23
ATOM     23  C   UNL     1       2.363   5.119  20.756  0.00  0.00    +0.000 C 
BRANCH  23  25
ATOM     24  C   UNL     1       2.108   7.444  19.873  0.00  0.00    +0.000 C 
ATOM     25  C   UNL     1       1.449   6.335  20.668  0.00  0.00    +0.000 C 
ENDBRANCH  23  25
ENDBRANCH  22  23
ENDBRANCH  21  22
ENDBRANCH  20  21
ENDBRANCH  19  20
ENDBRANCH  18  19
ENDBRANCH  17  18
ENDBRANCH  16  17
ENDBRANCH  15  16
ENDBRANCH   1  15
TORSDOF 14
ENDMDL
MODEL 5
REMARK VINA RESULT:      -6.2      2.518      7.540
REMARK  Name = 
REMARK  16 active torsions:
REMARK  status: ('A' for Active; 'I' for Inactive)
REMARK    1  A    between atoms: C_1  and  C_2
REMARK    2  A    between atoms: C_2  and  C_3
REMARK    3  A    between atoms: C_3  and  C_4
REMARK    4  A    between atoms: C_4  and  C_5
REMARK    5  A    between atoms: C_5  and  C_6
REMARK    6  A    between atoms: C_6  and  C_7
REMARK    7  A    between atoms: C_7  and  C_8
REMARK    8  A    between atoms: C_8  and  C_9
REMARK    9  A    between atoms: C_9  and  C_10
REMARK   10  A    between atoms: C_10  and  C_11
REMARK   11  A    between atoms: C_11  and  C_12
REMARK   12  A    between atoms: C_14  and  O_15
REMARK   13  A    between atoms: C_16  and  C_17
REMARK   14  A    between atoms: C_17  and  C_19
REMARK   15  A    between atoms: C_19  and  C_20
REMARK   16  A    between atoms: C_20  and  C_21
REMARK                            x       y       z     vdW  Elec       q    Type
REMARK                         _______ _______ _______ _____ _____    ______ ____
ROOT
ATOM      1  C   UNL     1       5.371   3.858  18.294  0.00  0.00    +0.000 C 
ATOM      2  C   UNL     1       4.386   3.363  17.249  0.00  0.00    +0.000 C 
ATOM      3  C   UNL     1       3.040   3.141  17.883  0.00  0.00    +0.000 C 
ATOM      4  C   UNL     1       2.905   2.838  19.195  0.00  0.00    +0.000 C 
ATOM      5  C   UNL     1       4.151   2.610  19.986  0.00  0.00    +0.000 C 
ATOM      6  O   UNL     1       4.148   2.095  21.097  0.00  0.00    +0.000 OA
ATOM      7  O   UNL     1       5.335   2.969  19.423  0.00  0.00    +0.000 OA
ENDROOT
BRANCH   3   8
ATOM      8  O   UNL     1       1.964   3.330  17.041  0.00  0.00    +0.000 OA
ATOM      9  H   UNL     1       2.164   3.995  16.360  0.00  0.00    +0.000 HD
ENDBRANCH   3   8
BRANCH   4  10
ATOM     10  C   UNL     1       1.533   2.703  19.827  0.00  0.00    +0.000 C 
ATOM     11  O   UNL     1       0.620   2.093  19.269  0.00  0.00    +0.000 OA
BRANCH  10  12
ATOM     12  C   UNL     1       1.278   3.369  21.174  0.00  0.00    +0.000 C 
BRANCH  12  13
ATOM     13  C   UNL     1       2.045   4.682  21.342  0.00  0.00    +0.000 C 
ATOM     14  C   UNL     1       1.591   5.718  20.325  0.00  0.00    +0.000 C 
ENDBRANCH  12  13
ENDBRANCH  10  12
ENDBRANCH   4  10
BRANCH   1  15
ATOM     15  C   UNL     1       5.094   5.300  18.737  0.00  0.00    +0.000 C 
BRANCH  15  16
ATOM     16  C   UNL     1       4.443   6.134  17.628  0.00  0.00    +0.000 C 
BRANCH  16  17
ATOM     17  C   UNL     1       5.481   6.767  16.707  0.00  0.00    +0.000 C 
BRANCH  17  18
ATOM     18  C   UNL     1       6.872   6.186  16.936  0.00  0.00    +0.000 C 
BRANCH  18  19
ATOM     19  C   UNL     1       7.254   5.214  15.837  0.00  0.00    +0.000 C 
BRANCH  19  20
ATOM     20  C   UNL     1       6.195   5.238  14.744  0.00  0.00    +0.000 C 
BRANCH  20  21
ATOM     21  C   UNL     1       6.377   4.055  13.811  0.00  0.00    +0.000 C 
BRANCH  21  22
ATOM     22  C   UNL     1       5.035   3.606  13.248  0.00  0.00    +0.000 C 
BRANCH  22  23
ATOM     23  C   UNL     1       5.132   3.436  11.739  0.00  0.00    +0.000 C 
BRANCH  23  25
ATOM     24  C   UNL     1       3.349   3.983  10.075  0.00  0.00    +0.000 C 
ATOM     25  C   UNL     1       3.791   3.013  11.152  0.00  0.00    +0.000 C 
ENDBRANCH  23  25
ENDBRANCH  22  23
ENDBRANCH  21  22
ENDBRANCH  20  21
ENDBRANCH  19  20
ENDBRANCH  18  19
ENDBRANCH  17  18
ENDBRANCH  16  17
ENDBRANCH  15  16
ENDBRANCH   1  15
TORSDOF 14
ENDMDL
MODEL 6
REMARK VINA RESULT:      -6.2      1.128      1.414
REMARK  Name = 
REMARK  16 active torsions:
REMARK  status: ('A' for Active; 'I' for Inactive)
REMARK    1  A    between atoms: C_1  and  C_2
REMARK    2  A    between atoms: C_2  and  C_3
REMARK    3  A    between atoms: C_3  and  C_4
REMARK    4  A    between atoms: C_4  and  C_5
REMARK    5  A    between atoms: C_5  and  C_6
REMARK    6  A    between atoms: C_6  and  C_7
REMARK    7  A    between atoms: C_7  and  C_8
REMARK    8  A    between atoms: C_8  and  C_9
REMARK    9  A    between atoms: C_9  and  C_10
REMARK   10  A    between atoms: C_10  and  C_11
REMARK   11  A    between atoms: C_11  and  C_12
REMARK   12  A    between atoms: C_14  and  O_15
REMARK   13  A    between atoms: C_16  and  C_17
REMARK   14  A    between atoms: C_17  and  C_19
REMARK   15  A    between atoms: C_19  and  C_20
REMARK   16  A    between atoms: C_20  and  C_21
REMARK                            x       y       z     vdW  Elec       q    Type
REMARK                         _______ _______ _______ _____ _____    ______ ____
ROOT
ATOM      1  C   UNL     1       5.076   4.985  18.141  0.00  0.00    +0.000 C 
ATOM      2  C   UNL     1       4.904   6.245  17.310  0.00  0.00    +0.000 C 
ATOM      3  C   UNL     1       5.573   6.068  15.975  0.00  0.00    +0.000 C 
ATOM      4  C   UNL     1       6.625   5.234  15.804  0.00  0.00    +0.000 C 
ATOM      5  C   UNL     1       7.190   4.572  17.017  0.00  0.00    +0.000 C 
ATOM      6  O   UNL     1       8.276   4.005  17.020  0.00  0.00    +0.000 OA
ATOM      7  O   UNL     1       6.469   4.633  18.167  0.00  0.00    +0.000 OA
ENDROOT
BRANCH   3   8
ATOM      8  O   UNL     1       4.995   6.770  14.938  0.00  0.00    +0.000 OA
ATOM      9  H   UNL     1       4.644   6.168  14.260  0.00  0.00    +0.000 HD
ENDBRANCH   3   8
BRANCH   4  10
ATOM     10  C   UNL     1       7.228   5.011  14.429  0.00  0.00    +0.000 C 
ATOM     11  O   UNL     1       8.059   5.785  13.953  0.00  0.00    +0.000 OA
BRANCH  10  12
ATOM     12  C   UNL     1       6.764   3.811  13.613  0.00  0.00    +0.000 C 
BRANCH  12  13
ATOM     13  C   UNL     1       5.259   3.824  13.341  0.00  0.00    +0.000 C 
ATOM     14  C   UNL     1       4.949   3.336  11.935  0.00  0.00    +0.000 C 
ENDBRANCH  12  13
ENDBRANCH  10  12
ENDBRANCH   4  10
BRANCH   1  15
ATOM     15  C   UNL     1       4.234   3.811  17.625  0.00  0.00    +0.000 C 
BRANCH  15  16
ATOM     16  C   UNL     1       2.733   4.119  17.644  0.00  0.00    +0.000 C 
BRANCH  16  17
ATOM     17  C   UNL     1       1.909   2.911  18.078  0.00  0.00    +0.000 C 
BRANCH  17  18
ATOM     18  C   UNL     1       2.113   2.585  19.553  0.00  0.00    +0.000 C 
BRANCH  18  19
ATOM     19  C   UNL     1       2.319   3.842  20.376  0.00  0.00    +0.000 C 
BRANCH  19  20
ATOM     20  C   UNL     1       1.031   4.652  20.398  0.00  0.00    +0.000 C 
BRANCH  20  21
ATOM     21  C   UNL     1       1.298   6.047  20.932  0.00  0.00    +0.000 C 
BRANCH  21  22
ATOM     22  C   UNL     1       2.410   6.720  20.139  0.00  0.00    +0.000 C 
BRANCH  22  23
ATOM     23  C   UNL     1       1.841   7.365  18.885  0.00  0.00    +0.000 C 
BRANCH  23  25
ATOM     24  C   UNL     1       1.959   9.612  17.792  0.00  0.00    +0.000 C 
ATOM     25  C   UNL     1       1.662   8.866  19.078  0.00  0.00    +0.000 C 
ENDBRANCH  23  25
ENDBRANCH  22  23
ENDBRANCH  21  22
ENDBRANCH  20  21
ENDBRANCH  19  20
ENDBRANCH  18  19
ENDBRANCH  17  18
ENDBRANCH  16  17
ENDBRANCH  15  16
ENDBRANCH   1  15
TORSDOF 14
ENDMDL
MODEL 7
REMARK VINA RESULT:      -6.2      2.631      5.414
REMARK  Name = 
REMARK  16 active torsions:
REMARK  status: ('A' for Active; 'I' for Inactive)
REMARK    1  A    between atoms: C_1  and  C_2
REMARK    2  A    between atoms: C_2  and  C_3
REMARK    3  A    between atoms: C_3  and  C_4
REMARK    4  A    between atoms: C_4  and  C_5
REMARK    5  A    between atoms: C_5  and  C_6
REMARK    6  A    between atoms: C_6  and  C_7
REMARK    7  A    between atoms: C_7  and  C_8
REMARK    8  A    between atoms: C_8  and  C_9
REMARK    9  A    between atoms: C_9  and  C_10
REMARK   10  A    between atoms: C_10  and  C_11
REMARK   11  A    between atoms: C_11  and  C_12
REMARK   12  A    between atoms: C_14  and  O_15
REMARK   13  A    between atoms: C_16  and  C_17
REMARK   14  A    between atoms: C_17  and  C_19
REMARK   15  A    between atoms: C_19  and  C_20
REMARK   16  A    between atoms: C_20  and  C_21
REMARK                            x       y       z     vdW  Elec       q    Type
REMARK                         _______ _______ _______ _____ _____    ______ ____
ROOT
ATOM      1  C   UNL     1       5.453   4.515  17.719  0.00  0.00    +0.000 C 
ATOM      2  C   UNL     1       4.567   3.873  16.665  0.00  0.00    +0.000 C 
ATOM      3  C   UNL     1       3.328   3.318  17.314  0.00  0.00    +0.000 C 
ATOM      4  C   UNL     1       3.312   2.916  18.606  0.00  0.00    +0.000 C 
ATOM      5  C   UNL     1       4.605   2.927  19.352  0.00  0.00    +0.000 C 
ATOM      6  O   UNL     1       4.758   2.360  20.426  0.00  0.00    +0.000 OA
ATOM      7  O   UNL     1       5.659   3.575  18.787  0.00  0.00    +0.000 OA
ENDROOT
BRANCH   3   8
ATOM      8  O   UNL     1       2.207   3.309  16.511  0.00  0.00    +0.000 OA
ATOM      9  H   UNL     1       1.918   4.213  16.301  0.00  0.00    +0.000 HD
ENDBRANCH   3   8
BRANCH   4  10
ATOM     10  C   UNL     1       2.028   2.439  19.258  0.00  0.00    +0.000 C 
ATOM     11  O   UNL     1       1.240   1.698  18.671  0.00  0.00    +0.000 OA
BRANCH  10  12
ATOM     12  C   UNL     1       1.701   2.918  20.668  0.00  0.00    +0.000 C 
BRANCH  12  13
ATOM     13  C   UNL     1       0.988   4.271  20.684  0.00  0.00    +0.000 C 
ATOM     14  C   UNL     1       1.984   5.418  20.619  0.00  0.00    +0.000 C 
ENDBRANCH  12  13
ENDBRANCH  10  12
ENDBRANCH   4  10
BRANCH   1  15
ATOM     15  C   UNL     1       4.879   5.829  18.261  0.00  0.00    +0.000 C 
BRANCH  15  16
ATOM     16  C   UNL     1       4.478   6.795  17.140  0.00  0.00    +0.000 C 
BRANCH  16  17
ATOM     17  C   UNL     1       3.677   7.980  17.669  0.00  0.00    +0.000 C 
BRANCH  17  18
ATOM     18  C   UNL     1       2.195   7.649  17.805  0.00  0.00    +0.000 C 
BRANCH  18  19
ATOM     19  C   UNL     1       1.345   8.905  17.801  0.00  0.00    +0.000 C 
BRANCH  19  20
ATOM     20  C   UNL     1       1.469   9.608  19.144  0.00  0.00    +0.000 C 
BRANCH  20  21
ATOM     21  C   UNL     1       0.271  10.511  19.376  0.00  0.00    +0.000 C 
BRANCH  21  22
ATOM     22  C   UNL     1      -0.591   9.976  20.511  0.00  0.00    +0.000 C 
BRANCH  22  23
ATOM     23  C   UNL     1       0.185   8.944  21.315  0.00  0.00    +0.000 C 
BRANCH  23  25
ATOM     24  C   UNL     1      -0.825  10.287  23.167  0.00  0.00    +0.000 C 
ATOM     25  C   UNL     1       0.319   9.376  22.771  0.00  0.00    +0.000 C 
ENDBRANCH  23  25
ENDBRANCH  22  23
ENDBRANCH  21  22
ENDBRANCH  20  21
ENDBRANCH  19  20
ENDBRANCH  18  19
ENDBRANCH  17  18
ENDBRANCH  16  17
ENDBRANCH  15  16
ENDBRANCH   1  15
TORSDOF 14
ENDMDL
MODEL 8
REMARK VINA RESULT:      -6.0      2.816      6.018
REMARK  Name = 
REMARK  16 active torsions:
REMARK  status: ('A' for Active; 'I' for Inactive)
REMARK    1  A    between atoms: C_1  and  C_2
REMARK    2  A    between atoms: C_2  and  C_3
REMARK    3  A    between atoms: C_3  and  C_4
REMARK    4  A    between atoms: C_4  and  C_5
REMARK    5  A    between atoms: C_5  and  C_6
REMARK    6  A    between atoms: C_6  and  C_7
REMARK    7  A    between atoms: C_7  and  C_8
REMARK    8  A    between atoms: C_8  and  C_9
REMARK    9  A    between atoms: C_9  and  C_10
REMARK   10  A    between atoms: C_10  and  C_11
REMARK   11  A    between atoms: C_11  and  C_12
REMARK   12  A    between atoms: C_14  and  O_15
REMARK   13  A    between atoms: C_16  and  C_17
REMARK   14  A    between atoms: C_17  and  C_19
REMARK   15  A    between atoms: C_19  and  C_20
REMARK   16  A    between atoms: C_20  and  C_21
REMARK                            x       y       z     vdW  Elec       q    Type
REMARK                         _______ _______ _______ _____ _____    ______ ____
ROOT
ATOM      1  C   UNL     1       4.300   6.046  17.284  0.00  0.00    +0.000 C 
ATOM      2  C   UNL     1       3.988   4.706  16.639  0.00  0.00    +0.000 C 
ATOM      3  C   UNL     1       3.839   3.654  17.703  0.00  0.00    +0.000 C 
ATOM      4  C   UNL     1       4.469   3.745  18.898  0.00  0.00    +0.000 C 
ATOM      5  C   UNL     1       5.423   4.876  19.094  0.00  0.00    +0.000 C 
ATOM      6  O   UNL     1       6.222   4.919  20.021  0.00  0.00    +0.000 OA
ATOM      7  O   UNL     1       5.412   5.882  18.180  0.00  0.00    +0.000 OA
ENDROOT
BRANCH   3   8
ATOM      8  O   UNL     1       2.971   2.629  17.389  0.00  0.00    +0.000 OA
ATOM      9  H   UNL     1       2.902   2.511  16.426  0.00  0.00    +0.000 HD
ENDBRANCH   3   8
BRANCH   4  10
ATOM     10  C   UNL     1       4.235   2.712  19.984  0.00  0.00    +0.000 C 
ATOM     11  O   UNL     1       4.880   1.664  20.030  0.00  0.00    +0.000 OA
BRANCH  10  12
ATOM     12  C   UNL     1       3.151   2.974  21.023  0.00  0.00    +0.000 C 
BRANCH  12  13
ATOM     13  C   UNL     1       1.762   2.540  20.553  0.00  0.00    +0.000 C 
ATOM     14  C   UNL     1       0.901   3.741  20.196  0.00  0.00    +0.000 C 
ENDBRANCH  12  13
ENDBRANCH  10  12
ENDBRANCH   4  10
BRANCH   1  15
ATOM     15  C   UNL     1       3.097   6.646  18.023  0.00  0.00    +0.000 C 
BRANCH  15  16
ATOM     16  C   UNL     1       2.988   8.162  17.822  0.00  0.00    +0.000 C 
BRANCH  16  17
ATOM     17  C   UNL     1       1.538   8.617  17.699  0.00  0.00    +0.000 C 
BRANCH  17  18
ATOM     18  C   UNL     1       1.145   9.572  18.820  0.00  0.00    +0.000 C 
BRANCH  18  19
ATOM     19  C   UNL     1       0.225  10.667  18.317  0.00  0.00    +0.000 C 
BRANCH  19  20
ATOM     20  C   UNL     1      -1.065  10.659  19.124  0.00  0.00    +0.000 C 
BRANCH  20  21
ATOM     21  C   UNL     1      -2.004  11.742  18.624  0.00  0.00    +0.000 C 
BRANCH  21  22
ATOM     22  C   UNL     1      -3.379  11.161  18.323  0.00  0.00    +0.000 C 
BRANCH  22  23
ATOM     23  C   UNL     1      -3.293  10.192  17.153  0.00  0.00    +0.000 C 
BRANCH  23  25
ATOM     24  C   UNL     1      -2.907  10.088  14.685  0.00  0.00    +0.000 C 
ATOM     25  C   UNL     1      -3.447  10.926  15.826  0.00  0.00    +0.000 C 
ENDBRANCH  23  25
ENDBRANCH  22  23
ENDBRANCH  21  22
ENDBRANCH  20  21
ENDBRANCH  19  20
ENDBRANCH  18  19
ENDBRANCH  17  18
ENDBRANCH  16  17
ENDBRANCH  15  16
ENDBRANCH   1  15
TORSDOF 14
ENDMDL
MODEL 9
REMARK VINA RESULT:      -6.0      2.239      4.368
REMARK  Name = 
REMARK  16 active torsions:
REMARK  status: ('A' for Active; 'I' for Inactive)
REMARK    1  A    between atoms: C_1  and  C_2
REMARK    2  A    between atoms: C_2  and  C_3
REMARK    3  A    between atoms: C_3  and  C_4
REMARK    4  A    between atoms: C_4  and  C_5
REMARK    5  A    between atoms: C_5  and  C_6
REMARK    6  A    between atoms: C_6  and  C_7
REMARK    7  A    between atoms: C_7  and  C_8
REMARK    8  A    between atoms: C_8  and  C_9
REMARK    9  A    between atoms: C_9  and  C_10
REMARK   10  A    between atoms: C_10  and  C_11
REMARK   11  A    between atoms: C_11  and  C_12
REMARK   12  A    between atoms: C_14  and  O_15
REMARK   13  A    between atoms: C_16  and  C_17
REMARK   14  A    between atoms: C_17  and  C_19
REMARK   15  A    between atoms: C_19  and  C_20
REMARK   16  A    between atoms: C_20  and  C_21
REMARK                            x       y       z     vdW  Elec       q    Type
REMARK                         _______ _______ _______ _____ _____    ______ ____
ROOT
ATOM      1  C   UNL     1       2.923   3.969  18.088  0.00  0.00    +0.000 C 
ATOM      2  C   UNL     1       3.923   3.730  19.206  0.00  0.00    +0.000 C 
ATOM      3  C   UNL     1       5.219   4.422  18.883  0.00  0.00    +0.000 C 
ATOM      4  C   UNL     1       5.610   4.657  17.609  0.00  0.00    +0.000 C 
ATOM      5  C   UNL     1       4.767   4.100  16.511  0.00  0.00    +0.000 C 
ATOM      6  O   UNL     1       5.146   4.035  15.349  0.00  0.00    +0.000 OA
ATOM      7  O   UNL     1       3.536   3.622  16.836  0.00  0.00    +0.000 OA
ENDROOT
BRANCH   3   8
ATOM      8  O   UNL     1       5.940   4.846  19.980  0.00  0.00    +0.000 OA
ATOM      9  H   UNL     1       6.315   4.092  20.466  0.00  0.00    +0.000 HD
ENDBRANCH   3   8
BRANCH   4  10
ATOM     10  C   UNL     1       6.882   5.430  17.314  0.00  0.00    +0.000 C 
ATOM     11  O   UNL     1       7.957   4.861  17.125  0.00  0.00    +0.000 OA
BRANCH  10  12
ATOM     12  C   UNL     1       6.821   6.953  17.281  0.00  0.00    +0.000 C 
BRANCH  12  13
ATOM     13  C   UNL     1       8.018   7.610  17.972  0.00  0.00    +0.000 C 
ATOM     14  C   UNL     1       8.021   9.115  17.754  0.00  0.00    +0.000 C 
ENDBRANCH  12  13
ENDBRANCH  10  12
ENDBRANCH   4  10
BRANCH   1  15
ATOM     15  C   UNL     1       2.402   5.411  18.052  0.00  0.00    +0.000 C 
BRANCH  15  16
ATOM     16  C   UNL     1       2.170   5.980  19.456  0.00  0.00    +0.000 C 
BRANCH  16  17
ATOM     17  C   UNL     1       2.406   7.486  19.505  0.00  0.00    +0.000 C 
BRANCH  17  18
ATOM     18  C   UNL     1       1.954   8.174  18.222  0.00  0.00    +0.000 C 
BRANCH  18  19
ATOM     19  C   UNL     1       1.725   9.657  18.439  0.00  0.00    +0.000 C 
BRANCH  19  20
ATOM     20  C   UNL     1       0.315  10.024  18.000  0.00  0.00    +0.000 C 
BRANCH  20  21
ATOM     21  C   UNL     1      -0.651   9.876  19.161  0.00  0.00    +0.000 C 
BRANCH  21  22
ATOM     22  C   UNL     1      -0.736  11.172  19.956  0.00  0.00    +0.000 C 
BRANCH  22  23
ATOM     23  C   UNL     1      -0.216  10.953  21.369  0.00  0.00    +0.000 C 
BRANCH  23  25
ATOM     24  C   UNL     1       1.087   9.121  22.464  0.00  0.00    +0.000 C 
ATOM     25  C   UNL     1      -0.182   9.469  21.713  0.00  0.00    +0.000 C 
ENDBRANCH  23  25
ENDBRANCH  22  23
ENDBRANCH  21  22
ENDBRANCH  20  21
ENDBRANCH  19  20
ENDBRANCH  18  19
ENDBRANCH  17  18
ENDBRANCH  16  17
ENDBRANCH  15  16
ENDBRANCH   1  15
TORSDOF 14
ENDMDL
