MODEL 1
REMARK VINA RESULT:      -8.4      0.000      0.000
REMARK  Name = 
REMARK  11 active torsions:
REMARK  status: ('A' for Active; 'I' for Inactive)
REMARK    1  A    between atoms: C_1  and  C_2
REMARK    2  A    between atoms: C_2  and  S_3
REMARK    3  A    between atoms: S_3  and  C_6
REMARK    4  A    between atoms: C_9  and  C_10
REMARK    5  A    between atoms: C_10  and  N_11
REMARK    6  A    between atoms: C_12  and  C_14
REMARK    7  A    between atoms: C_21  and  C_22
REMARK    8  A    between atoms: C_22  and  C_23
REMARK    9  A    between atoms: N_29  and  C_30
REMARK   10  A    between atoms: C_30  and  C_31
REMARK   11  A    between atoms: C_30  and  C_32
REMARK                            x       y       z     vdW  Elec       q    Type
REMARK                         _______ _______ _______ _____ _____    ______ ____
ROOT
ATOM      1  C   UNL     1       8.473   9.415  18.171  0.00  0.00    +0.000 A 
ATOM      2  C   UNL     1       8.209  10.515  17.347  0.00  0.00    +0.000 A 
ATOM      3  C   UNL     1       8.457  11.845  17.785  0.00  0.00    +0.000 A 
ATOM      4  C   UNL     1       8.958  12.032  19.095  0.00  0.00    +0.000 A 
ATOM      5  C   UNL     1       9.359  10.927  19.847  0.00  0.00    +0.000 A 
ATOM      6  C   UNL     1       9.123   9.627  19.386  0.00  0.00    +0.000 A 
ATOM      7  C   UNL     1       9.939  11.397  21.035  0.00  0.00    +0.000 A 
ATOM      8  C   UNL     1       9.454  12.675  21.196  0.00  0.00    +0.000 A 
ATOM      9  N   UNL     1       9.187  13.144  19.913  0.00  0.00    +0.000 N 
ENDROOT
BRANCH   1  11
ATOM     10  N   UNL     1       8.208   7.084  18.925  0.00  0.00    +0.000 N 
ATOM     11  C   UNL     1       8.078   7.997  17.902  0.00  0.00    +0.000 C 
ATOM     12  O   UNL     1       7.736   7.666  16.769  0.00  0.00    +0.000 OA
ATOM     13  H   UNL     1       8.559   7.372  19.825  0.00  0.00    +0.000 HD
BRANCH  10  14
ATOM     14  C   UNL     1       8.091   5.660  18.670  0.00  0.00    +0.000 C 
BRANCH  14  18
ATOM     15  C   UNL     1       4.007   4.405  18.154  0.00  0.00    +0.000 A 
ATOM     16  C   UNL     1       4.962   4.080  17.187  0.00  0.00    +0.000 A 
ATOM     17  C   UNL     1       6.288   4.487  17.367  0.00  0.00    +0.000 A 
ATOM     18  C   UNL     1       6.655   5.235  18.494  0.00  0.00    +0.000 A 
ATOM     19  C   UNL     1       5.683   5.556  19.455  0.00  0.00    +0.000 A 
ATOM     20  C   UNL     1       4.357   5.148  19.285  0.00  0.00    +0.000 A 
BRANCH  15  21
ATOM     21  S   UNL     1       2.309   3.931  17.896  0.00  0.00    +0.000 S 
ATOM     22  O   UNL     1       2.289   2.961  16.822  0.00  0.00    +0.000 OA
ATOM     23  O   UNL     1       1.541   5.161  17.797  0.00  0.00    +0.000 OA
BRANCH  21  25
ATOM     24  C   UNL     1       0.948   3.974  20.260  0.00  0.00    +0.000 C 
ATOM     25  C   UNL     1       1.866   3.114  19.416  0.00  0.00    +0.000 C 
ENDBRANCH  21  25
ENDBRANCH  15  21
ENDBRANCH  14  18
ENDBRANCH  10  14
ENDBRANCH   1  11
BRANCH   9  26
ATOM     26  C   UNL     1       9.318  14.536  19.467  0.00  0.00    +0.000 C 
ATOM     27  C   UNL     1      10.317  14.757  18.321  0.00  0.00    +0.000 C 
ATOM     28  C   UNL     1       7.950  15.138  19.101  0.00  0.00    +0.000 C 
ENDBRANCH   9  26
BRANCH   8  29
ATOM     29  C   UNL     1       9.281  13.386  22.502  0.00  0.00    +0.000 C 
BRANCH  29  30
ATOM     30  C   UNL     1       8.265  12.718  23.441  0.00  0.00    +0.000 A 
ATOM     31  C   UNL     1       8.536  12.669  24.818  0.00  0.00    +0.000 A 
ATOM     32  C   UNL     1       7.634  12.088  25.716  0.00  0.00    +0.000 A 
ATOM     33  C   UNL     1       6.435  11.545  25.256  0.00  0.00    +0.000 A 
ATOM     34  C   UNL     1       6.129  11.593  23.896  0.00  0.00    +0.000 A 
ATOM     35  C   UNL     1       7.042  12.173  22.997  0.00  0.00    +0.000 A 
ENDBRANCH  29  30
ENDBRANCH   8  29
TORSDOF 8
ENDMDL
MODEL 2
REMARK VINA RESULT:      -8.3      8.054     10.175
REMARK  Name = 
REMARK  11 active torsions:
REMARK  status: ('A' for Active; 'I' for Inactive)
REMARK    1  A    between atoms: C_1  and  C_2
REMARK    2  A    between atoms: C_2  and  S_3
REMARK    3  A    between atoms: S_3  and  C_6
REMARK    4  A    between atoms: C_9  and  C_10
REMARK    5  A    between atoms: C_10  and  N_11
REMARK    6  A    between atoms: C_12  and  C_14
REMARK    7  A    between atoms: C_21  and  C_22
REMARK    8  A    between atoms: C_22  and  C_23
REMARK    9  A    between atoms: N_29  and  C_30
REMARK   10  A    between atoms: C_30  and  C_31
REMARK   11  A    between atoms: C_30  and  C_32
REMARK                            x       y       z     vdW  Elec       q    Type
REMARK                         _______ _______ _______ _____ _____    ______ ____
ROOT
ATOM      1  C   UNL     1      -0.711  10.625  18.319  0.00  0.00    +0.000 A 
ATOM      2  C   UNL     1      -1.600  10.034  17.413  0.00  0.00    +0.000 A 
ATOM      3  C   UNL     1      -2.983  10.367  17.408  0.00  0.00    +0.000 A 
ATOM      4  C   UNL     1      -3.446  11.299  18.366  0.00  0.00    +0.000 A 
ATOM      5  C   UNL     1      -2.529  11.992  19.158  0.00  0.00    +0.000 A 
ATOM      6  C   UNL     1      -1.170  11.661  19.131  0.00  0.00    +0.000 A 
ATOM      7  C   UNL     1      -3.235  12.943  19.911  0.00  0.00    +0.000 A 
ATOM      8  C   UNL     1      -4.537  12.495  19.933  0.00  0.00    +0.000 A 
ATOM      9  N   UNL     1      -4.706  11.763  18.762  0.00  0.00    +0.000 N 
ENDROOT
BRANCH   1  11
ATOM     10  N   UNL     1       1.275   9.314  17.678  0.00  0.00    +0.000 N 
ATOM     11  C   UNL     1       0.711  10.219  18.550  0.00  0.00    +0.000 C 
ATOM     12  O   UNL     1       1.305  10.626  19.545  0.00  0.00    +0.000 OA
ATOM     13  H   UNL     1       0.738   8.942  16.910  0.00  0.00    +0.000 HD
BRANCH  10  14
ATOM     14  C   UNL     1       2.546   8.684  17.981  0.00  0.00    +0.000 C 
BRANCH  14  18
ATOM     15  C   UNL     1       2.075   4.675  19.473  0.00  0.00    +0.000 A 
ATOM     16  C   UNL     1       2.248   4.891  18.103  0.00  0.00    +0.000 A 
ATOM     17  C   UNL     1       2.406   6.197  17.629  0.00  0.00    +0.000 A 
ATOM     18  C   UNL     1       2.369   7.284  18.513  0.00  0.00    +0.000 A 
ATOM     19  C   UNL     1       2.192   7.050  19.886  0.00  0.00    +0.000 A 
ATOM     20  C   UNL     1       2.038   5.746  20.369  0.00  0.00    +0.000 A 
BRANCH  15  21
ATOM     21  S   UNL     1       1.821   3.015  20.068  0.00  0.00    +0.000 S 
ATOM     22  O   UNL     1       0.871   2.378  19.181  0.00  0.00    +0.000 OA
ATOM     23  O   UNL     1       1.549   3.117  21.492  0.00  0.00    +0.000 OA
BRANCH  21  25
ATOM     24  C   UNL     1       3.509   1.532  18.521  0.00  0.00    +0.000 C 
ATOM     25  C   UNL     1       3.413   2.243  19.855  0.00  0.00    +0.000 C 
ENDBRANCH  21  25
ENDBRANCH  15  21
ENDBRANCH  14  18
ENDBRANCH  10  14
ENDBRANCH   1  11
BRANCH   9  26
ATOM     26  C   UNL     1      -5.948  11.664  17.987  0.00  0.00    +0.000 C 
ATOM     27  C   UNL     1      -7.030  10.768  18.609  0.00  0.00    +0.000 C 
ATOM     28  C   UNL     1      -6.527  13.055  17.675  0.00  0.00    +0.000 C 
ENDBRANCH   9  26
BRANCH   8  29
ATOM     29  C   UNL     1      -5.540  12.777  21.008  0.00  0.00    +0.000 C 
BRANCH  29  30
ATOM     30  C   UNL     1      -4.943  13.466  22.245  0.00  0.00    +0.000 A 
ATOM     31  C   UNL     1      -5.178  14.836  22.444  0.00  0.00    +0.000 A 
ATOM     32  C   UNL     1      -4.672  15.505  23.565  0.00  0.00    +0.000 A 
ATOM     33  C   UNL     1      -3.922  14.815  24.516  0.00  0.00    +0.000 A 
ATOM     34  C   UNL     1      -3.685  13.450  24.356  0.00  0.00    +0.000 A 
ATOM     35  C   UNL     1      -4.191  12.784  23.225  0.00  0.00    +0.000 A 
ENDBRANCH  29  30
ENDBRANCH   8  29
TORSDOF 8
ENDMDL
MODEL 3
REMARK VINA RESULT:      -8.2      7.880      9.929
REMARK  Name = 
REMARK  11 active torsions:
REMARK  status: ('A' for Active; 'I' for Inactive)
REMARK    1  A    between atoms: C_1  and  C_2
REMARK    2  A    between atoms: C_2  and  S_3
REMARK    3  A    between atoms: S_3  and  C_6
REMARK    4  A    between atoms: C_9  and  C_10
REMARK    5  A    between atoms: C_10  and  N_11
REMARK    6  A    between atoms: C_12  and  C_14
REMARK    7  A    between atoms: C_21  and  C_22
REMARK    8  A    between atoms: C_22  and  C_23
REMARK    9  A    between atoms: N_29  and  C_30
REMARK   10  A    between atoms: C_30  and  C_31
REMARK   11  A    between atoms: C_30  and  C_32
REMARK                            x       y       z     vdW  Elec       q    Type
REMARK                         _______ _______ _______ _____ _____    ______ ____
ROOT
ATOM      1  C   UNL     1      -0.609  10.592  18.630  0.00  0.00    +0.000 A 
ATOM      2  C   UNL     1      -1.535  10.072  17.717  0.00  0.00    +0.000 A 
ATOM      3  C   UNL     1      -2.891  10.502  17.711  0.00  0.00    +0.000 A 
ATOM      4  C   UNL     1      -3.290  11.458  18.675  0.00  0.00    +0.000 A 
ATOM      5  C   UNL     1      -2.329  12.078  19.474  0.00  0.00    +0.000 A 
ATOM      6  C   UNL     1      -0.996  11.652  19.449  0.00  0.00    +0.000 A 
ATOM      7  C   UNL     1      -2.968  13.071  20.233  0.00  0.00    +0.000 A 
ATOM      8  C   UNL     1      -4.298  12.716  20.248  0.00  0.00    +0.000 A 
ATOM      9  N   UNL     1      -4.516  12.006  19.072  0.00  0.00    +0.000 N 
ENDROOT
BRANCH   1  11
ATOM     10  N   UNL     1       1.320   9.230  17.926  0.00  0.00    +0.000 N 
ATOM     11  C   UNL     1       0.779  10.085  18.861  0.00  0.00    +0.000 C 
ATOM     12  O   UNL     1       1.363  10.367  19.905  0.00  0.00    +0.000 OA
ATOM     13  H   UNL     1       0.788   8.961  17.113  0.00  0.00    +0.000 HD
BRANCH  10  14
ATOM     14  C   UNL     1       2.544   8.503  18.204  0.00  0.00    +0.000 C 
BRANCH  14  18
ATOM     15  C   UNL     1       1.803   4.407  19.299  0.00  0.00    +0.000 A 
ATOM     16  C   UNL     1       1.946   4.753  17.952  0.00  0.00    +0.000 A 
ATOM     17  C   UNL     1       2.193   6.085  17.607  0.00  0.00    +0.000 A 
ATOM     18  C   UNL     1       2.273   7.073  18.598  0.00  0.00    +0.000 A 
ATOM     19  C   UNL     1       2.123   6.710  19.947  0.00  0.00    +0.000 A 
ATOM     20  C   UNL     1       1.882   5.379  20.300  0.00  0.00    +0.000 A 
BRANCH  15  21
ATOM     21  S   UNL     1       1.435   2.719  19.732  0.00  0.00    +0.000 S 
ATOM     22  O   UNL     1       0.358   2.276  18.873  0.00  0.00    +0.000 OA
ATOM     23  O   UNL     1       1.293   2.678  21.178  0.00  0.00    +0.000 OA
BRANCH  21  25
ATOM     24  C   UNL     1       4.161   2.599  19.710  0.00  0.00    +0.000 C 
ATOM     25  C   UNL     1       2.920   1.839  19.289  0.00  0.00    +0.000 C 
ENDBRANCH  21  25
ENDBRANCH  15  21
ENDBRANCH  14  18
ENDBRANCH  10  14
ENDBRANCH   1  11
BRANCH   9  26
ATOM     26  C   UNL     1      -5.759  12.000  18.293  0.00  0.00    +0.000 C 
ATOM     27  C   UNL     1      -5.589  12.315  16.799  0.00  0.00    +0.000 C 
ATOM     28  C   UNL     1      -6.527  10.678  18.471  0.00  0.00    +0.000 C 
ENDBRANCH   9  26
BRANCH   8  29
ATOM     29  C   UNL     1      -5.282  13.060  21.323  0.00  0.00    +0.000 C 
BRANCH  29  30
ATOM     30  C   UNL     1      -4.640  13.678  22.575  0.00  0.00    +0.000 A 
ATOM     31  C   UNL     1      -4.151  12.831  23.581  0.00  0.00    +0.000 A 
ATOM     32  C   UNL     1      -3.540  13.344  24.731  0.00  0.00    +0.000 A 
ATOM     33  C   UNL     1      -3.402  14.722  24.898  0.00  0.00    +0.000 A 
ATOM     34  C   UNL     1      -3.863  15.589  23.909  0.00  0.00    +0.000 A 
ATOM     35  C   UNL     1      -4.481  15.068  22.758  0.00  0.00    +0.000 A 
ENDBRANCH  29  30
ENDBRANCH   8  29
TORSDOF 8
ENDMDL
MODEL 4
REMARK VINA RESULT:      -8.1      8.019     10.188
REMARK  Name = 
REMARK  11 active torsions:
REMARK  status: ('A' for Active; 'I' for Inactive)
REMARK    1  A    between atoms: C_1  and  C_2
REMARK    2  A    between atoms: C_2  and  S_3
REMARK    3  A    between atoms: S_3  and  C_6
REMARK    4  A    between atoms: C_9  and  C_10
REMARK    5  A    between atoms: C_10  and  N_11
REMARK    6  A    between atoms: C_12  and  C_14
REMARK    7  A    between atoms: C_21  and  C_22
REMARK    8  A    between atoms: C_22  and  C_23
REMARK    9  A    between atoms: N_29  and  C_30
REMARK   10  A    between atoms: C_30  and  C_31
REMARK   11  A    between atoms: C_30  and  C_32
REMARK                            x       y       z     vdW  Elec       q    Type
REMARK                         _______ _______ _______ _____ _____    ______ ____
ROOT
ATOM      1  C   UNL     1      -0.756  10.478  18.371  0.00  0.00    +0.000 A 
ATOM      2  C   UNL     1      -1.695   9.728  17.653  0.00  0.00    +0.000 A 
ATOM      3  C   UNL     1      -3.067  10.103  17.610  0.00  0.00    +0.000 A 
ATOM      4  C   UNL     1      -3.466  11.248  18.339  0.00  0.00    +0.000 A 
ATOM      5  C   UNL     1      -2.501  12.069  18.922  0.00  0.00    +0.000 A 
ATOM      6  C   UNL     1      -1.154  11.690  18.934  0.00  0.00    +0.000 A 
ATOM      7  C   UNL     1      -3.150  13.194  19.454  0.00  0.00    +0.000 A 
ATOM      8  C   UNL     1      -4.463  12.812  19.617  0.00  0.00    +0.000 A 
ATOM      9  N   UNL     1      -4.697  11.836  18.653  0.00  0.00    +0.000 N 
ENDROOT
BRANCH   1  11
ATOM     10  N   UNL     1       1.308   9.303  17.718  0.00  0.00    +0.000 N 
ATOM     11  C   UNL     1       0.660  10.084  18.649  0.00  0.00    +0.000 C 
ATOM     12  O   UNL     1       1.176  10.386  19.723  0.00  0.00    +0.000 OA
ATOM     13  H   UNL     1       0.835   9.012  16.877  0.00  0.00    +0.000 HD
BRANCH  10  14
ATOM     14  C   UNL     1       2.578   8.674  18.030  0.00  0.00    +0.000 C 
BRANCH  14  18
ATOM     15  C   UNL     1       2.100   4.655  19.494  0.00  0.00    +0.000 A 
ATOM     16  C   UNL     1       2.279   4.881  18.126  0.00  0.00    +0.000 A 
ATOM     17  C   UNL     1       2.440   6.189  17.662  0.00  0.00    +0.000 A 
ATOM     18  C   UNL     1       2.398   7.271  18.553  0.00  0.00    +0.000 A 
ATOM     19  C   UNL     1       2.214   7.028  19.923  0.00  0.00    +0.000 A 
ATOM     20  C   UNL     1       2.058   5.721  20.397  0.00  0.00    +0.000 A 
BRANCH  15  21
ATOM     21  S   UNL     1       1.842   2.991  20.077  0.00  0.00    +0.000 S 
ATOM     22  O   UNL     1       1.599   2.160  18.917  0.00  0.00    +0.000 OA
ATOM     23  O   UNL     1       0.864   3.070  21.150  0.00  0.00    +0.000 OA
BRANCH  21  25
ATOM     24  C   UNL     1       4.429   2.209  19.709  0.00  0.00    +0.000 C 
ATOM     25  C   UNL     1       3.416   2.545  20.783  0.00  0.00    +0.000 C 
ENDBRANCH  21  25
ENDBRANCH  15  21
ENDBRANCH  14  18
ENDBRANCH  10  14
ENDBRANCH   1  11
BRANCH   9  26
ATOM     26  C   UNL     1      -5.969  11.608  17.957  0.00  0.00    +0.000 C 
ATOM     27  C   UNL     1      -7.071  10.970  18.817  0.00  0.00    +0.000 C 
ATOM     28  C   UNL     1      -6.489  12.899  17.301  0.00  0.00    +0.000 C 
ENDBRANCH   9  26
BRANCH   8  29
ATOM     29  C   UNL     1      -5.418  13.372  20.626  0.00  0.00    +0.000 C 
BRANCH  29  30
ATOM     30  C   UNL     1      -5.097  12.967  22.072  0.00  0.00    +0.000 A 
ATOM     31  C   UNL     1      -3.763  12.721  22.433  0.00  0.00    +0.000 A 
ATOM     32  C   UNL     1      -3.416  12.367  23.742  0.00  0.00    +0.000 A 
ATOM     33  C   UNL     1      -4.401  12.255  24.724  0.00  0.00    +0.000 A 
ATOM     34  C   UNL     1      -5.733  12.509  24.401  0.00  0.00    +0.000 A 
ATOM     35  C   UNL     1      -6.076  12.859  23.083  0.00  0.00    +0.000 A 
ENDBRANCH  29  30
ENDBRANCH   8  29
TORSDOF 8
ENDMDL
MODEL 5
REMARK VINA RESULT:      -8.1      7.242      9.407
REMARK  Name = 
REMARK  11 active torsions:
REMARK  status: ('A' for Active; 'I' for Inactive)
REMARK    1  A    between atoms: C_1  and  C_2
REMARK    2  A    between atoms: C_2  and  S_3
REMARK    3  A    between atoms: S_3  and  C_6
REMARK    4  A    between atoms: C_9  and  C_10
REMARK    5  A    between atoms: C_10  and  N_11
REMARK    6  A    between atoms: C_12  and  C_14
REMARK    7  A    between atoms: C_21  and  C_22
REMARK    8  A    between atoms: C_22  and  C_23
REMARK    9  A    between atoms: N_29  and  C_30
REMARK   10  A    between atoms: C_30  and  C_31
REMARK   11  A    between atoms: C_30  and  C_32
REMARK                            x       y       z     vdW  Elec       q    Type
REMARK                         _______ _______ _______ _____ _____    ______ ____
ROOT
ATOM      1  C   UNL     1       0.201  10.053  21.603  0.00  0.00    +0.000 A 
ATOM      2  C   UNL     1       0.851  10.980  20.779  0.00  0.00    +0.000 A 
ATOM      3  C   UNL     1       0.516  12.362  20.812  0.00  0.00    +0.000 A 
ATOM      4  C   UNL     1      -0.516  12.776  21.687  0.00  0.00    +0.000 A 
ATOM      5  C   UNL     1      -1.047  11.872  22.608  0.00  0.00    +0.000 A 
ATOM      6  C   UNL     1      -0.687  10.521  22.570  0.00  0.00    +0.000 A 
ATOM      7  C   UNL     1      -1.940  12.569  23.436  0.00  0.00    +0.000 A 
ATOM      8  C   UNL     1      -2.290  13.696  22.726  0.00  0.00    +0.000 A 
ATOM      9  N   UNL     1      -1.207  13.975  21.899  0.00  0.00    +0.000 N 
ENDROOT
BRANCH   1  11
ATOM     10  N   UNL     1       1.538   8.037  21.134  0.00  0.00    +0.000 N 
ATOM     11  C   UNL     1       0.326   8.564  21.522  0.00  0.00    +0.000 C 
ATOM     12  O   UNL     1      -0.663   7.860  21.715  0.00  0.00    +0.000 OA
ATOM     13  H   UNL     1       2.312   8.643  20.914  0.00  0.00    +0.000 HD
BRANCH  10  14
ATOM     14  C   UNL     1       1.660   6.632  20.788  0.00  0.00    +0.000 C 
BRANCH  14  18
ATOM     15  C   UNL     1       4.381   6.062  17.502  0.00  0.00    +0.000 A 
ATOM     16  C   UNL     1       3.544   7.181  17.526  0.00  0.00    +0.000 A 
ATOM     17  C   UNL     1       2.668   7.361  18.601  0.00  0.00    +0.000 A 
ATOM     18  C   UNL     1       2.609   6.417  19.636  0.00  0.00    +0.000 A 
ATOM     19  C   UNL     1       3.454   5.296  19.595  0.00  0.00    +0.000 A 
ATOM     20  C   UNL     1       4.337   5.112  18.527  0.00  0.00    +0.000 A 
BRANCH  15  21
ATOM     21  S   UNL     1       5.457   5.808  16.106  0.00  0.00    +0.000 S 
ATOM     22  O   UNL     1       5.311   6.954  15.233  0.00  0.00    +0.000 OA
ATOM     23  O   UNL     1       5.197   4.465  15.614  0.00  0.00    +0.000 OA
BRANCH  21  25
ATOM     24  C   UNL     1       7.398   7.183  17.442  0.00  0.00    +0.000 C 
ATOM     25  C   UNL     1       7.089   5.836  16.822  0.00  0.00    +0.000 C 
ENDBRANCH  21  25
ENDBRANCH  15  21
ENDBRANCH  14  18
ENDBRANCH  10  14
ENDBRANCH   1  11
BRANCH   9  26
ATOM     26  C   UNL     1      -0.765  15.313  21.489  0.00  0.00    +0.000 C 
ATOM     27  C   UNL     1       0.538  15.793  22.145  0.00  0.00    +0.000 C 
ATOM     28  C   UNL     1      -0.661  15.425  19.957  0.00  0.00    +0.000 C 
ENDBRANCH   9  26
BRANCH   8  29
ATOM     29  C   UNL     1      -3.578  14.449  22.860  0.00  0.00    +0.000 C 
BRANCH  29  30
ATOM     30  C   UNL     1      -4.815  13.639  22.442  0.00  0.00    +0.000 A 
ATOM     31  C   UNL     1      -4.842  13.041  21.172  0.00  0.00    +0.000 A 
ATOM     32  C   UNL     1      -5.937  12.278  20.751  0.00  0.00    +0.000 A 
ATOM     33  C   UNL     1      -7.031  12.092  21.595  0.00  0.00    +0.000 A 
ATOM     34  C   UNL     1      -7.027  12.659  22.869  0.00  0.00    +0.000 A 
ATOM     35  C   UNL     1      -5.926  13.429  23.285  0.00  0.00    +0.000 A 
ENDBRANCH  29  30
ENDBRANCH   8  29
TORSDOF 8
ENDMDL
MODEL 6
REMARK VINA RESULT:      -8.0      7.414      9.280
REMARK  Name = 
REMARK  11 active torsions:
REMARK  status: ('A' for Active; 'I' for Inactive)
REMARK    1  A    between atoms: C_1  and  C_2
REMARK    2  A    between atoms: C_2  and  S_3
REMARK    3  A    between atoms: S_3  and  C_6
REMARK    4  A    between atoms: C_9  and  C_10
REMARK    5  A    between atoms: C_10  and  N_11
REMARK    6  A    between atoms: C_12  and  C_14
REMARK    7  A    between atoms: C_21  and  C_22
REMARK    8  A    between atoms: C_22  and  C_23
REMARK    9  A    between atoms: N_29  and  C_30
REMARK   10  A    between atoms: C_30  and  C_31
REMARK   11  A    between atoms: C_30  and  C_32
REMARK                            x       y       z     vdW  Elec       q    Type
REMARK                         _______ _______ _______ _____ _____    ______ ____
ROOT
ATOM      1  C   UNL     1       0.249  11.115  19.773  0.00  0.00    +0.000 A 
ATOM      2  C   UNL     1       0.440  12.483  19.542  0.00  0.00    +0.000 A 
ATOM      3  C   UNL     1      -0.086  13.464  20.428  0.00  0.00    +0.000 A 
ATOM      4  C   UNL     1      -0.834  13.019  21.544  0.00  0.00    +0.000 A 
ATOM      5  C   UNL     1      -0.886  11.658  21.846  0.00  0.00    +0.000 A 
ATOM      6  C   UNL     1      -0.344  10.712  20.968  0.00  0.00    +0.000 A 
ATOM      7  C   UNL     1      -1.566  11.507  23.064  0.00  0.00    +0.000 A 
ATOM      8  C   UNL     1      -2.303  12.660  23.213  0.00  0.00    +0.000 A 
ATOM      9  N   UNL     1      -1.604  13.650  22.529  0.00  0.00    +0.000 N 
ENDROOT
BRANCH   1  11
ATOM     10  N   UNL     1       1.790   9.366  18.975  0.00  0.00    +0.000 N 
ATOM     11  C   UNL     1       0.580  10.007  18.823  0.00  0.00    +0.000 C 
ATOM     12  O   UNL     1      -0.181   9.757  17.892  0.00  0.00    +0.000 OA
ATOM     13  H   UNL     1       2.426   9.641  19.706  0.00  0.00    +0.000 HD
BRANCH  10  14
ATOM     14  C   UNL     1       2.289   8.468  17.949  0.00  0.00    +0.000 C 
BRANCH  14  18
ATOM     15  C   UNL     1       3.102   4.530  19.482  0.00  0.00    +0.000 A 
ATOM     16  C   UNL     1       3.549   4.886  18.207  0.00  0.00    +0.000 A 
ATOM     17  C   UNL     1       3.286   6.170  17.721  0.00  0.00    +0.000 A 
ATOM     18  C   UNL     1       2.558   7.087  18.492  0.00  0.00    +0.000 A 
ATOM     19  C   UNL     1       2.112   6.713  19.769  0.00  0.00    +0.000 A 
ATOM     20  C   UNL     1       2.377   5.432  20.265  0.00  0.00    +0.000 A 
BRANCH  15  21
ATOM     21  S   UNL     1       3.393   2.876  20.078  0.00  0.00    +0.000 S 
ATOM     22  O   UNL     1       2.792   2.777  21.391  0.00  0.00    +0.000 OA
ATOM     23  O   UNL     1       4.809   2.607  19.890  0.00  0.00    +0.000 OA
BRANCH  21  25
ATOM     24  C   UNL     1       1.012   2.254  18.901  0.00  0.00    +0.000 C 
ATOM     25  C   UNL     1       2.472   1.853  18.947  0.00  0.00    +0.000 C 
ENDBRANCH  21  25
ENDBRANCH  15  21
ENDBRANCH  14  18
ENDBRANCH  10  14
ENDBRANCH   1  11
BRANCH   9  26
ATOM     26  C   UNL     1      -1.541  15.067  22.902  0.00  0.00    +0.000 C 
ATOM     27  C   UNL     1      -0.121  15.643  23.021  0.00  0.00    +0.000 C 
ATOM     28  C   UNL     1      -2.387  15.936  21.954  0.00  0.00    +0.000 C 
ENDBRANCH   9  26
BRANCH   8  29
ATOM     29  C   UNL     1      -3.583  12.786  23.981  0.00  0.00    +0.000 C 
BRANCH  29  30
ATOM     30  C   UNL     1      -4.839  12.758  23.098  0.00  0.00    +0.000 A 
ATOM     31  C   UNL     1      -4.693  12.690  21.703  0.00  0.00    +0.000 A 
ATOM     32  C   UNL     1      -5.806  12.643  20.857  0.00  0.00    +0.000 A 
ATOM     33  C   UNL     1      -7.095  12.659  21.389  0.00  0.00    +0.000 A 
ATOM     34  C   UNL     1      -7.274  12.710  22.770  0.00  0.00    +0.000 A 
ATOM     35  C   UNL     1      -6.152  12.763  23.616  0.00  0.00    +0.000 A 
ENDBRANCH  29  30
ENDBRANCH   8  29
TORSDOF 8
ENDMDL
MODEL 7
REMARK VINA RESULT:      -8.0      6.936     11.058
REMARK  Name = 
REMARK  11 active torsions:
REMARK  status: ('A' for Active; 'I' for Inactive)
REMARK    1  A    between atoms: C_1  and  C_2
REMARK    2  A    between atoms: C_2  and  S_3
REMARK    3  A    between atoms: S_3  and  C_6
REMARK    4  A    between atoms: C_9  and  C_10
REMARK    5  A    between atoms: C_10  and  N_11
REMARK    6  A    between atoms: C_12  and  C_14
REMARK    7  A    between atoms: C_21  and  C_22
REMARK    8  A    between atoms: C_22  and  C_23
REMARK    9  A    between atoms: N_29  and  C_30
REMARK   10  A    between atoms: C_30  and  C_31
REMARK   11  A    between atoms: C_30  and  C_32
REMARK                            x       y       z     vdW  Elec       q    Type
REMARK                         _______ _______ _______ _____ _____    ______ ____
ROOT
ATOM      1  C   UNL     1       1.327   8.967  19.541  0.00  0.00    +0.000 A 
ATOM      2  C   UNL     1       0.914   8.156  20.605  0.00  0.00    +0.000 A 
ATOM      3  C   UNL     1       1.364   6.812  20.730  0.00  0.00    +0.000 A 
ATOM      4  C   UNL     1       2.226   6.303  19.730  0.00  0.00    +0.000 A 
ATOM      5  C   UNL     1       2.749   7.163  18.764  0.00  0.00    +0.000 A 
ATOM      6  C   UNL     1       2.307   8.487  18.672  0.00  0.00    +0.000 A 
ATOM      7  C   UNL     1       3.672   6.440  17.992  0.00  0.00    +0.000 A 
ATOM      8  C   UNL     1       3.338   5.117  18.171  0.00  0.00    +0.000 A 
ATOM      9  N   UNL     1       2.751   5.041  19.431  0.00  0.00    +0.000 N 
ENDROOT
BRANCH   1  11
ATOM     10  N   UNL     1       1.063  11.364  20.043  0.00  0.00    +0.000 N 
ATOM     11  C   UNL     1       0.778  10.315  19.196  0.00  0.00    +0.000 C 
ATOM     12  O   UNL     1       0.026  10.438  18.232  0.00  0.00    +0.000 OA
ATOM     13  H   UNL     1       1.626  11.218  20.866  0.00  0.00    +0.000 HD
BRANCH  10  14
ATOM     14  C   UNL     1       0.364  12.630  19.918  0.00  0.00    +0.000 C 
BRANCH  14  18
ATOM     15  C   UNL     1      -3.155  12.764  22.392  0.00  0.00    +0.000 A 
ATOM     16  C   UNL     1      -2.022  12.074  22.831  0.00  0.00    +0.000 A 
ATOM     17  C   UNL     1      -0.882  12.042  22.023  0.00  0.00    +0.000 A 
ATOM     18  C   UNL     1      -0.879  12.674  20.772  0.00  0.00    +0.000 A 
ATOM     19  C   UNL     1      -2.026  13.360  20.344  0.00  0.00    +0.000 A 
ATOM     20  C   UNL     1      -3.169  13.402  21.149  0.00  0.00    +0.000 A 
BRANCH  15  21
ATOM     21  S   UNL     1      -4.624  12.759  23.400  0.00  0.00    +0.000 S 
ATOM     22  O   UNL     1      -4.334  11.977  24.583  0.00  0.00    +0.000 OA
ATOM     23  O   UNL     1      -5.730  12.399  22.528  0.00  0.00    +0.000 OA
BRANCH  21  25
ATOM     24  C   UNL     1      -3.587  14.982  24.593  0.00  0.00    +0.000 C 
ATOM     25  C   UNL     1      -4.816  14.466  23.872  0.00  0.00    +0.000 C 
ENDBRANCH  21  25
ENDBRANCH  15  21
ENDBRANCH  14  18
ENDBRANCH  10  14
ENDBRANCH   1  11
BRANCH   9  26
ATOM     26  C   UNL     1       2.842   3.900  20.350  0.00  0.00    +0.000 C 
ATOM     27  C   UNL     1       1.559   3.066  20.474  0.00  0.00    +0.000 C 
ATOM     28  C   UNL     1       4.034   2.991  19.999  0.00  0.00    +0.000 C 
ENDBRANCH   9  26
BRANCH   8  29
ATOM     29  C   UNL     1       3.589   4.011  17.193  0.00  0.00    +0.000 C 
BRANCH  29  30
ATOM     30  C   UNL     1       4.867   4.201  16.360  0.00  0.00    +0.000 A 
ATOM     31  C   UNL     1       4.775   4.209  14.960  0.00  0.00    +0.000 A 
ATOM     32  C   UNL     1       5.906   4.397  14.157  0.00  0.00    +0.000 A 
ATOM     33  C   UNL     1       7.158   4.587  14.741  0.00  0.00    +0.000 A 
ATOM     34  C   UNL     1       7.280   4.601  16.130  0.00  0.00    +0.000 A 
ATOM     35  C   UNL     1       6.141   4.406  16.931  0.00  0.00    +0.000 A 
ENDBRANCH  29  30
ENDBRANCH   8  29
TORSDOF 8
ENDMDL
MODEL 8
REMARK VINA RESULT:      -8.0      7.115     10.905
REMARK  Name = 
REMARK  11 active torsions:
REMARK  status: ('A' for Active; 'I' for Inactive)
REMARK    1  A    between atoms: C_1  and  C_2
REMARK    2  A    between atoms: C_2  and  S_3
REMARK    3  A    between atoms: S_3  and  C_6
REMARK    4  A    between atoms: C_9  and  C_10
REMARK    5  A    between atoms: C_10  and  N_11
REMARK    6  A    between atoms: C_12  and  C_14
REMARK    7  A    between atoms: C_21  and  C_22
REMARK    8  A    between atoms: C_22  and  C_23
REMARK    9  A    between atoms: N_29  and  C_30
REMARK   10  A    between atoms: C_30  and  C_31
REMARK   11  A    between atoms: C_30  and  C_32
REMARK                            x       y       z     vdW  Elec       q    Type
REMARK                         _______ _______ _______ _____ _____    ______ ____
ROOT
ATOM      1  C   UNL     1       1.271   8.345  20.228  0.00  0.00    +0.000 A 
ATOM      2  C   UNL     1       0.998   7.326  21.149  0.00  0.00    +0.000 A 
ATOM      3  C   UNL     1       1.523   6.015  20.981  0.00  0.00    +0.000 A 
ATOM      4  C   UNL     1       2.314   5.757  19.836  0.00  0.00    +0.000 A 
ATOM      5  C   UNL     1       2.703   6.813  19.011  0.00  0.00    +0.000 A 
ATOM      6  C   UNL     1       2.189   8.099  19.208  0.00  0.00    +0.000 A 
ATOM      7  C   UNL     1       3.586   6.307  18.044  0.00  0.00    +0.000 A 
ATOM      8  C   UNL     1       3.335   4.954  17.996  0.00  0.00    +0.000 A 
ATOM      9  N   UNL     1       2.871   4.609  19.262  0.00  0.00    +0.000 N 
ENDROOT
BRANCH   1  11
ATOM     10  N   UNL     1       0.243  10.195  18.966  0.00  0.00    +0.000 N 
ATOM     11  C   UNL     1       0.627   9.695  20.191  0.00  0.00    +0.000 C 
ATOM     12  O   UNL     1       0.536  10.354  21.224  0.00  0.00    +0.000 OA
ATOM     13  H   UNL     1       0.395   9.659  18.126  0.00  0.00    +0.000 HD
BRANCH  10  14
ATOM     14  C   UNL     1      -0.147  11.585  18.820  0.00  0.00    +0.000 C 
BRANCH  14  18
ATOM     15  C   UNL     1      -4.425  12.034  18.933  0.00  0.00    +0.000 A 
ATOM     16  C   UNL     1      -3.819  11.421  17.833  0.00  0.00    +0.000 A 
ATOM     17  C   UNL     1      -2.429  11.274  17.809  0.00  0.00    +0.000 A 
ATOM     18  C   UNL     1      -1.644  11.758  18.865  0.00  0.00    +0.000 A 
ATOM     19  C   UNL     1      -2.268  12.374  19.961  0.00  0.00    +0.000 A 
ATOM     20  C   UNL     1      -3.659  12.520  19.996  0.00  0.00    +0.000 A 
BRANCH  15  21
ATOM     21  S   UNL     1      -6.192  12.267  18.938  0.00  0.00    +0.000 S 
ATOM     22  O   UNL     1      -6.736  11.469  17.860  0.00  0.00    +0.000 OA
ATOM     23  O   UNL     1      -6.425  13.701  18.986  0.00  0.00    +0.000 OA
BRANCH  21  25
ATOM     24  C   UNL     1      -7.078  12.637  21.491  0.00  0.00    +0.000 C 
ATOM     25  C   UNL     1      -6.705  11.562  20.491  0.00  0.00    +0.000 C 
ENDBRANCH  21  25
ENDBRANCH  15  21
ENDBRANCH  14  18
ENDBRANCH  10  14
ENDBRANCH   1  11
BRANCH   9  26
ATOM     26  C   UNL     1       3.103   3.327  19.938  0.00  0.00    +0.000 C 
ATOM     27  C   UNL     1       2.125   2.207  19.553  0.00  0.00    +0.000 C 
ATOM     28  C   UNL     1       4.554   2.850  19.753  0.00  0.00    +0.000 C 
ENDBRANCH   9  26
BRANCH   8  29
ATOM     29  C   UNL     1       3.551   4.067  16.809  0.00  0.00    +0.000 C 
BRANCH  29  30
ATOM     30  C   UNL     1       4.890   4.305  16.094  0.00  0.00    +0.000 A 
ATOM     31  C   UNL     1       6.057   4.448  16.860  0.00  0.00    +0.000 A 
ATOM     32  C   UNL     1       7.304   4.648  16.255  0.00  0.00    +0.000 A 
ATOM     33  C   UNL     1       7.410   4.705  14.866  0.00  0.00    +0.000 A 
ATOM     34  C   UNL     1       6.272   4.549  14.077  0.00  0.00    +0.000 A 
ATOM     35  C   UNL     1       5.021   4.355  14.690  0.00  0.00    +0.000 A 
ENDBRANCH  29  30
ENDBRANCH   8  29
TORSDOF 8
ENDMDL
MODEL 9
REMARK VINA RESULT:      -7.9      7.111     11.039
REMARK  Name = 
REMARK  11 active torsions:
REMARK  status: ('A' for Active; 'I' for Inactive)
REMARK    1  A    between atoms: C_1  and  C_2
REMARK    2  A    between atoms: C_2  and  S_3
REMARK    3  A    between atoms: S_3  and  C_6
REMARK    4  A    between atoms: C_9  and  C_10
REMARK    5  A    between atoms: C_10  and  N_11
REMARK    6  A    between atoms: C_12  and  C_14
REMARK    7  A    between atoms: C_21  and  C_22
REMARK    8  A    between atoms: C_22  and  C_23
REMARK    9  A    between atoms: N_29  and  C_30
REMARK   10  A    between atoms: C_30  and  C_31
REMARK   11  A    between atoms: C_30  and  C_32
REMARK                            x       y       z     vdW  Elec       q    Type
REMARK                         _______ _______ _______ _____ _____    ______ ____
ROOT
ATOM      1  C   UNL     1       1.310   8.362  20.131  0.00  0.00    +0.000 A 
ATOM      2  C   UNL     1       0.977   7.366  21.058  0.00  0.00    +0.000 A 
ATOM      3  C   UNL     1       1.476   6.040  20.931  0.00  0.00    +0.000 A 
ATOM      4  C   UNL     1       2.303   5.744  19.823  0.00  0.00    +0.000 A 
ATOM      5  C   UNL     1       2.749   6.775  18.996  0.00  0.00    +0.000 A 
ATOM      6  C   UNL     1       2.260   8.077  19.152  0.00  0.00    +0.000 A 
ATOM      7  C   UNL     1       3.655   6.232  18.073  0.00  0.00    +0.000 A 
ATOM      8  C   UNL     1       3.374   4.885  18.037  0.00  0.00    +0.000 A 
ATOM      9  N   UNL     1       2.853   4.573  19.289  0.00  0.00    +0.000 N 
ENDROOT
BRANCH   1  11
ATOM     10  N   UNL     1       0.066  10.080  18.876  0.00  0.00    +0.000 N 
ATOM     11  C   UNL     1       0.701   9.726  20.047  0.00  0.00    +0.000 C 
ATOM     12  O   UNL     1       0.854  10.519  20.974  0.00  0.00    +0.000 OA
ATOM     13  H   UNL     1       0.018   9.432  18.106  0.00  0.00    +0.000 HD
BRANCH  10  14
ATOM     14  C   UNL     1      -0.318  11.457  18.627  0.00  0.00    +0.000 C 
BRANCH  14  18
ATOM     15  C   UNL     1      -4.597  11.918  18.630  0.00  0.00    +0.000 A 
ATOM     16  C   UNL     1      -3.968  11.266  17.566  0.00  0.00    +0.000 A 
ATOM     17  C   UNL     1      -2.578  11.116  17.577  0.00  0.00    +0.000 A 
ATOM     18  C   UNL     1      -1.816  11.634  18.633  0.00  0.00    +0.000 A 
ATOM     19  C   UNL     1      -2.462  12.289  19.693  0.00  0.00    +0.000 A 
ATOM     20  C   UNL     1      -3.852  12.438  19.692  0.00  0.00    +0.000 A 
BRANCH  15  21
ATOM     21  S   UNL     1      -6.362  12.154  18.588  0.00  0.00    +0.000 S 
ATOM     22  O   UNL     1      -6.965  11.040  19.287  0.00  0.00    +0.000 OA
ATOM     23  O   UNL     1      -6.714  12.438  17.206  0.00  0.00    +0.000 OA
BRANCH  21  25
ATOM     24  C   UNL     1      -6.943  14.819  18.660  0.00  0.00    +0.000 C 
ATOM     25  C   UNL     1      -6.611  13.636  19.546  0.00  0.00    +0.000 C 
ENDBRANCH  21  25
ENDBRANCH  15  21
ENDBRANCH  14  18
ENDBRANCH  10  14
ENDBRANCH   1  11
BRANCH   9  26
ATOM     26  C   UNL     1       3.027   3.298  19.995  0.00  0.00    +0.000 C 
ATOM     27  C   UNL     1       2.010   2.208  19.622  0.00  0.00    +0.000 C 
ATOM     28  C   UNL     1       4.461   2.760  19.837  0.00  0.00    +0.000 C 
ENDBRANCH   9  26
BRANCH   8  29
ATOM     29  C   UNL     1       3.613   3.972  16.874  0.00  0.00    +0.000 C 
BRANCH  29  30
ATOM     30  C   UNL     1       4.945   4.227  16.151  0.00  0.00    +0.000 A 
ATOM     31  C   UNL     1       4.961   4.286  14.749  0.00  0.00    +0.000 A 
ATOM     32  C   UNL     1       6.145   4.534  14.045  0.00  0.00    +0.000 A 
ATOM     33  C   UNL     1       7.342   4.733  14.731  0.00  0.00    +0.000 A 
ATOM     34  C   UNL     1       7.356   4.698  16.125  0.00  0.00    +0.000 A 
ATOM     35  C   UNL     1       6.164   4.442  16.827  0.00  0.00    +0.000 A 
ENDBRANCH  29  30
ENDBRANCH   8  29
TORSDOF 8
ENDMDL
