MODEL 1
REMARK VINA RESULT:      -7.1      0.000      0.000
REMARK  Name = 
REMARK  5 active torsions:
REMARK  status: ('A' for Active; 'I' for Inactive)
REMARK    1  A    between atoms: C_1  and  N_2
REMARK    2  A    between atoms: C_3  and  N_4
REMARK    3  A    between atoms: C_3  and  C_23
REMARK    4  A    between atoms: C_8  and  C_9
REMARK    5  A    between atoms: N_15  and  C_16
REMARK                            x       y       z     vdW  Elec       q    Type
REMARK                         _______ _______ _______ _____ _____    ______ ____
ROOT
ATOM      1  N   UNL     1      -2.822  13.008  20.777  0.00  0.00    +0.000 NA
ATOM      2  C   UNL     1      -1.785  12.246  20.950  0.00  0.00    +0.000 A 
ATOM      3  S   UNL     1      -0.817  12.064  22.439  0.00  0.00    +0.000 S 
ATOM      4  N   UNL     1       0.290  10.964  21.774  0.00  0.00    +0.000 NA
ATOM      5  C   UNL     1      -0.047  10.712  20.527  0.00  0.00    +0.000 A 
ATOM      6  N   UNL     1      -1.207  11.349  20.039  0.00  0.00    +0.000 N 
ENDROOT
BRANCH   6   7
ATOM      7  C   UNL     1      -1.833  11.062  18.787  0.00  0.00    +0.000 A 
ATOM      8  C   UNL     1      -2.526   9.857  18.556  0.00  0.00    +0.000 A 
ATOM      9  C   UNL     1      -2.971   9.504  17.277  0.00  0.00    +0.000 A 
ATOM     10  C   UNL     1      -2.806  10.391  16.219  0.00  0.00    +0.000 A 
ATOM     11 CL   UNL     1      -3.310   9.945  14.637  0.00  0.00    +0.000 Cl
ATOM     12  C   UNL     1      -2.220  11.632  16.436  0.00  0.00    +0.000 A 
ATOM     13  C   UNL     1      -1.732  11.959  17.706  0.00  0.00    +0.000 A 
ENDBRANCH   6   7
BRANCH   5  14
ATOM     14  C   UNL     1       0.862   9.789  19.764  0.00  0.00    +0.000 A 
ATOM     15  C   UNL     1       1.232   8.574  20.360  0.00  0.00    +0.000 A 
ATOM     16  C   UNL     1       1.994   7.640  19.651  0.00  0.00    +0.000 A 
ATOM     17  C   UNL     1       2.382   7.910  18.340  0.00  0.00    +0.000 A 
ATOM     18  C   UNL     1       2.063   9.136  17.760  0.00  0.00    +0.000 A 
ATOM     19  C   UNL     1       1.342  10.090  18.483  0.00  0.00    +0.000 A 
ENDBRANCH   5  14
BRANCH   1  22
ATOM     20  C   UNL     1      -3.118  16.055  22.774  0.00  0.00    +0.000 C 
ATOM     21  N   UNL     1      -2.805  15.073  21.759  0.00  0.00    +0.000 NA
ATOM     22  C   UNL     1      -3.307  13.891  21.708  0.00  0.00    +0.000 C 
BRANCH  22  23
ATOM     23  C   UNL     1      -4.458  13.353  22.520  0.00  0.00    +0.000 A 
ATOM     24  C   UNL     1      -4.277  12.851  23.816  0.00  0.00    +0.000 A 
ATOM     25  C   UNL     1      -5.365  12.398  24.570  0.00  0.00    +0.000 A 
ATOM     26  C   UNL     1      -6.654  12.483  24.054  0.00  0.00    +0.000 A 
ATOM     27  C   UNL     1      -6.857  13.022  22.785  0.00  0.00    +0.000 A 
ATOM     28  C   UNL     1      -5.764  13.452  22.019  0.00  0.00    +0.000 A 
ENDBRANCH  22  23
ENDBRANCH   1  22
TORSDOF 4
ENDMDL
MODEL 2
REMARK VINA RESULT:      -6.8      0.375      1.341
REMARK  Name = 
REMARK  5 active torsions:
REMARK  status: ('A' for Active; 'I' for Inactive)
REMARK    1  A    between atoms: C_1  and  N_2
REMARK    2  A    between atoms: C_3  and  N_4
REMARK    3  A    between atoms: C_3  and  C_23
REMARK    4  A    between atoms: C_8  and  C_9
REMARK    5  A    between atoms: N_15  and  C_16
REMARK                            x       y       z     vdW  Elec       q    Type
REMARK                         _______ _______ _______ _____ _____    ______ ____
ROOT
ATOM      1  N   UNL     1      -2.547  12.926  20.626  0.00  0.00    +0.000 NA
ATOM      2  C   UNL     1      -1.574  12.094  20.840  0.00  0.00    +0.000 A 
ATOM      3  S   UNL     1      -0.661  11.869  22.359  0.00  0.00    +0.000 S 
ATOM      4  N   UNL     1       0.379  10.679  21.743  0.00  0.00    +0.000 NA
ATOM      5  C   UNL     1       0.058  10.430  20.491  0.00  0.00    +0.000 A 
ATOM      6  N   UNL     1      -1.039  11.140  19.961  0.00  0.00    +0.000 N 
ENDROOT
BRANCH   6   7
ATOM      7  C   UNL     1      -1.650  10.877  18.696  0.00  0.00    +0.000 A 
ATOM      8  C   UNL     1      -1.550  11.777  17.617  0.00  0.00    +0.000 A 
ATOM      9  C   UNL     1      -2.304  11.604  16.450  0.00  0.00    +0.000 A 
ATOM     10  C   UNL     1      -3.109  10.480  16.308  0.00  0.00    +0.000 A 
ATOM     11 CL   UNL     1      -4.071  10.285  14.897  0.00  0.00    +0.000 Cl
ATOM     12  C   UNL     1      -3.149   9.521  17.313  0.00  0.00    +0.000 A 
ATOM     13  C   UNL     1      -2.432   9.724  18.497  0.00  0.00    +0.000 A 
ENDBRANCH   6   7
BRANCH   5  14
ATOM     14  C   UNL     1       0.918   9.429  19.769  0.00  0.00    +0.000 A 
ATOM     15  C   UNL     1       1.326   9.721  18.459  0.00  0.00    +0.000 A 
ATOM     16  C   UNL     1       2.206   8.870  17.785  0.00  0.00    +0.000 A 
ATOM     17  C   UNL     1       2.693   7.728  18.418  0.00  0.00    +0.000 A 
ATOM     18  C   UNL     1       2.251   7.404  19.700  0.00  0.00    +0.000 A 
ATOM     19  C   UNL     1       1.335   8.229  20.358  0.00  0.00    +0.000 A 
ENDBRANCH   5  14
BRANCH   1  22
ATOM     20  C   UNL     1      -2.762  16.081  22.459  0.00  0.00    +0.000 C 
ATOM     21  N   UNL     1      -2.494  15.043  21.487  0.00  0.00    +0.000 NA
ATOM     22  C   UNL     1      -2.990  13.859  21.529  0.00  0.00    +0.000 C 
BRANCH  22  23
ATOM     23  C   UNL     1      -4.097  13.365  22.426  0.00  0.00    +0.000 A 
ATOM     24  C   UNL     1      -3.842  12.902  23.725  0.00  0.00    +0.000 A 
ATOM     25  C   UNL     1      -4.888  12.490  24.557  0.00  0.00    +0.000 A 
ATOM     26  C   UNL     1      -6.205  12.577  24.118  0.00  0.00    +0.000 A 
ATOM     27  C   UNL     1      -6.478  13.076  22.846  0.00  0.00    +0.000 A 
ATOM     28  C   UNL     1      -5.429  13.465  22.002  0.00  0.00    +0.000 A 
ENDBRANCH  22  23
ENDBRANCH   1  22
TORSDOF 4
ENDMDL
MODEL 3
REMARK VINA RESULT:      -6.5      0.498      1.650
REMARK  Name = 
REMARK  5 active torsions:
REMARK  status: ('A' for Active; 'I' for Inactive)
REMARK    1  A    between atoms: C_1  and  N_2
REMARK    2  A    between atoms: C_3  and  N_4
REMARK    3  A    between atoms: C_3  and  C_23
REMARK    4  A    between atoms: C_8  and  C_9
REMARK    5  A    between atoms: N_15  and  C_16
REMARK                            x       y       z     vdW  Elec       q    Type
REMARK                         _______ _______ _______ _____ _____    ______ ____
ROOT
ATOM      1  N   UNL     1      -2.881  13.054  20.321  0.00  0.00    +0.000 NA
ATOM      2  C   UNL     1      -1.918  12.244  20.638  0.00  0.00    +0.000 A 
ATOM      3  S   UNL     1      -1.099  12.108  22.219  0.00  0.00    +0.000 S 
ATOM      4  N   UNL     1      -0.015  10.898  21.732  0.00  0.00    +0.000 NA
ATOM      5  C   UNL     1      -0.257  10.580  20.477  0.00  0.00    +0.000 A 
ATOM      6  N   UNL     1      -1.323  11.251  19.845  0.00  0.00    +0.000 N 
ENDROOT
BRANCH   6   7
ATOM      7  C   UNL     1      -1.854  10.917  18.560  0.00  0.00    +0.000 A 
ATOM      8  C   UNL     1      -1.695  11.762  17.444  0.00  0.00    +0.000 A 
ATOM      9  C   UNL     1      -2.375  11.521  16.244  0.00  0.00    +0.000 A 
ATOM     10  C   UNL     1      -3.160  10.382  16.111  0.00  0.00    +0.000 A 
ATOM     11 CL   UNL     1      -4.031  10.103  14.656  0.00  0.00    +0.000 Cl
ATOM     12  C   UNL     1      -3.251   9.474  17.160  0.00  0.00    +0.000 A 
ATOM     13  C   UNL     1      -2.610   9.745  18.373  0.00  0.00    +0.000 A 
ENDBRANCH   6   7
BRANCH   5  14
ATOM     14  C   UNL     1       0.653   9.552  19.864  0.00  0.00    +0.000 A 
ATOM     15  C   UNL     1       1.113   9.764  18.555  0.00  0.00    +0.000 A 
ATOM     16  C   UNL     1       2.038   8.889  17.979  0.00  0.00    +0.000 A 
ATOM     17  C   UNL     1       2.517   7.802  18.709  0.00  0.00    +0.000 A 
ATOM     18  C   UNL     1       2.026   7.556  19.990  0.00  0.00    +0.000 A 
ATOM     19  C   UNL     1       1.066   8.404  20.550  0.00  0.00    +0.000 A 
ENDBRANCH   5  14
BRANCH   1  22
ATOM     20  C   UNL     1      -3.168  16.262  22.050  0.00  0.00    +0.000 C 
ATOM     21  N   UNL     1      -2.834  15.189  21.139  0.00  0.00    +0.000 NA
ATOM     22  C   UNL     1      -3.386  14.029  21.145  0.00  0.00    +0.000 C 
BRANCH  22  23
ATOM     23  C   UNL     1      -4.613  13.606  21.912  0.00  0.00    +0.000 A 
ATOM     24  C   UNL     1      -5.861  13.467  21.290  0.00  0.00    +0.000 A 
ATOM     25  C   UNL     1      -6.978  13.030  22.010  0.00  0.00    +0.000 A 
ATOM     26  C   UNL     1      -6.851  12.683  23.351  0.00  0.00    +0.000 A 
ATOM     27  C   UNL     1      -5.607  12.773  23.974  0.00  0.00    +0.000 A 
ATOM     28  C   UNL     1      -4.494  13.235  23.259  0.00  0.00    +0.000 A 
ENDBRANCH  22  23
ENDBRANCH   1  22
TORSDOF 4
ENDMDL
MODEL 4
REMARK VINA RESULT:      -6.4      0.721      1.595
REMARK  Name = 
REMARK  5 active torsions:
REMARK  status: ('A' for Active; 'I' for Inactive)
REMARK    1  A    between atoms: C_1  and  N_2
REMARK    2  A    between atoms: C_3  and  N_4
REMARK    3  A    between atoms: C_3  and  C_23
REMARK    4  A    between atoms: C_8  and  C_9
REMARK    5  A    between atoms: N_15  and  C_16
REMARK                            x       y       z     vdW  Elec       q    Type
REMARK                         _______ _______ _______ _____ _____    ______ ____
ROOT
ATOM      1  N   UNL     1      -2.810  12.997  20.399  0.00  0.00    +0.000 NA
ATOM      2  C   UNL     1      -1.804  12.223  20.677  0.00  0.00    +0.000 A 
ATOM      3  S   UNL     1      -0.950  12.083  22.239  0.00  0.00    +0.000 S 
ATOM      4  N   UNL     1       0.178  10.937  21.698  0.00  0.00    +0.000 NA
ATOM      5  C   UNL     1      -0.073  10.643  20.440  0.00  0.00    +0.000 A 
ATOM      6  N   UNL     1      -1.180  11.281  19.846  0.00  0.00    +0.000 N 
ENDROOT
BRANCH   6   7
ATOM      7  C   UNL     1      -1.720  10.957  18.562  0.00  0.00    +0.000 A 
ATOM      8  C   UNL     1      -1.630  11.842  17.470  0.00  0.00    +0.000 A 
ATOM      9  C   UNL     1      -2.321  11.601  16.276  0.00  0.00    +0.000 A 
ATOM     10  C   UNL     1      -3.047  10.426  16.124  0.00  0.00    +0.000 A 
ATOM     11 CL   UNL     1      -3.934  10.145  14.678  0.00  0.00    +0.000 Cl
ATOM     12  C   UNL     1      -3.069   9.484  17.146  0.00  0.00    +0.000 A 
ATOM     13  C   UNL     1      -2.418   9.753  18.354  0.00  0.00    +0.000 A 
ENDBRANCH   6   7
BRANCH   5  14
ATOM     14  C   UNL     1       0.871   9.675  19.782  0.00  0.00    +0.000 A 
ATOM     15  C   UNL     1       1.264   8.534  20.498  0.00  0.00    +0.000 A 
ATOM     16  C   UNL     1       2.058   7.556  19.893  0.00  0.00    +0.000 A 
ATOM     17  C   UNL     1       2.457   7.706  18.566  0.00  0.00    +0.000 A 
ATOM     18  C   UNL     1       2.114   8.860  17.865  0.00  0.00    +0.000 A 
ATOM     19  C   UNL     1       1.359   9.861  18.483  0.00  0.00    +0.000 A 
ENDBRANCH   5  14
BRANCH   1  22
ATOM     20  C   UNL     1      -2.958  15.763  22.785  0.00  0.00    +0.000 C 
ATOM     21  N   UNL     1      -2.566  14.816  21.763  0.00  0.00    +0.000 NA
ATOM     22  C   UNL     1      -3.342  13.925  21.259  0.00  0.00    +0.000 C 
BRANCH  22  23
ATOM     23  C   UNL     1      -4.835  13.809  21.435  0.00  0.00    +0.000 A 
ATOM     24  C   UNL     1      -5.731  14.510  20.615  0.00  0.00    +0.000 A 
ATOM     25  C   UNL     1      -7.113  14.354  20.764  0.00  0.00    +0.000 A 
ATOM     26  C   UNL     1      -7.617  13.463  21.706  0.00  0.00    +0.000 A 
ATOM     27  C   UNL     1      -6.739  12.726  22.499  0.00  0.00    +0.000 A 
ATOM     28  C   UNL     1      -5.355  12.900  22.367  0.00  0.00    +0.000 A 
ENDBRANCH  22  23
ENDBRANCH   1  22
TORSDOF 4
ENDMDL
MODEL 5
REMARK VINA RESULT:      -6.4      6.256      9.023
REMARK  Name = 
REMARK  5 active torsions:
REMARK  status: ('A' for Active; 'I' for Inactive)
REMARK    1  A    between atoms: C_1  and  N_2
REMARK    2  A    between atoms: C_3  and  N_4
REMARK    3  A    between atoms: C_3  and  C_23
REMARK    4  A    between atoms: C_8  and  C_9
REMARK    5  A    between atoms: N_15  and  C_16
REMARK                            x       y       z     vdW  Elec       q    Type
REMARK                         _______ _______ _______ _____ _____    ______ ____
ROOT
ATOM      1  N   UNL     1       4.244  14.149  21.954  0.00  0.00    +0.000 NA
ATOM      2  C   UNL     1       3.910  15.197  21.265  0.00  0.00    +0.000 A 
ATOM      3  S   UNL     1       4.596  16.841  21.401  0.00  0.00    +0.000 S 
ATOM      4  N   UNL     1       3.593  17.528  20.217  0.00  0.00    +0.000 NA
ATOM      5  C   UNL     1       2.811  16.594  19.718  0.00  0.00    +0.000 A 
ATOM      6  N   UNL     1       2.979  15.287  20.220  0.00  0.00    +0.000 N 
ENDROOT
BRANCH   6   7
ATOM      7  C   UNL     1       2.361  14.117  19.679  0.00  0.00    +0.000 A 
ATOM      8  C   UNL     1       1.228  13.528  20.275  0.00  0.00    +0.000 A 
ATOM      9  C   UNL     1       0.746  12.284  19.852  0.00  0.00    +0.000 A 
ATOM     10  C   UNL     1       1.338  11.644  18.769  0.00  0.00    +0.000 A 
ATOM     11 CL   UNL     1       0.779  10.096  18.274  0.00  0.00    +0.000 Cl
ATOM     12  C   UNL     1       2.391  12.250  18.094  0.00  0.00    +0.000 A 
ATOM     13  C   UNL     1       2.901  13.470  18.552  0.00  0.00    +0.000 A 
ENDBRANCH   6   7
BRANCH   5  14
ATOM     14  C   UNL     1       1.816  17.042  18.684  0.00  0.00    +0.000 A 
ATOM     15  C   UNL     1       0.451  16.987  19.004  0.00  0.00    +0.000 A 
ATOM     16  C   UNL     1      -0.506  17.486  18.115  0.00  0.00    +0.000 A 
ATOM     17  C   UNL     1      -0.105  18.052  16.906  0.00  0.00    +0.000 A 
ATOM     18  C   UNL     1       1.244  18.063  16.559  0.00  0.00    +0.000 A 
ATOM     19  C   UNL     1       2.198  17.522  17.426  0.00  0.00    +0.000 A 
ENDBRANCH   5  14
BRANCH   1  22
ATOM     20  C   UNL     1       5.632  14.772  25.278  0.00  0.00    +0.000 C 
ATOM     21  N   UNL     1       4.760  14.583  24.139  0.00  0.00    +0.000 NA
ATOM     22  C   UNL     1       5.142  14.149  22.992  0.00  0.00    +0.000 C 
BRANCH  22  23
ATOM     23  C   UNL     1       6.479  13.544  22.644  0.00  0.00    +0.000 A 
ATOM     24  C   UNL     1       7.461  14.270  21.957  0.00  0.00    +0.000 A 
ATOM     25  C   UNL     1       8.712  13.705  21.684  0.00  0.00    +0.000 A 
ATOM     26  C   UNL     1       9.011  12.423  22.133  0.00  0.00    +0.000 A 
ATOM     27  C   UNL     1       8.061  11.705  22.857  0.00  0.00    +0.000 A 
ATOM     28  C   UNL     1       6.799  12.260  23.109  0.00  0.00    +0.000 A 
ENDBRANCH  22  23
ENDBRANCH   1  22
TORSDOF 4
ENDMDL
MODEL 6
REMARK VINA RESULT:      -6.3      0.974      2.558
REMARK  Name = 
REMARK  5 active torsions:
REMARK  status: ('A' for Active; 'I' for Inactive)
REMARK    1  A    between atoms: C_1  and  N_2
REMARK    2  A    between atoms: C_3  and  N_4
REMARK    3  A    between atoms: C_3  and  C_23
REMARK    4  A    between atoms: C_8  and  C_9
REMARK    5  A    between atoms: N_15  and  C_16
REMARK                            x       y       z     vdW  Elec       q    Type
REMARK                         _______ _______ _______ _____ _____    ______ ____
ROOT
ATOM      1  N   UNL     1      -2.964  12.585  21.012  0.00  0.00    +0.000 NA
ATOM      2  C   UNL     1      -1.897  11.854  21.131  0.00  0.00    +0.000 A 
ATOM      3  S   UNL     1      -0.968  11.537  22.622  0.00  0.00    +0.000 S 
ATOM      4  N   UNL     1       0.211  10.575  21.871  0.00  0.00    +0.000 NA
ATOM      5  C   UNL     1      -0.075  10.462  20.591  0.00  0.00    +0.000 A 
ATOM      6  N   UNL     1      -1.248  11.101  20.141  0.00  0.00    +0.000 N 
ENDROOT
BRANCH   6   7
ATOM      7  C   UNL     1      -1.820  10.941  18.841  0.00  0.00    +0.000 A 
ATOM      8  C   UNL     1      -2.519   9.774  18.471  0.00  0.00    +0.000 A 
ATOM      9  C   UNL     1      -2.910   9.547  17.146  0.00  0.00    +0.000 A 
ATOM     10  C   UNL     1      -2.684  10.523  16.182  0.00  0.00    +0.000 A 
ATOM     11 CL   UNL     1      -3.122  10.232  14.546  0.00  0.00    +0.000 Cl
ATOM     12  C   UNL     1      -2.092  11.729  16.538  0.00  0.00    +0.000 A 
ATOM     13  C   UNL     1      -1.658  11.930  17.853  0.00  0.00    +0.000 A 
ENDBRANCH   6   7
BRANCH   5  14
ATOM     14  C   UNL     1       0.902   9.679  19.758  0.00  0.00    +0.000 A 
ATOM     15  C   UNL     1       1.351   8.441  20.241  0.00  0.00    +0.000 A 
ATOM     16  C   UNL     1       2.180   7.633  19.459  0.00  0.00    +0.000 A 
ATOM     17  C   UNL     1       2.558   8.051  18.184  0.00  0.00    +0.000 A 
ATOM     18  C   UNL     1       2.158   9.302  17.717  0.00  0.00    +0.000 A 
ATOM     19  C   UNL     1       1.368  10.131  18.517  0.00  0.00    +0.000 A 
ENDBRANCH   5  14
BRANCH   1  22
ATOM     20  C   UNL     1      -5.069  13.425  23.880  0.00  0.00    +0.000 C 
ATOM     21  N   UNL     1      -4.307  12.745  22.856  0.00  0.00    +0.000 NA
ATOM     22  C   UNL     1      -3.520  13.327  22.024  0.00  0.00    +0.000 C 
BRANCH  22  23
ATOM     23  C   UNL     1      -3.047  14.758  22.064  0.00  0.00    +0.000 A 
ATOM     24  C   UNL     1      -3.653  15.757  21.289  0.00  0.00    +0.000 A 
ATOM     25  C   UNL     1      -3.229  17.088  21.375  0.00  0.00    +0.000 A 
ATOM     26  C   UNL     1      -2.224  17.444  22.268  0.00  0.00    +0.000 A 
ATOM     27  C   UNL     1      -1.642  16.470  23.078  0.00  0.00    +0.000 A 
ATOM     28  C   UNL     1      -2.048  15.132  22.975  0.00  0.00    +0.000 A 
ENDBRANCH  22  23
ENDBRANCH   1  22
TORSDOF 4
ENDMDL
MODEL 7
REMARK VINA RESULT:      -6.2      1.130      2.644
REMARK  Name = 
REMARK  5 active torsions:
REMARK  status: ('A' for Active; 'I' for Inactive)
REMARK    1  A    between atoms: C_1  and  N_2
REMARK    2  A    between atoms: C_3  and  N_4
REMARK    3  A    between atoms: C_3  and  C_23
REMARK    4  A    between atoms: C_8  and  C_9
REMARK    5  A    between atoms: N_15  and  C_16
REMARK                            x       y       z     vdW  Elec       q    Type
REMARK                         _______ _______ _______ _____ _____    ______ ____
ROOT
ATOM      1  N   UNL     1      -2.828  12.981  20.844  0.00  0.00    +0.000 NA
ATOM      2  C   UNL     1      -1.798  12.211  21.020  0.00  0.00    +0.000 A 
ATOM      3  S   UNL     1      -0.854  11.997  22.520  0.00  0.00    +0.000 S 
ATOM      4  N   UNL     1       0.257  10.903  21.853  0.00  0.00    +0.000 NA
ATOM      5  C   UNL     1      -0.061  10.675  20.596  0.00  0.00    +0.000 A 
ATOM      6  N   UNL     1      -1.210  11.327  20.102  0.00  0.00    +0.000 N 
ENDROOT
BRANCH   6   7
ATOM      7  C   UNL     1      -1.817  11.067  18.835  0.00  0.00    +0.000 A 
ATOM      8  C   UNL     1      -2.555   9.891  18.588  0.00  0.00    +0.000 A 
ATOM      9  C   UNL     1      -2.984   9.557  17.298  0.00  0.00    +0.000 A 
ATOM     10  C   UNL     1      -2.756  10.435  16.245  0.00  0.00    +0.000 A 
ATOM     11 CL   UNL     1      -3.242  10.010  14.651  0.00  0.00    +0.000 Cl
ATOM     12  C   UNL     1      -2.124  11.651  16.476  0.00  0.00    +0.000 A 
ATOM     13  C   UNL     1      -1.653  11.957  17.758  0.00  0.00    +0.000 A 
ENDBRANCH   6   7
BRANCH   5  14
ATOM     14  C   UNL     1       0.856   9.761  19.831  0.00  0.00    +0.000 A 
ATOM     15  C   UNL     1       1.248   8.555  20.431  0.00  0.00    +0.000 A 
ATOM     16  C   UNL     1       2.017   7.629  19.721  0.00  0.00    +0.000 A 
ATOM     17  C   UNL     1       2.391   7.896  18.405  0.00  0.00    +0.000 A 
ATOM     18  C   UNL     1       2.049   9.114  17.821  0.00  0.00    +0.000 A 
ATOM     19  C   UNL     1       1.320  10.061  18.545  0.00  0.00    +0.000 A 
ENDBRANCH   5  14
BRANCH   1  22
ATOM     20  C   UNL     1      -4.781  14.204  23.682  0.00  0.00    +0.000 C 
ATOM     21  N   UNL     1      -4.080  13.389  22.713  0.00  0.00    +0.000 NA
ATOM     22  C   UNL     1      -3.323  13.850  21.784  0.00  0.00    +0.000 C 
BRANCH  22  23
ATOM     23  C   UNL     1      -2.824  15.265  21.631  0.00  0.00    +0.000 A 
ATOM     24  C   UNL     1      -1.657  15.709  22.269  0.00  0.00    +0.000 A 
ATOM     25  C   UNL     1      -1.187  17.013  22.078  0.00  0.00    +0.000 A 
ATOM     26  C   UNL     1      -1.852  17.875  21.213  0.00  0.00    +0.000 A 
ATOM     27  C   UNL     1      -2.989  17.434  20.537  0.00  0.00    +0.000 A 
ATOM     28  C   UNL     1      -3.475  16.137  20.747  0.00  0.00    +0.000 A 
ENDBRANCH  22  23
ENDBRANCH   1  22
TORSDOF 4
ENDMDL
MODEL 8
REMARK VINA RESULT:      -6.2      1.169      2.710
REMARK  Name = 
REMARK  5 active torsions:
REMARK  status: ('A' for Active; 'I' for Inactive)
REMARK    1  A    between atoms: C_1  and  N_2
REMARK    2  A    between atoms: C_3  and  N_4
REMARK    3  A    between atoms: C_3  and  C_23
REMARK    4  A    between atoms: C_8  and  C_9
REMARK    5  A    between atoms: N_15  and  C_16
REMARK                            x       y       z     vdW  Elec       q    Type
REMARK                         _______ _______ _______ _____ _____    ______ ____
ROOT
ATOM      1  N   UNL     1      -2.582  12.329  21.125  0.00  0.00    +0.000 NA
ATOM      2  C   UNL     1      -1.581  11.511  21.241  0.00  0.00    +0.000 A 
ATOM      3  S   UNL     1      -0.745  11.037  22.746  0.00  0.00    +0.000 S 
ATOM      4  N   UNL     1       0.389  10.030  21.986  0.00  0.00    +0.000 NA
ATOM      5  C   UNL     1       0.152  10.012  20.691  0.00  0.00    +0.000 A 
ATOM      6  N   UNL     1      -0.948  10.766  20.235  0.00  0.00    +0.000 N 
ENDROOT
BRANCH   6   7
ATOM      7  C   UNL     1      -1.473  10.725  18.906  0.00  0.00    +0.000 A 
ATOM      8  C   UNL     1      -1.315  11.800  18.008  0.00  0.00    +0.000 A 
ATOM      9  C   UNL     1      -1.990  11.831  16.782  0.00  0.00    +0.000 A 
ATOM     10  C   UNL     1      -2.769  10.747  16.394  0.00  0.00    +0.000 A 
ATOM     11 CL   UNL     1      -3.635  10.798  14.910  0.00  0.00    +0.000 Cl
ATOM     12  C   UNL     1      -2.861   9.628  17.212  0.00  0.00    +0.000 A 
ATOM     13  C   UNL     1      -2.224   9.623  18.459  0.00  0.00    +0.000 A 
ENDBRANCH   6   7
BRANCH   5  14
ATOM     14  C   UNL     1       1.102   9.203  19.852  0.00  0.00    +0.000 A 
ATOM     15  C   UNL     1       1.585   7.992  20.369  0.00  0.00    +0.000 A 
ATOM     16  C   UNL     1       2.389   7.158  19.587  0.00  0.00    +0.000 A 
ATOM     17  C   UNL     1       2.708   7.524  18.280  0.00  0.00    +0.000 A 
ATOM     18  C   UNL     1       2.276   8.750  17.778  0.00  0.00    +0.000 A 
ATOM     19  C   UNL     1       1.510   9.606  18.574  0.00  0.00    +0.000 A 
ENDBRANCH   5  14
BRANCH   1  22
ATOM     20  C   UNL     1      -4.830  13.230  23.863  0.00  0.00    +0.000 C 
ATOM     21  N   UNL     1      -4.076  12.532  22.844  0.00  0.00    +0.000 NA
ATOM     22  C   UNL     1      -3.123  13.053  22.157  0.00  0.00    +0.000 C 
BRANCH  22  23
ATOM     23  C   UNL     1      -2.444  14.378  22.397  0.00  0.00    +0.000 A 
ATOM     24  C   UNL     1      -1.588  14.582  23.488  0.00  0.00    +0.000 A 
ATOM     25  C   UNL     1      -0.932  15.804  23.667  0.00  0.00    +0.000 A 
ATOM     26  C   UNL     1      -1.089  16.824  22.733  0.00  0.00    +0.000 A 
ATOM     27  C   UNL     1      -1.902  16.622  21.620  0.00  0.00    +0.000 A 
ATOM     28  C   UNL     1      -2.580  15.406  21.453  0.00  0.00    +0.000 A 
ENDBRANCH  22  23
ENDBRANCH   1  22
TORSDOF 4
ENDMDL
MODEL 9
REMARK VINA RESULT:      -6.2      4.197      7.240
REMARK  Name = 
REMARK  5 active torsions:
REMARK  status: ('A' for Active; 'I' for Inactive)
REMARK    1  A    between atoms: C_1  and  N_2
REMARK    2  A    between atoms: C_3  and  N_4
REMARK    3  A    between atoms: C_3  and  C_23
REMARK    4  A    between atoms: C_8  and  C_9
REMARK    5  A    between atoms: N_15  and  C_16
REMARK                            x       y       z     vdW  Elec       q    Type
REMARK                         _______ _______ _______ _____ _____    ______ ____
ROOT
ATOM      1  N   UNL     1       2.358  13.219  20.975  0.00  0.00    +0.000 NA
ATOM      2  C   UNL     1       1.309  13.244  20.209  0.00  0.00    +0.000 A 
ATOM      3  S   UNL     1       0.582  14.672  19.422  0.00  0.00    +0.000 S 
ATOM      4  N   UNL     1      -0.694  13.820  18.698  0.00  0.00    +0.000 NA
ATOM      5  C   UNL     1      -0.581  12.542  18.989  0.00  0.00    +0.000 A 
ATOM      6  N   UNL     1       0.529  12.163  19.772  0.00  0.00    +0.000 N 
ENDROOT
BRANCH   6   7
ATOM      7  C   UNL     1       0.923  10.814  20.034  0.00  0.00    +0.000 A 
ATOM      8  C   UNL     1       1.565  10.022  19.062  0.00  0.00    +0.000 A 
ATOM      9  C   UNL     1       1.777   8.652  19.261  0.00  0.00    +0.000 A 
ATOM     10  C   UNL     1       1.427   8.067  20.472  0.00  0.00    +0.000 A 
ATOM     11 CL   UNL     1       1.643   6.378  20.705  0.00  0.00    +0.000 Cl
ATOM     12  C   UNL     1       0.887   8.845  21.490  0.00  0.00    +0.000 A 
ATOM     13  C   UNL     1       0.632  10.202  21.268  0.00  0.00    +0.000 A 
ENDBRANCH   6   7
BRANCH   5  14
ATOM     14  C   UNL     1      -1.666  11.641  18.467  0.00  0.00    +0.000 A 
ATOM     15  C   UNL     1      -2.988  11.887  18.866  0.00  0.00    +0.000 A 
ATOM     16  C   UNL     1      -4.041  11.141  18.330  0.00  0.00    +0.000 A 
ATOM     17  C   UNL     1      -3.782  10.151  17.384  0.00  0.00    +0.000 A 
ATOM     18  C   UNL     1      -2.467   9.865  17.022  0.00  0.00    +0.000 A 
ATOM     19  C   UNL     1      -1.409  10.579  17.592  0.00  0.00    +0.000 A 
ENDBRANCH   5  14
BRANCH   1  22
ATOM     20  C   UNL     1       3.155  16.243  22.867  0.00  0.00    +0.000 C 
ATOM     21  N   UNL     1       2.613  14.983  22.407  0.00  0.00    +0.000 NA
ATOM     22  C   UNL     1       3.048  14.330  21.390  0.00  0.00    +0.000 C 
BRANCH  22  23
ATOM     23  C   UNL     1       4.312  14.590  20.611  0.00  0.00    +0.000 A 
ATOM     24  C   UNL     1       4.283  14.946  19.255  0.00  0.00    +0.000 A 
ATOM     25  C   UNL     1       5.465  15.227  18.561  0.00  0.00    +0.000 A 
ATOM     26  C   UNL     1       6.687  15.201  19.226  0.00  0.00    +0.000 A 
ATOM     27  C   UNL     1       6.729  14.893  20.584  0.00  0.00    +0.000 A 
ATOM     28  C   UNL     1       5.548  14.585  21.274  0.00  0.00    +0.000 A 
ENDBRANCH  22  23
ENDBRANCH   1  22
TORSDOF 4
ENDMDL
