MODEL 1
REMARK VINA RESULT:      -8.4      0.000      0.000
REMARK  Name = 
REMARK  6 active torsions:
REMARK  status: ('A' for Active; 'I' for Inactive)
REMARK    1  A    between atoms: C_1  and  N_2
REMARK    2  A    between atoms: N_2  and  C_3
REMARK    3  A    between atoms: N_2  and  C_4
REMARK    4  A    between atoms: C_8  and  C_9
REMARK    5  A    between atoms: C_15  and  C_16
REMARK    6  A    between atoms: N_18  and  C_19
REMARK                            x       y       z     vdW  Elec       q    Type
REMARK                         _______ _______ _______ _____ _____    ______ ____
ROOT
ATOM      1  C   UNL     1       3.337   4.096  18.542  0.00  0.00    +0.000 A 
ATOM      2  C   UNL     1       3.097   2.773  18.647  0.00  0.00    +0.000 A 
ATOM      3  C   UNL     1       2.020   2.307  19.505  0.00  0.00    +0.000 A 
ATOM      4  C   UNL     1       1.269   3.165  20.220  0.00  0.00    +0.000 A 
ATOM      5  C   UNL     1       1.530   4.565  20.145  0.00  0.00    +0.000 A 
ATOM      6  C   UNL     1       1.008   5.674  20.777  0.00  0.00    +0.000 A 
ATOM      7  C   UNL     1       1.695   6.838  20.303  0.00  0.00    +0.000 A 
ATOM      8  C   UNL     1       2.590   6.375  19.349  0.00  0.00    +0.000 A 
ATOM      9  N   UNL     1       2.540   4.990  19.289  0.00  0.00    +0.000 N 
ENDROOT
BRANCH   1  14
ATOM     10  C   UNL     1       6.553   5.784  17.418  0.00  0.00    +0.000 A 
ATOM     11  C   UNL     1       6.498   5.455  16.052  0.00  0.00    +0.000 A 
ATOM     12  C   UNL     1       5.466   4.678  15.509  0.00  0.00    +0.000 A 
ATOM     13  C   UNL     1       4.434   4.225  16.322  0.00  0.00    +0.000 A 
ATOM     14  C   UNL     1       4.433   4.553  17.676  0.00  0.00    +0.000 A 
ATOM     15  C   UNL     1       5.486   5.318  18.209  0.00  0.00    +0.000 A 
BRANCH  10  17
ATOM     16  C   UNL     1       8.189   6.172  19.235  0.00  0.00    +0.000 C 
ATOM     17  N   UNL     1       7.588   6.549  17.961  0.00  0.00    +0.000 N 
ATOM     18  C   UNL     1       7.715   7.947  17.558  0.00  0.00    +0.000 C 
ENDBRANCH  10  17
ENDBRANCH   1  14
BRANCH   7  19
ATOM     19  C   UNL     1       1.474   8.213  20.768  0.00  0.00    +0.000 C 
ATOM     20  O   UNL     1       1.591   8.524  21.953  0.00  0.00    +0.000 OA
ATOM     21  N   UNL     1       1.144   9.134  19.796  0.00  0.00    +0.000 N 
ATOM     22  H   UNL     1       0.919   8.787  18.875  0.00  0.00    +0.000 HD
BRANCH  21  23
ATOM     23  C   UNL     1       0.857  10.536  20.104  0.00  0.00    +0.000 C 
ATOM     24  C   UNL     1       1.235  11.531  18.964  0.00  0.00    +0.000 C 
ATOM     25  N   UNL     1       0.096  12.408  18.568  0.00  0.00    +0.000 NA
ATOM     26  C   UNL     1      -0.999  11.553  18.068  0.00  0.00    +0.000 C 
ATOM     27  C   UNL     1      -1.468  10.554  19.137  0.00  0.00    +0.000 C 
ATOM     28  C   UNL     1      -0.643  10.743  20.427  0.00  0.00    +0.000 C 
ATOM     29  C   UNL     1      -0.824  12.203  20.878  0.00  0.00    +0.000 C 
ATOM     30  C   UNL     1      -0.388  13.152  19.750  0.00  0.00    +0.000 C 
ENDBRANCH  21  23
ENDBRANCH   7  19
TORSDOF 4
ENDMDL
MODEL 2
REMARK VINA RESULT:      -8.3      2.754      8.235
REMARK  Name = 
REMARK  6 active torsions:
REMARK  status: ('A' for Active; 'I' for Inactive)
REMARK    1  A    between atoms: C_1  and  N_2
REMARK    2  A    between atoms: N_2  and  C_3
REMARK    3  A    between atoms: N_2  and  C_4
REMARK    4  A    between atoms: C_8  and  C_9
REMARK    5  A    between atoms: C_15  and  C_16
REMARK    6  A    between atoms: N_18  and  C_19
REMARK                            x       y       z     vdW  Elec       q    Type
REMARK                         _______ _______ _______ _____ _____    ______ ____
ROOT
ATOM      1  C   UNL     1       0.157  11.525  21.236  0.00  0.00    +0.000 A 
ATOM      2  C   UNL     1      -0.649  11.751  22.294  0.00  0.00    +0.000 A 
ATOM      3  C   UNL     1      -0.998  10.648  23.175  0.00  0.00    +0.000 A 
ATOM      4  C   UNL     1      -0.557   9.398  22.945  0.00  0.00    +0.000 A 
ATOM      5  C   UNL     1       0.271   9.137  21.814  0.00  0.00    +0.000 A 
ATOM      6  C   UNL     1       0.823   7.995  21.273  0.00  0.00    +0.000 A 
ATOM      7  C   UNL     1       1.556   8.355  20.095  0.00  0.00    +0.000 A 
ATOM      8  C   UNL     1       1.452   9.735  20.003  0.00  0.00    +0.000 A 
ATOM      9  N   UNL     1       0.623  10.213  21.008  0.00  0.00    +0.000 N 
ENDROOT
BRANCH   1  14
ATOM     10  C   UNL     1       2.186  14.223  19.486  0.00  0.00    +0.000 A 
ATOM     11  C   UNL     1       1.159  14.790  18.710  0.00  0.00    +0.000 A 
ATOM     12  C   UNL     1      -0.152  14.294  18.725  0.00  0.00    +0.000 A 
ATOM     13  C   UNL     1      -0.482  13.221  19.543  0.00  0.00    +0.000 A 
ATOM     14  C   UNL     1       0.498  12.648  20.351  0.00  0.00    +0.000 A 
ATOM     15  C   UNL     1       1.813  13.145  20.312  0.00  0.00    +0.000 A 
BRANCH  10  17
ATOM     16  C   UNL     1       4.258  14.709  18.220  0.00  0.00    +0.000 C 
ATOM     17  N   UNL     1       3.494  14.711  19.464  0.00  0.00    +0.000 N 
ATOM     18  C   UNL     1       4.258  14.734  20.708  0.00  0.00    +0.000 C 
ENDBRANCH  10  17
ENDBRANCH   1  14
BRANCH   7  19
ATOM     19  C   UNL     1       2.248   7.421  19.198  0.00  0.00    +0.000 C 
ATOM     20  O   UNL     1       2.754   7.792  18.140  0.00  0.00    +0.000 OA
ATOM     21  N   UNL     1       2.308   6.109  19.620  0.00  0.00    +0.000 N 
ATOM     22  H   UNL     1       1.748   5.845  20.418  0.00  0.00    +0.000 HD
BRANCH  21  23
ATOM     23  C   UNL     1       2.931   5.052  18.822  0.00  0.00    +0.000 C 
ATOM     24  C   UNL     1       3.822   4.071  19.644  0.00  0.00    +0.000 C 
ATOM     25  N   UNL     1       3.442   2.644  19.442  0.00  0.00    +0.000 NA
ATOM     26  C   UNL     1       2.047   2.465  19.894  0.00  0.00    +0.000 C 
ATOM     27  C   UNL     1       1.081   3.369  19.114  0.00  0.00    +0.000 C 
ATOM     28  C   UNL     1       1.865   4.207  18.084  0.00  0.00    +0.000 C 
ATOM     29  C   UNL     1       2.608   3.223  17.162  0.00  0.00    +0.000 C 
ATOM     30  C   UNL     1       3.518   2.313  18.004  0.00  0.00    +0.000 C 
ENDBRANCH  21  23
ENDBRANCH   7  19
TORSDOF 4
ENDMDL
MODEL 3
REMARK VINA RESULT:      -8.2      1.112      1.974
REMARK  Name = 
REMARK  6 active torsions:
REMARK  status: ('A' for Active; 'I' for Inactive)
REMARK    1  A    between atoms: C_1  and  N_2
REMARK    2  A    between atoms: N_2  and  C_3
REMARK    3  A    between atoms: N_2  and  C_4
REMARK    4  A    between atoms: C_8  and  C_9
REMARK    5  A    between atoms: C_15  and  C_16
REMARK    6  A    between atoms: N_18  and  C_19
REMARK                            x       y       z     vdW  Elec       q    Type
REMARK                         _______ _______ _______ _____ _____    ______ ____
ROOT
ATOM      1  C   UNL     1       3.654   3.865  18.573  0.00  0.00    +0.000 A 
ATOM      2  C   UNL     1       3.345   2.552  18.572  0.00  0.00    +0.000 A 
ATOM      3  C   UNL     1       2.121   2.105  19.218  0.00  0.00    +0.000 A 
ATOM      4  C   UNL     1       1.300   2.969  19.842  0.00  0.00    +0.000 A 
ATOM      5  C   UNL     1       1.629   4.356  19.880  0.00  0.00    +0.000 A 
ATOM      6  C   UNL     1       1.056   5.462  20.472  0.00  0.00    +0.000 A 
ATOM      7  C   UNL     1       1.862   6.609  20.174  0.00  0.00    +0.000 A 
ATOM      8  C   UNL     1       2.882   6.142  19.358  0.00  0.00    +0.000 A 
ATOM      9  N   UNL     1       2.783   4.765  19.223  0.00  0.00    +0.000 N 
ENDROOT
BRANCH   1  14
ATOM     10  C   UNL     1       6.169   4.707  15.848  0.00  0.00    +0.000 A 
ATOM     11  C   UNL     1       7.246   5.092  16.666  0.00  0.00    +0.000 A 
ATOM     12  C   UNL     1       7.156   5.111  18.064  0.00  0.00    +0.000 A 
ATOM     13  C   UNL     1       5.980   4.719  18.692  0.00  0.00    +0.000 A 
ATOM     14  C   UNL     1       4.897   4.301  17.921  0.00  0.00    +0.000 A 
ATOM     15  C   UNL     1       4.997   4.304  16.518  0.00  0.00    +0.000 A 
BRANCH  10  17
ATOM     16  C   UNL     1       5.387   3.825  13.671  0.00  0.00    +0.000 C 
ATOM     17  N   UNL     1       6.256   4.697  14.454  0.00  0.00    +0.000 N 
ATOM     18  C   UNL     1       7.500   5.130  13.823  0.00  0.00    +0.000 C 
ENDBRANCH  10  17
ENDBRANCH   1  14
BRANCH   7  19
ATOM     19  C   UNL     1       1.625   7.973  20.664  0.00  0.00    +0.000 C 
ATOM     20  O   UNL     1       1.752   8.267  21.852  0.00  0.00    +0.000 OA
ATOM     21  N   UNL     1       1.269   8.904  19.711  0.00  0.00    +0.000 N 
ATOM     22  H   UNL     1       1.038   8.568  18.788  0.00  0.00    +0.000 HD
BRANCH  21  23
ATOM     23  C   UNL     1       0.964  10.297  20.045  0.00  0.00    +0.000 C 
ATOM     24  C   UNL     1       1.275  11.311  18.902  0.00  0.00    +0.000 C 
ATOM     25  N   UNL     1       0.102  12.166  18.560  0.00  0.00    +0.000 NA
ATOM     26  C   UNL     1      -0.993  11.292  18.095  0.00  0.00    +0.000 C 
ATOM     27  C   UNL     1      -1.397  10.273  19.171  0.00  0.00    +0.000 C 
ATOM     28  C   UNL     1      -0.526  10.467  20.429  0.00  0.00    +0.000 C 
ATOM     29  C   UNL     1      -0.721  11.918  20.903  0.00  0.00    +0.000 C 
ATOM     30  C   UNL     1      -0.351  12.887  19.768  0.00  0.00    +0.000 C 
ENDBRANCH  21  23
ENDBRANCH   7  19
TORSDOF 4
ENDMDL
MODEL 4
REMARK VINA RESULT:      -7.9      2.808      9.425
REMARK  Name = 
REMARK  6 active torsions:
REMARK  status: ('A' for Active; 'I' for Inactive)
REMARK    1  A    between atoms: C_1  and  N_2
REMARK    2  A    between atoms: N_2  and  C_3
REMARK    3  A    between atoms: N_2  and  C_4
REMARK    4  A    between atoms: C_8  and  C_9
REMARK    5  A    between atoms: C_15  and  C_16
REMARK    6  A    between atoms: N_18  and  C_19
REMARK                            x       y       z     vdW  Elec       q    Type
REMARK                         _______ _______ _______ _____ _____    ______ ____
ROOT
ATOM      1  C   UNL     1      -1.637  11.453  19.524  0.00  0.00    +0.000 A 
ATOM      2  C   UNL     1      -1.939  12.182  20.617  0.00  0.00    +0.000 A 
ATOM      3  C   UNL     1      -1.009  12.215  21.734  0.00  0.00    +0.000 A 
ATOM      4  C   UNL     1       0.138  11.512  21.715  0.00  0.00    +0.000 A 
ATOM      5  C   UNL     1       0.458  10.711  20.579  0.00  0.00    +0.000 A 
ATOM      6  C   UNL     1       1.488   9.846  20.274  0.00  0.00    +0.000 A 
ATOM      7  C   UNL     1       1.258   9.304  18.968  0.00  0.00    +0.000 A 
ATOM      8  C   UNL     1       0.099   9.915  18.513  0.00  0.00    +0.000 A 
ATOM      9  N   UNL     1      -0.427  10.726  19.508  0.00  0.00    +0.000 N 
ENDROOT
BRANCH   1  14
ATOM     10  C   UNL     1      -4.889  11.741  17.575  0.00  0.00    +0.000 A 
ATOM     11  C   UNL     1      -4.414  11.348  16.311  0.00  0.00    +0.000 A 
ATOM     12  C   UNL     1      -3.069  11.030  16.083  0.00  0.00    +0.000 A 
ATOM     13  C   UNL     1      -2.155  11.071  17.129  0.00  0.00    +0.000 A 
ATOM     14  C   UNL     1      -2.589  11.425  18.404  0.00  0.00    +0.000 A 
ATOM     15  C   UNL     1      -3.939  11.760  18.614  0.00  0.00    +0.000 A 
BRANCH  10  17
ATOM     16  C   UNL     1      -7.106  11.131  18.495  0.00  0.00    +0.000 C 
ATOM     17  N   UNL     1      -6.228  12.068  17.801  0.00  0.00    +0.000 N 
ATOM     18  C   UNL     1      -6.868  13.054  16.934  0.00  0.00    +0.000 C 
ENDBRANCH  10  17
ENDBRANCH   1  14
BRANCH   7  19
ATOM     19  C   UNL     1       2.096   8.302  18.297  0.00  0.00    +0.000 C 
ATOM     20  O   UNL     1       2.650   8.533  17.223  0.00  0.00    +0.000 OA
ATOM     21  N   UNL     1       2.237   7.096  18.951  0.00  0.00    +0.000 N 
ATOM     22  H   UNL     1       1.641   6.920  19.747  0.00  0.00    +0.000 HD
BRANCH  21  23
ATOM     23  C   UNL     1       3.010   5.983  18.396  0.00  0.00    +0.000 C 
ATOM     24  C   UNL     1       4.104   5.423  19.356  0.00  0.00    +0.000 C 
ATOM     25  N   UNL     1       3.988   3.951  19.561  0.00  0.00    +0.000 NA
ATOM     26  C   UNL     1       2.673   3.668  20.170  0.00  0.00    +0.000 C 
ATOM     27  C   UNL     1       1.521   4.155  19.278  0.00  0.00    +0.000 C 
ATOM     28  C   UNL     1       2.088   4.805  17.999  0.00  0.00    +0.000 C 
ATOM     29  C   UNL     1       2.960   3.750  17.296  0.00  0.00    +0.000 C 
ATOM     30  C   UNL     1       4.060   3.264  18.254  0.00  0.00    +0.000 C 
ENDBRANCH  21  23
ENDBRANCH   7  19
TORSDOF 4
ENDMDL
MODEL 5
REMARK VINA RESULT:      -7.9      2.633      8.628
REMARK  Name = 
REMARK  6 active torsions:
REMARK  status: ('A' for Active; 'I' for Inactive)
REMARK    1  A    between atoms: C_1  and  N_2
REMARK    2  A    between atoms: N_2  and  C_3
REMARK    3  A    between atoms: N_2  and  C_4
REMARK    4  A    between atoms: C_8  and  C_9
REMARK    5  A    between atoms: C_15  and  C_16
REMARK    6  A    between atoms: N_18  and  C_19
REMARK                            x       y       z     vdW  Elec       q    Type
REMARK                         _______ _______ _______ _____ _____    ______ ____
ROOT
ATOM      1  C   UNL     1      -0.471  10.727  20.851  0.00  0.00    +0.000 A 
ATOM      2  C   UNL     1      -1.041  11.143  22.000  0.00  0.00    +0.000 A 
ATOM      3  C   UNL     1      -0.730  10.455  23.242  0.00  0.00    +0.000 A 
ATOM      4  C   UNL     1       0.096   9.393  23.270  0.00  0.00    +0.000 A 
ATOM      5  C   UNL     1       0.682   8.921  22.059  0.00  0.00    +0.000 A 
ATOM      6  C   UNL     1       1.494   7.853  21.739  0.00  0.00    +0.000 A 
ATOM      7  C   UNL     1       1.746   7.877  20.328  0.00  0.00    +0.000 A 
ATOM      8  C   UNL     1       1.099   9.010  19.856  0.00  0.00    +0.000 A 
ATOM      9  N   UNL     1       0.400   9.617  20.890  0.00  0.00    +0.000 N 
ENDROOT
BRANCH   1  14
ATOM     10  C   UNL     1      -2.160  11.571  17.551  0.00  0.00    +0.000 A 
ATOM     11  C   UNL     1      -1.416  12.717  17.219  0.00  0.00    +0.000 A 
ATOM     12  C   UNL     1      -0.413  13.227  18.055  0.00  0.00    +0.000 A 
ATOM     13  C   UNL     1      -0.107  12.584  19.247  0.00  0.00    +0.000 A 
ATOM     14  C   UNL     1      -0.799  11.428  19.601  0.00  0.00    +0.000 A 
ATOM     15  C   UNL     1      -1.815  10.938  18.760  0.00  0.00    +0.000 A 
BRANCH  10  17
ATOM     16  C   UNL     1      -2.871  10.724  15.335  0.00  0.00    +0.000 C 
ATOM     17  N   UNL     1      -3.166  11.069  16.722  0.00  0.00    +0.000 N 
ATOM     18  C   UNL     1      -4.559  11.363  17.048  0.00  0.00    +0.000 C 
ENDBRANCH  10  17
ENDBRANCH   1  14
BRANCH   7  19
ATOM     19  C   UNL     1       2.522   6.880  19.580  0.00  0.00    +0.000 C 
ATOM     20  O   UNL     1       3.123   7.169  18.546  0.00  0.00    +0.000 OA
ATOM     21  N   UNL     1       2.549   5.609  20.114  0.00  0.00    +0.000 N 
ATOM     22  H   UNL     1       1.918   5.405  20.876  0.00  0.00    +0.000 HD
BRANCH  21  23
ATOM     23  C   UNL     1       3.248   4.496  19.469  0.00  0.00    +0.000 C 
ATOM     24  C   UNL     1       3.140   3.143  20.235  0.00  0.00    +0.000 C 
ATOM     25  N   UNL     1       2.634   2.035  19.373  0.00  0.00    +0.000 NA
ATOM     26  C   UNL     1       1.280   2.392  18.903  0.00  0.00    +0.000 C 
ATOM     27  C   UNL     1       1.288   3.703  18.102  0.00  0.00    +0.000 C 
ATOM     28  C   UNL     1       2.723   4.264  18.031  0.00  0.00    +0.000 C 
ATOM     29  C   UNL     1       3.606   3.184  17.382  0.00  0.00    +0.000 C 
ATOM     30  C   UNL     1       3.517   1.884  18.197  0.00  0.00    +0.000 C 
ENDBRANCH  21  23
ENDBRANCH   7  19
TORSDOF 4
ENDMDL
MODEL 6
REMARK VINA RESULT:      -7.9      2.635      8.623
REMARK  Name = 
REMARK  6 active torsions:
REMARK  status: ('A' for Active; 'I' for Inactive)
REMARK    1  A    between atoms: C_1  and  N_2
REMARK    2  A    between atoms: N_2  and  C_3
REMARK    3  A    between atoms: N_2  and  C_4
REMARK    4  A    between atoms: C_8  and  C_9
REMARK    5  A    between atoms: C_15  and  C_16
REMARK    6  A    between atoms: N_18  and  C_19
REMARK                            x       y       z     vdW  Elec       q    Type
REMARK                         _______ _______ _______ _____ _____    ______ ____
ROOT
ATOM      1  C   UNL     1      -0.131  11.615  21.306  0.00  0.00    +0.000 A 
ATOM      2  C   UNL     1      -0.900  11.785  22.401  0.00  0.00    +0.000 A 
ATOM      3  C   UNL     1      -1.131  10.661  23.294  0.00  0.00    +0.000 A 
ATOM      4  C   UNL     1      -0.614   9.444  23.041  0.00  0.00    +0.000 A 
ATOM      5  C   UNL     1       0.175   9.240  21.872  0.00  0.00    +0.000 A 
ATOM      6  C   UNL     1       0.779   8.139  21.302  0.00  0.00    +0.000 A 
ATOM      7  C   UNL     1       1.430   8.549  20.092  0.00  0.00    +0.000 A 
ATOM      8  C   UNL     1       1.225   9.919  20.009  0.00  0.00    +0.000 A 
ATOM      9  N   UNL     1       0.414  10.338  21.053  0.00  0.00    +0.000 N 
ENDROOT
BRANCH   1  14
ATOM     10  C   UNL     1       1.063  14.991  20.028  0.00  0.00    +0.000 A 
ATOM     11  C   UNL     1       0.492  14.945  18.744  0.00  0.00    +0.000 A 
ATOM     12  C   UNL     1      -0.235  13.837  18.286  0.00  0.00    +0.000 A 
ATOM     13  C   UNL     1      -0.434  12.743  19.118  0.00  0.00    +0.000 A 
ATOM     14  C   UNL     1       0.089  12.758  20.409  0.00  0.00    +0.000 A 
ATOM     15  C   UNL     1       0.832  13.870  20.848  0.00  0.00    +0.000 A 
BRANCH  10  17
ATOM     16  C   UNL     1       1.252  17.438  20.350  0.00  0.00    +0.000 C 
ATOM     17  N   UNL     1       1.796  16.090  20.480  0.00  0.00    +0.000 N 
ATOM     18  C   UNL     1       3.247  15.972  20.593  0.00  0.00    +0.000 C 
ENDBRANCH  10  17
ENDBRANCH   1  14
BRANCH   7  19
ATOM     19  C   UNL     1       2.142   7.664  19.161  0.00  0.00    +0.000 C 
ATOM     20  O   UNL     1       2.560   8.067  18.076  0.00  0.00    +0.000 OA
ATOM     21  N   UNL     1       2.325   6.364  19.583  0.00  0.00    +0.000 N 
ATOM     22  H   UNL     1       1.831   6.064  20.410  0.00  0.00    +0.000 HD
BRANCH  21  23
ATOM     23  C   UNL     1       2.983   5.352  18.754  0.00  0.00    +0.000 C 
ATOM     24  C   UNL     1       3.997   4.454  19.528  0.00  0.00    +0.000 C 
ATOM     25  N   UNL     1       3.721   2.999  19.355  0.00  0.00    +0.000 NA
ATOM     26  C   UNL     1       2.374   2.713  19.888  0.00  0.00    +0.000 C 
ATOM     27  C   UNL     1       1.294   3.530  19.162  0.00  0.00    +0.000 C 
ATOM     28  C   UNL     1       1.947   4.418  18.084  0.00  0.00    +0.000 C 
ATOM     29  C   UNL     1       2.712   3.488  17.125  0.00  0.00    +0.000 C 
ATOM     30  C   UNL     1       3.739   2.661  17.916  0.00  0.00    +0.000 C 
ENDBRANCH  21  23
ENDBRANCH   7  19
TORSDOF 4
ENDMDL
MODEL 7
REMARK VINA RESULT:      -7.7      2.231      8.508
REMARK  Name = 
REMARK  6 active torsions:
REMARK  status: ('A' for Active; 'I' for Inactive)
REMARK    1  A    between atoms: C_1  and  N_2
REMARK    2  A    between atoms: N_2  and  C_3
REMARK    3  A    between atoms: N_2  and  C_4
REMARK    4  A    between atoms: C_8  and  C_9
REMARK    5  A    between atoms: C_15  and  C_16
REMARK    6  A    between atoms: N_18  and  C_19
REMARK                            x       y       z     vdW  Elec       q    Type
REMARK                         _______ _______ _______ _____ _____    ______ ____
ROOT
ATOM      1  C   UNL     1      -0.138  11.776  21.314  0.00  0.00    +0.000 A 
ATOM      2  C   UNL     1      -0.816  11.744  22.479  0.00  0.00    +0.000 A 
ATOM      3  C   UNL     1      -0.912  10.495  23.217  0.00  0.00    +0.000 A 
ATOM      4  C   UNL     1      -0.362   9.359  22.751  0.00  0.00    +0.000 A 
ATOM      5  C   UNL     1       0.332   9.369  21.505  0.00  0.00    +0.000 A 
ATOM      6  C   UNL     1       0.936   8.397  20.735  0.00  0.00    +0.000 A 
ATOM      7  C   UNL     1       1.458   9.010  19.550  0.00  0.00    +0.000 A 
ATOM      8  C   UNL     1       1.180  10.363  19.681  0.00  0.00    +0.000 A 
ATOM      9  N   UNL     1       0.444  10.582  20.836  0.00  0.00    +0.000 N 
ENDROOT
BRANCH   1  14
ATOM     10  C   UNL     1       1.317  14.710  19.383  0.00  0.00    +0.000 A 
ATOM     11  C   UNL     1       0.137  15.454  19.208  0.00  0.00    +0.000 A 
ATOM     12  C   UNL     1      -1.107  15.007  19.673  0.00  0.00    +0.000 A 
ATOM     13  C   UNL     1      -1.203  13.800  20.355  0.00  0.00    +0.000 A 
ATOM     14  C   UNL     1      -0.054  13.045  20.577  0.00  0.00    +0.000 A 
ATOM     15  C   UNL     1       1.185  13.499  20.088  0.00  0.00    +0.000 A 
BRANCH  10  17
ATOM     16  C   UNL     1       2.729  16.538  18.491  0.00  0.00    +0.000 C 
ATOM     17  N   UNL     1       2.556  15.152  18.911  0.00  0.00    +0.000 N 
ATOM     18  C   UNL     1       3.490  14.173  18.362  0.00  0.00    +0.000 C 
ENDBRANCH  10  17
ENDBRANCH   1  14
BRANCH   7  19
ATOM     19  C   UNL     1       2.127   8.309  18.447  0.00  0.00    +0.000 C 
ATOM     20  O   UNL     1       2.206   8.798  17.321  0.00  0.00    +0.000 OA
ATOM     21  N   UNL     1       2.674   7.081  18.754  0.00  0.00    +0.000 N 
ATOM     22  H   UNL     1       2.446   6.675  19.650  0.00  0.00    +0.000 HD
BRANCH  21  23
ATOM     23  C   UNL     1       3.343   6.244  17.757  0.00  0.00    +0.000 C 
ATOM     24  C   UNL     1       4.841   6.607  17.518  0.00  0.00    +0.000 C 
ATOM     25  N   UNL     1       5.746   5.432  17.673  0.00  0.00    +0.000 NA
ATOM     26  C   UNL     1       5.624   4.929  19.056  0.00  0.00    +0.000 C 
ATOM     27  C   UNL     1       4.182   4.511  19.379  0.00  0.00    +0.000 C 
ATOM     28  C   UNL     1       3.281   4.748  18.150  0.00  0.00    +0.000 C 
ATOM     29  C   UNL     1       3.872   3.936  16.984  0.00  0.00    +0.000 C 
ATOM     30  C   UNL     1       5.330   4.362  16.743  0.00  0.00    +0.000 C 
ENDBRANCH  21  23
ENDBRANCH   7  19
TORSDOF 4
ENDMDL
MODEL 8
REMARK VINA RESULT:      -7.6      1.757      2.647
REMARK  Name = 
REMARK  6 active torsions:
REMARK  status: ('A' for Active; 'I' for Inactive)
REMARK    1  A    between atoms: C_1  and  N_2
REMARK    2  A    between atoms: N_2  and  C_3
REMARK    3  A    between atoms: N_2  and  C_4
REMARK    4  A    between atoms: C_8  and  C_9
REMARK    5  A    between atoms: C_15  and  C_16
REMARK    6  A    between atoms: N_18  and  C_19
REMARK                            x       y       z     vdW  Elec       q    Type
REMARK                         _______ _______ _______ _____ _____    ______ ____
ROOT
ATOM      1  C   UNL     1       4.124   4.596  18.929  0.00  0.00    +0.000 A 
ATOM      2  C   UNL     1       3.903   3.508  19.695  0.00  0.00    +0.000 A 
ATOM      3  C   UNL     1       2.731   3.464  20.554  0.00  0.00    +0.000 A 
ATOM      4  C   UNL     1       1.872   4.497  20.624  0.00  0.00    +0.000 A 
ATOM      5  C   UNL     1       2.108   5.668  19.845  0.00  0.00    +0.000 A 
ATOM      6  C   UNL     1       1.479   6.891  19.736  0.00  0.00    +0.000 A 
ATOM      7  C   UNL     1       2.198   7.691  18.789  0.00  0.00    +0.000 A 
ATOM      8  C   UNL     1       3.223   6.881  18.323  0.00  0.00    +0.000 A 
ATOM      9  N   UNL     1       3.213   5.672  19.002  0.00  0.00    +0.000 N 
ENDROOT
BRANCH   1  14
ATOM     10  C   UNL     1       6.291   4.628  15.805  0.00  0.00    +0.000 A 
ATOM     11  C   UNL     1       7.553   4.657  16.423  0.00  0.00    +0.000 A 
ATOM     12  C   UNL     1       7.705   4.699  17.816  0.00  0.00    +0.000 A 
ATOM     13  C   UNL     1       6.585   4.687  18.639  0.00  0.00    +0.000 A 
ATOM     14  C   UNL     1       5.316   4.629  18.070  0.00  0.00    +0.000 A 
ATOM     15  C   UNL     1       5.179   4.605  16.669  0.00  0.00    +0.000 A 
BRANCH  10  17
ATOM     16  C   UNL     1       5.107   3.764  13.810  0.00  0.00    +0.000 C 
ATOM     17  N   UNL     1       6.140   4.596  14.417  0.00  0.00    +0.000 N 
ATOM     18  C   UNL     1       7.280   4.953  13.577  0.00  0.00    +0.000 C 
ENDBRANCH  10  17
ENDBRANCH   1  14
BRANCH   7  19
ATOM     19  C   UNL     1       1.884   9.080  18.428  0.00  0.00    +0.000 C 
ATOM     20  O   UNL     1       2.274   9.580  17.374  0.00  0.00    +0.000 OA
ATOM     21  N   UNL     1       1.114   9.780  19.333  0.00  0.00    +0.000 N 
ATOM     22  H   UNL     1       0.955   9.362  20.239  0.00  0.00    +0.000 HD
BRANCH  21  23
ATOM     23  C   UNL     1       0.747  11.183  19.136  0.00  0.00    +0.000 C 
ATOM     24  C   UNL     1      -0.744  11.403  18.736  0.00  0.00    +0.000 C 
ATOM     25  N   UNL     1      -1.442  12.368  19.633  0.00  0.00    +0.000 NA
ATOM     26  C   UNL     1      -1.425  11.824  21.005  0.00  0.00    +0.000 C 
ATOM     27  C   UNL     1       0.010  11.604  21.507  0.00  0.00    +0.000 C 
ATOM     28  C   UNL     1       1.016  12.016  20.413  0.00  0.00    +0.000 C 
ATOM     29  C   UNL     1       0.742  13.492  20.071  0.00  0.00    +0.000 C 
ATOM     30  C   UNL     1      -0.720  13.657  19.627  0.00  0.00    +0.000 C 
ENDBRANCH  21  23
ENDBRANCH   7  19
TORSDOF 4
ENDMDL
MODEL 9
REMARK VINA RESULT:      -7.5      2.397      8.764
REMARK  Name = 
REMARK  6 active torsions:
REMARK  status: ('A' for Active; 'I' for Inactive)
REMARK    1  A    between atoms: C_1  and  N_2
REMARK    2  A    between atoms: N_2  and  C_3
REMARK    3  A    between atoms: N_2  and  C_4
REMARK    4  A    between atoms: C_8  and  C_9
REMARK    5  A    between atoms: C_15  and  C_16
REMARK    6  A    between atoms: N_18  and  C_19
REMARK                            x       y       z     vdW  Elec       q    Type
REMARK                         _______ _______ _______ _____ _____    ______ ____
ROOT
ATOM      1  C   UNL     1      -0.084  11.694  21.372  0.00  0.00    +0.000 A 
ATOM      2  C   UNL     1      -0.771  11.662  22.532  0.00  0.00    +0.000 A 
ATOM      3  C   UNL     1      -0.891  10.408  23.258  0.00  0.00    +0.000 A 
ATOM      4  C   UNL     1      -0.355   9.268  22.785  0.00  0.00    +0.000 A 
ATOM      5  C   UNL     1       0.347   9.278  21.544  0.00  0.00    +0.000 A 
ATOM      6  C   UNL     1       0.942   8.304  20.770  0.00  0.00    +0.000 A 
ATOM      7  C   UNL     1       1.481   8.920  19.594  0.00  0.00    +0.000 A 
ATOM      8  C   UNL     1       1.223  10.276  19.736  0.00  0.00    +0.000 A 
ATOM      9  N   UNL     1       0.482  10.496  20.887  0.00  0.00    +0.000 N 
ENDROOT
BRANCH   1  14
ATOM     10  C   UNL     1       0.857  15.287  20.558  0.00  0.00    +0.000 A 
ATOM     11  C   UNL     1       0.218  15.396  19.311  0.00  0.00    +0.000 A 
ATOM     12  C   UNL     1      -0.474  14.326  18.728  0.00  0.00    +0.000 A 
ATOM     13  C   UNL     1      -0.568  13.111  19.395  0.00  0.00    +0.000 A 
ATOM     14  C   UNL     1       0.025  12.968  20.647  0.00  0.00    +0.000 A 
ATOM     15  C   UNL     1       0.731  14.046  21.211  0.00  0.00    +0.000 A 
BRANCH  10  17
ATOM     16  C   UNL     1       0.920  17.179  22.155  0.00  0.00    +0.000 C 
ATOM     17  N   UNL     1       1.555  16.351  21.135  0.00  0.00    +0.000 N 
ATOM     18  C   UNL     1       2.665  16.946  20.397  0.00  0.00    +0.000 C 
ENDBRANCH  10  17
ENDBRANCH   1  14
BRANCH   7  19
ATOM     19  C   UNL     1       2.148   8.219  18.488  0.00  0.00    +0.000 C 
ATOM     20  O   UNL     1       2.229   8.711  17.364  0.00  0.00    +0.000 OA
ATOM     21  N   UNL     1       2.688   6.987  18.793  0.00  0.00    +0.000 N 
ATOM     22  H   UNL     1       2.457   6.580  19.687  0.00  0.00    +0.000 HD
BRANCH  21  23
ATOM     23  C   UNL     1       3.353   6.149  17.793  0.00  0.00    +0.000 C 
ATOM     24  C   UNL     1       4.852   6.505  17.555  0.00  0.00    +0.000 C 
ATOM     25  N   UNL     1       5.752   5.326  17.707  0.00  0.00    +0.000 NA
ATOM     26  C   UNL     1       5.628   4.820  19.089  0.00  0.00    +0.000 C 
ATOM     27  C   UNL     1       4.183   4.408  19.410  0.00  0.00    +0.000 C 
ATOM     28  C   UNL     1       3.283   4.653  18.182  0.00  0.00    +0.000 C 
ATOM     29  C   UNL     1       3.871   3.841  17.014  0.00  0.00    +0.000 C 
ATOM     30  C   UNL     1       5.330   4.261  16.774  0.00  0.00    +0.000 C 
ENDBRANCH  21  23
ENDBRANCH   7  19
TORSDOF 4
ENDMDL
