MODEL 1
REMARK VINA RESULT:      -7.3      0.000      0.000
REMARK  Name = 
REMARK  7 active torsions:
REMARK  status: ('A' for Active; 'I' for Inactive)
REMARK    1  A    between atoms: C_1  and  C_2
REMARK    2  A    between atoms: C_4  and  C_5
REMARK    3  A    between atoms: C_5  and  O_7
REMARK    4  A    between atoms: C_8  and  O_9
REMARK    5  A    between atoms: C_18  and  C_19
REMARK    6  A    between atoms: C_23  and  C_24
REMARK    7  A    between atoms: C_23  and  O_25
REMARK                            x       y       z     vdW  Elec       q    Type
REMARK                         _______ _______ _______ _____ _____    ______ ____
ROOT
ATOM      1  C   UNL     1       0.995   4.429  17.329  0.00  0.00    +0.000 C 
ATOM      2  C   UNL     1       2.020   4.031  18.419  0.00  0.00    +0.000 C 
ATOM      3  C   UNL     1       1.862   2.509  18.724  0.00  0.00    +0.000 C 
ATOM      4  C   UNL     1       2.150   2.234  20.174  0.00  0.00    +0.000 C 
ATOM      5  C   UNL     1       1.352   2.832  21.074  0.00  0.00    +0.000 C 
ATOM      6  C   UNL     1       0.712   4.158  20.639  0.00  0.00    +0.000 C 
ATOM      7  C   UNL     1       1.800   4.825  19.757  0.00  0.00    +0.000 C 
ATOM      8  C   UNL     1       1.826   6.333  19.548  0.00  0.00    +0.000 C 
ATOM      9  C   UNL     1       3.252   6.701  19.062  0.00  0.00    +0.000 C 
ATOM     10  C   UNL     1       3.739   5.887  17.835  0.00  0.00    +0.000 C 
ATOM     11  C   UNL     1       3.467   4.351  17.966  0.00  0.00    +0.000 C 
ATOM     12  C   UNL     1       3.932   3.570  16.713  0.00  0.00    +0.000 C 
ATOM     13  C   UNL     1       5.424   3.794  16.447  0.00  0.00    +0.000 C 
ATOM     14  C   UNL     1       5.745   5.286  16.319  0.00  0.00    +0.000 C 
ATOM     15  C   UNL     1       5.057   5.805  15.022  0.00  0.00    +0.000 C 
ATOM     16  C   UNL     1       5.258   6.019  17.597  0.00  0.00    +0.000 C 
ATOM     17  C   UNL     1       5.887   7.391  17.464  0.00  0.00    +0.000 C 
ATOM     18  C   UNL     1       7.309   7.074  16.961  0.00  0.00    +0.000 C 
ATOM     19  C   UNL     1       7.264   5.657  16.319  0.00  0.00    +0.000 C 
ATOM     20  C   UNL     1       8.171   4.691  17.101  0.00  0.00    +0.000 C 
ENDROOT
BRANCH   4  21
ATOM     21  C   UNL     1       3.539   1.824  20.537  0.00  0.00    +0.000 C 
ATOM     22  O   UNL     1       3.946   1.764  21.685  0.00  0.00    +0.000 OA
BRANCH  21  23
ATOM     23  O   UNL     1       4.271   1.372  19.487  0.00  0.00    +0.000 OA
ATOM     24  H   UNL     1       5.153   1.011  19.741  0.00  0.00    +0.000 HD
ENDBRANCH  21  23
ENDBRANCH   4  21
BRANCH   5  25
ATOM     25  O   UNL     1       1.499   2.653  22.442  0.00  0.00    +0.000 OA
ATOM     26  H   UNL     1       0.624   2.387  22.802  0.00  0.00    +0.000 HD
ENDBRANCH   5  25
BRANCH  19  27
ATOM     27  O   UNL     1       7.802   5.685  14.999  0.00  0.00    +0.000 OA
ATOM     28  H   UNL     1       7.980   6.608  14.757  0.00  0.00    +0.000 HD
ENDBRANCH  19  27
TORSDOF 4
ENDMDL
MODEL 2
REMARK VINA RESULT:      -6.5      8.252     11.607
REMARK  Name = 
REMARK  7 active torsions:
REMARK  status: ('A' for Active; 'I' for Inactive)
REMARK    1  A    between atoms: C_1  and  C_2
REMARK    2  A    between atoms: C_4  and  C_5
REMARK    3  A    between atoms: C_5  and  O_7
REMARK    4  A    between atoms: C_8  and  O_9
REMARK    5  A    between atoms: C_18  and  C_19
REMARK    6  A    between atoms: C_23  and  C_24
REMARK    7  A    between atoms: C_23  and  O_25
REMARK                            x       y       z     vdW  Elec       q    Type
REMARK                         _______ _______ _______ _____ _____    ______ ____
ROOT
ATOM      1  C   UNL     1      -0.147  13.778  19.634  0.00  0.00    +0.000 C 
ATOM      2  C   UNL     1      -0.467  12.422  20.309  0.00  0.00    +0.000 C 
ATOM      3  C   UNL     1       0.801  11.931  21.073  0.00  0.00    +0.000 C 
ATOM      4  C   UNL     1       0.884  10.429  21.038  0.00  0.00    +0.000 C 
ATOM      5  C   UNL     1       0.991   9.858  19.827  0.00  0.00    +0.000 C 
ATOM      6  C   UNL     1       0.385  10.639  18.651  0.00  0.00    +0.000 C 
ATOM      7  C   UNL     1      -0.867  11.320  19.262  0.00  0.00    +0.000 C 
ATOM      8  C   UNL     1      -2.034  11.750  18.385  0.00  0.00    +0.000 C 
ATOM      9  C   UNL     1      -3.264  11.924  19.313  0.00  0.00    +0.000 C 
ATOM     10  C   UNL     1      -3.018  12.851  20.533  0.00  0.00    +0.000 C 
ATOM     11  C   UNL     1      -1.673  12.551  21.274  0.00  0.00    +0.000 C 
ATOM     12  C   UNL     1      -1.438  13.515  22.464  0.00  0.00    +0.000 C 
ATOM     13  C   UNL     1      -2.592  13.439  23.469  0.00  0.00    +0.000 C 
ATOM     14  C   UNL     1      -3.937  13.716  22.789  0.00  0.00    +0.000 C 
ATOM     15  C   UNL     1      -3.937  15.207  22.339  0.00  0.00    +0.000 C 
ATOM     16  C   UNL     1      -4.119  12.728  21.607  0.00  0.00    +0.000 C 
ATOM     17  C   UNL     1      -5.573  12.915  21.226  0.00  0.00    +0.000 C 
ATOM     18  C   UNL     1      -6.283  12.999  22.592  0.00  0.00    +0.000 C 
ATOM     19  C   UNL     1      -5.208  13.402  23.644  0.00  0.00    +0.000 C 
ATOM     20  C   UNL     1      -5.035  12.281  24.682  0.00  0.00    +0.000 C 
ENDROOT
BRANCH   4  21
ATOM     21  C   UNL     1       0.304   9.678  22.191  0.00  0.00    +0.000 C 
ATOM     22  O   UNL     1       0.445  10.015  23.354  0.00  0.00    +0.000 OA
BRANCH  21  23
ATOM     23  O   UNL     1      -0.528   8.669  21.827  0.00  0.00    +0.000 OA
ATOM     24  H   UNL     1      -1.467   8.947  21.714  0.00  0.00    +0.000 HD
ENDBRANCH  21  23
ENDBRANCH   4  21
BRANCH   5  25
ATOM     25  O   UNL     1       1.089   8.485  19.653  0.00  0.00    +0.000 OA
ATOM     26  H   UNL     1       0.382   8.067  20.193  0.00  0.00    +0.000 HD
ENDBRANCH   5  25
BRANCH  19  27
ATOM     27  O   UNL     1      -5.637  14.538  24.391  0.00  0.00    +0.000 OA
ATOM     28  H   UNL     1      -5.070  15.292  24.161  0.00  0.00    +0.000 HD
ENDBRANCH  19  27
TORSDOF 4
ENDMDL
MODEL 3
REMARK VINA RESULT:      -6.3      7.819     11.044
REMARK  Name = 
REMARK  7 active torsions:
REMARK  status: ('A' for Active; 'I' for Inactive)
REMARK    1  A    between atoms: C_1  and  C_2
REMARK    2  A    between atoms: C_4  and  C_5
REMARK    3  A    between atoms: C_5  and  O_7
REMARK    4  A    between atoms: C_8  and  O_9
REMARK    5  A    between atoms: C_18  and  C_19
REMARK    6  A    between atoms: C_23  and  C_24
REMARK    7  A    between atoms: C_23  and  O_25
REMARK                            x       y       z     vdW  Elec       q    Type
REMARK                         _______ _______ _______ _____ _____    ______ ____
ROOT
ATOM      1  C   UNL     1       0.555  12.829  19.273  0.00  0.00    +0.000 C 
ATOM      2  C   UNL     1      -0.037  11.698  20.150  0.00  0.00    +0.000 C 
ATOM      3  C   UNL     1       1.017  11.294  21.226  0.00  0.00    +0.000 C 
ATOM      4  C   UNL     1       0.918   9.824  21.529  0.00  0.00    +0.000 C 
ATOM      5  C   UNL     1       1.153   8.980  20.511  0.00  0.00    +0.000 C 
ATOM      6  C   UNL     1       0.851   9.514  19.102  0.00  0.00    +0.000 C 
ATOM      7  C   UNL     1      -0.391  10.420  19.306  0.00  0.00    +0.000 C 
ATOM      8  C   UNL     1      -1.335  10.729  18.152  0.00  0.00    +0.000 C 
ATOM      9  C   UNL     1      -2.671  11.215  18.773  0.00  0.00    +0.000 C 
ATOM     10  C   UNL     1      -2.518  12.377  19.790  0.00  0.00    +0.000 C 
ATOM     11  C   UNL     1      -1.361  12.147  20.819  0.00  0.00    +0.000 C 
ATOM     12  C   UNL     1      -1.209  13.337  21.798  0.00  0.00    +0.000 C 
ATOM     13  C   UNL     1      -2.514  13.593  22.559  0.00  0.00    +0.000 C 
ATOM     14  C   UNL     1      -3.683  13.816  21.594  0.00  0.00    +0.000 C 
ATOM     15  C   UNL     1      -3.425  15.156  20.845  0.00  0.00    +0.000 C 
ATOM     16  C   UNL     1      -3.787  12.598  20.638  0.00  0.00    +0.000 C 
ATOM     17  C   UNL     1      -5.124  12.811  19.958  0.00  0.00    +0.000 C 
ATOM     18  C   UNL     1      -6.034  13.269  21.115  0.00  0.00    +0.000 C 
ATOM     19  C   UNL     1      -5.107  13.815  22.240  0.00  0.00    +0.000 C 
ATOM     20  C   UNL     1      -5.247  12.955  23.507  0.00  0.00    +0.000 C 
ENDROOT
BRANCH   4  21
ATOM     21  C   UNL     1       0.067   9.412  22.685  0.00  0.00    +0.000 C 
ATOM     22  O   UNL     1       0.095   9.962  23.772  0.00  0.00    +0.000 OA
BRANCH  21  23
ATOM     23  O   UNL     1      -0.857   8.467  22.377  0.00  0.00    +0.000 OA
ATOM     24  H   UNL     1      -1.783   8.729  22.592  0.00  0.00    +0.000 HD
ENDBRANCH  21  23
ENDBRANCH   4  21
BRANCH   5  25
ATOM     25  O   UNL     1       1.108   7.601  20.655  0.00  0.00    +0.000 OA
ATOM     26  H   UNL     1       2.031   7.267  20.600  0.00  0.00    +0.000 HD
ENDBRANCH   5  25
BRANCH  19  27
ATOM     27  O   UNL     1      -5.510  15.125  22.633  0.00  0.00    +0.000 OA
ATOM     28  H   UNL     1      -4.790  15.744  22.432  0.00  0.00    +0.000 HD
ENDBRANCH  19  27
TORSDOF 4
ENDMDL
MODEL 4
REMARK VINA RESULT:      -6.3     11.991     14.442
REMARK  Name = 
REMARK  7 active torsions:
REMARK  status: ('A' for Active; 'I' for Inactive)
REMARK    1  A    between atoms: C_1  and  C_2
REMARK    2  A    between atoms: C_4  and  C_5
REMARK    3  A    between atoms: C_5  and  O_7
REMARK    4  A    between atoms: C_8  and  O_9
REMARK    5  A    between atoms: C_18  and  C_19
REMARK    6  A    between atoms: C_23  and  C_24
REMARK    7  A    between atoms: C_23  and  O_25
REMARK                            x       y       z     vdW  Elec       q    Type
REMARK                         _______ _______ _______ _____ _____    ______ ____
ROOT
ATOM      1  C   UNL     1      -6.861  11.292  20.280  0.00  0.00    +0.000 C 
ATOM      2  C   UNL     1      -6.427  12.724  19.883  0.00  0.00    +0.000 C 
ATOM      3  C   UNL     1      -7.700  13.557  19.540  0.00  0.00    +0.000 C 
ATOM      4  C   UNL     1      -7.398  14.550  18.452  0.00  0.00    +0.000 C 
ATOM      5  C   UNL     1      -7.008  14.050  17.268  0.00  0.00    +0.000 C 
ATOM      6  C   UNL     1      -6.300  12.687  17.306  0.00  0.00    +0.000 C 
ATOM      7  C   UNL     1      -5.484  12.729  18.625  0.00  0.00    +0.000 C 
ATOM      8  C   UNL     1      -4.256  11.849  18.817  0.00  0.00    +0.000 C 
ATOM      9  C   UNL     1      -3.429  12.467  19.974  0.00  0.00    +0.000 C 
ATOM     10  C   UNL     1      -4.235  12.715  21.275  0.00  0.00    +0.000 C 
ATOM     11  C   UNL     1      -5.621  13.398  21.022  0.00  0.00    +0.000 C 
ATOM     12  C   UNL     1      -6.418  13.600  22.334  0.00  0.00    +0.000 C 
ATOM     13  C   UNL     1      -5.621  14.440  23.338  0.00  0.00    +0.000 C 
ATOM     14  C   UNL     1      -4.248  13.818  23.614  0.00  0.00    +0.000 C 
ATOM     15  C   UNL     1      -4.485  12.474  24.364  0.00  0.00    +0.000 C 
ATOM     16  C   UNL     1      -3.496  13.636  22.268  0.00  0.00    +0.000 C 
ATOM     17  C   UNL     1      -2.086  13.299  22.708  0.00  0.00    +0.000 C 
ATOM     18  C   UNL     1      -1.844  14.273  23.878  0.00  0.00    +0.000 C 
ATOM     19  C   UNL     1      -3.241  14.716  24.403  0.00  0.00    +0.000 C 
ATOM     20  C   UNL     1      -3.426  16.230  24.207  0.00  0.00    +0.000 C 
ENDROOT
BRANCH   4  21
ATOM     21  C   UNL     1      -7.009  15.931  18.864  0.00  0.00    +0.000 C 
ATOM     22  O   UNL     1      -7.719  16.658  19.539  0.00  0.00    +0.000 OA
BRANCH  21  23
ATOM     23  O   UNL     1      -5.729  16.257  18.555  0.00  0.00    +0.000 OA
ATOM     24  H   UNL     1      -5.398  17.060  19.023  0.00  0.00    +0.000 HD
ENDBRANCH  21  23
ENDBRANCH   4  21
BRANCH   5  25
ATOM     25  O   UNL     1      -6.711  14.852  16.176  0.00  0.00    +0.000 OA
ATOM     26  H   UNL     1      -6.627  14.266  15.391  0.00  0.00    +0.000 HD
ENDBRANCH   5  25
BRANCH  19  27
ATOM     27  O   UNL     1      -3.338  14.509  25.811  0.00  0.00    +0.000 OA
ATOM     28  H   UNL     1      -3.620  15.340  26.227  0.00  0.00    +0.000 HD
ENDBRANCH  19  27
TORSDOF 4
ENDMDL
MODEL 5
REMARK VINA RESULT:      -6.2      8.321     10.638
REMARK  Name = 
REMARK  7 active torsions:
REMARK  status: ('A' for Active; 'I' for Inactive)
REMARK    1  A    between atoms: C_1  and  C_2
REMARK    2  A    between atoms: C_4  and  C_5
REMARK    3  A    between atoms: C_5  and  O_7
REMARK    4  A    between atoms: C_8  and  O_9
REMARK    5  A    between atoms: C_18  and  C_19
REMARK    6  A    between atoms: C_23  and  C_24
REMARK    7  A    between atoms: C_23  and  O_25
REMARK                            x       y       z     vdW  Elec       q    Type
REMARK                         _______ _______ _______ _____ _____    ______ ____
ROOT
ATOM      1  C   UNL     1      -2.097  14.659  22.254  0.00  0.00    +0.000 C 
ATOM      2  C   UNL     1      -2.928  13.492  21.665  0.00  0.00    +0.000 C 
ATOM      3  C   UNL     1      -4.115  14.085  20.846  0.00  0.00    +0.000 C 
ATOM      4  C   UNL     1      -5.319  13.189  20.947  0.00  0.00    +0.000 C 
ATOM      5  C   UNL     1      -5.832  13.000  22.174  0.00  0.00    +0.000 C 
ATOM      6  C   UNL     1      -4.849  13.131  23.348  0.00  0.00    +0.000 C 
ATOM      7  C   UNL     1      -3.520  12.563  22.786  0.00  0.00    +0.000 C 
ATOM      8  C   UNL     1      -2.444  12.016  23.715  0.00  0.00    +0.000 C 
ATOM      9  C   UNL     1      -1.517  11.115  22.859  0.00  0.00    +0.000 C 
ATOM     10  C   UNL     1      -0.959  11.801  21.584  0.00  0.00    +0.000 C 
ATOM     11  C   UNL     1      -2.050  12.578  20.774  0.00  0.00    +0.000 C 
ATOM     12  C   UNL     1      -1.457  13.280  19.527  0.00  0.00    +0.000 C 
ATOM     13  C   UNL     1      -0.769  12.271  18.602  0.00  0.00    +0.000 C 
ATOM     14  C   UNL     1       0.304  11.475  19.352  0.00  0.00    +0.000 C 
ATOM     15  C   UNL     1       1.445  12.466  19.729  0.00  0.00    +0.000 C 
ATOM     16  C   UNL     1      -0.342  10.796  20.589  0.00  0.00    +0.000 C 
ATOM     17  C   UNL     1       0.735   9.836  21.051  0.00  0.00    +0.000 C 
ATOM     18  C   UNL     1       1.261   9.240  19.731  0.00  0.00    +0.000 C 
ATOM     19  C   UNL     1       0.884  10.236  18.595  0.00  0.00    +0.000 C 
ATOM     20  C   UNL     1      -0.082   9.568  17.602  0.00  0.00    +0.000 C 
ENDROOT
BRANCH   4  21
ATOM     21  C   UNL     1      -5.517  12.174  19.870  0.00  0.00    +0.000 C 
ATOM     22  O   UNL     1      -6.274  11.224  19.972  0.00  0.00    +0.000 OA
BRANCH  21  23
ATOM     23  O   UNL     1      -4.897  12.482  18.703  0.00  0.00    +0.000 OA
ATOM     24  H   UNL     1      -4.578  13.413  18.655  0.00  0.00    +0.000 HD
ENDBRANCH  21  23
ENDBRANCH   4  21
BRANCH   5  25
ATOM     25  O   UNL     1      -6.947  12.209  22.407  0.00  0.00    +0.000 OA
ATOM     26  H   UNL     1      -7.705  12.810  22.584  0.00  0.00    +0.000 HD
ENDBRANCH   5  25
BRANCH  19  27
ATOM     27  O   UNL     1       2.033  10.577  17.823  0.00  0.00    +0.000 OA
ATOM     28  H   UNL     1       1.972  10.131  16.963  0.00  0.00    +0.000 HD
ENDBRANCH  19  27
TORSDOF 4
ENDMDL
MODEL 6
REMARK VINA RESULT:      -6.2      9.954     12.875
REMARK  Name = 
REMARK  7 active torsions:
REMARK  status: ('A' for Active; 'I' for Inactive)
REMARK    1  A    between atoms: C_1  and  C_2
REMARK    2  A    between atoms: C_4  and  C_5
REMARK    3  A    between atoms: C_5  and  O_7
REMARK    4  A    between atoms: C_8  and  O_9
REMARK    5  A    between atoms: C_18  and  C_19
REMARK    6  A    between atoms: C_23  and  C_24
REMARK    7  A    between atoms: C_23  and  O_25
REMARK                            x       y       z     vdW  Elec       q    Type
REMARK                         _______ _______ _______ _____ _____    ______ ____
ROOT
ATOM      1  C   UNL     1      11.081  16.858  19.742  0.00  0.00    +0.000 C 
ATOM      2  C   UNL     1      10.775  15.394  19.344  0.00  0.00    +0.000 C 
ATOM      3  C   UNL     1      12.108  14.584  19.348  0.00  0.00    +0.000 C 
ATOM      4  C   UNL     1      12.080  13.524  18.281  0.00  0.00    +0.000 C 
ATOM      5  C   UNL     1      11.960  13.947  17.012  0.00  0.00    +0.000 C 
ATOM      6  C   UNL     1      11.237  15.287  16.808  0.00  0.00    +0.000 C 
ATOM      7  C   UNL     1      10.143  15.291  17.908  0.00  0.00    +0.000 C 
ATOM      8  C   UNL     1       8.888  16.140  17.764  0.00  0.00    +0.000 C 
ATOM      9  C   UNL     1       7.830  15.560  18.739  0.00  0.00    +0.000 C 
ATOM     10  C   UNL     1       8.324  15.409  20.201  0.00  0.00    +0.000 C 
ATOM     11  C   UNL     1       9.743  14.757  20.309  0.00  0.00    +0.000 C 
ATOM     12  C   UNL     1      10.224  14.652  21.778  0.00  0.00    +0.000 C 
ATOM     13  C   UNL     1       9.235  13.843  22.623  0.00  0.00    +0.000 C 
ATOM     14  C   UNL     1       7.825  14.435  22.544  0.00  0.00    +0.000 C 
ATOM     15  C   UNL     1       7.860  15.825  23.246  0.00  0.00    +0.000 C 
ATOM     16  C   UNL     1       7.396  14.520  21.055  0.00  0.00    +0.000 C 
ATOM     17  C   UNL     1       5.916  14.836  21.144  0.00  0.00    +0.000 C 
ATOM     18  C   UNL     1       5.433  13.920  22.285  0.00  0.00    +0.000 C 
ATOM     19  C   UNL     1       6.681  13.550  23.138  0.00  0.00    +0.000 C 
ATOM     20  C   UNL     1       6.933  12.034  23.080  0.00  0.00    +0.000 C 
ENDROOT
BRANCH   4  21
ATOM     21  C   UNL     1      11.633  12.156  18.677  0.00  0.00    +0.000 C 
ATOM     22  O   UNL     1      12.133  11.522  19.591  0.00  0.00    +0.000 OA
BRANCH  21  23
ATOM     23  O   UNL     1      10.515  11.735  18.034  0.00  0.00    +0.000 OA
ATOM     24  H   UNL     1       9.675  12.016  18.467  0.00  0.00    +0.000 HD
ENDBRANCH  21  23
ENDBRANCH   4  21
BRANCH   5  25
ATOM     25  O   UNL     1      11.934  13.077  15.931  0.00  0.00    +0.000 OA
ATOM     26  H   UNL     1      11.407  13.504  15.220  0.00  0.00    +0.000 HD
ENDBRANCH   5  25
BRANCH  19  27
ATOM     27  O   UNL     1       6.452  13.836  24.516  0.00  0.00    +0.000 OA
ATOM     28  H   UNL     1       7.289  14.122  24.916  0.00  0.00    +0.000 HD
ENDBRANCH  19  27
TORSDOF 4
ENDMDL
MODEL 7
REMARK VINA RESULT:      -6.1      8.279     11.542
REMARK  Name = 
REMARK  7 active torsions:
REMARK  status: ('A' for Active; 'I' for Inactive)
REMARK    1  A    between atoms: C_1  and  C_2
REMARK    2  A    between atoms: C_4  and  C_5
REMARK    3  A    between atoms: C_5  and  O_7
REMARK    4  A    between atoms: C_8  and  O_9
REMARK    5  A    between atoms: C_18  and  C_19
REMARK    6  A    between atoms: C_23  and  C_24
REMARK    7  A    between atoms: C_23  and  O_25
REMARK                            x       y       z     vdW  Elec       q    Type
REMARK                         _______ _______ _______ _____ _____    ______ ____
ROOT
ATOM      1  C   UNL     1      -0.932  12.994  18.199  0.00  0.00    +0.000 C 
ATOM      2  C   UNL     1      -1.235  11.928  19.281  0.00  0.00    +0.000 C 
ATOM      3  C   UNL     1      -0.240  12.121  20.467  0.00  0.00    +0.000 C 
ATOM      4  C   UNL     1       0.096  10.793  21.089  0.00  0.00    +0.000 C 
ATOM      5  C   UNL     1       0.701   9.891  20.299  0.00  0.00    +0.000 C 
ATOM      6  C   UNL     1       0.412  10.003  18.794  0.00  0.00    +0.000 C 
ATOM      7  C   UNL     1      -1.068  10.464  18.733  0.00  0.00    +0.000 C 
ATOM      8  C   UNL     1      -1.920  10.206  17.498  0.00  0.00    +0.000 C 
ATOM      9  C   UNL     1      -3.403  10.333  17.933  0.00  0.00    +0.000 C 
ATOM     10  C   UNL     1      -3.743  11.657  18.668  0.00  0.00    +0.000 C 
ATOM     11  C   UNL     1      -2.701  12.035  19.772  0.00  0.00    +0.000 C 
ATOM     12  C   UNL     1      -3.047  13.377  20.463  0.00  0.00    +0.000 C 
ATOM     13  C   UNL     1      -4.445  13.329  21.088  0.00  0.00    +0.000 C 
ATOM     14  C   UNL     1      -5.504  12.953  20.047  0.00  0.00    +0.000 C 
ATOM     15  C   UNL     1      -5.596  14.126  19.026  0.00  0.00    +0.000 C 
ATOM     16  C   UNL     1      -5.107  11.606  19.386  0.00  0.00    +0.000 C 
ATOM     17  C   UNL     1      -6.355  11.223  18.617  0.00  0.00    +0.000 C 
ATOM     18  C   UNL     1      -7.491  11.572  19.600  0.00  0.00    +0.000 C 
ATOM     19  C   UNL     1      -6.920  12.607  20.612  0.00  0.00    +0.000 C 
ATOM     20  C   UNL     1      -6.928  12.020  22.034  0.00  0.00    +0.000 C 
ENDROOT
BRANCH   4  21
ATOM     21  C   UNL     1      -0.710  10.360  22.269  0.00  0.00    +0.000 C 
ATOM     22  O   UNL     1      -0.739   9.212  22.680  0.00  0.00    +0.000 OA
BRANCH  21  23
ATOM     23  O   UNL     1      -1.291  11.383  22.944  0.00  0.00    +0.000 OA
ATOM     24  H   UNL     1      -0.682  11.849  23.565  0.00  0.00    +0.000 HD
ENDBRANCH  21  23
ENDBRANCH   4  21
BRANCH   5  25
ATOM     25  O   UNL     1       1.077   8.634  20.749  0.00  0.00    +0.000 OA
ATOM     26  H   UNL     1       1.907   8.388  20.283  0.00  0.00    +0.000 HD
ENDBRANCH   5  25
BRANCH  19  27
ATOM     27  O   UNL     1      -7.758  13.758  20.681  0.00  0.00    +0.000 OA
ATOM     28  H   UNL     1      -7.985  13.921  21.611  0.00  0.00    +0.000 HD
ENDBRANCH  19  27
TORSDOF 4
ENDMDL
MODEL 8
REMARK VINA RESULT:      -6.1      8.314     11.590
REMARK  Name = 
REMARK  7 active torsions:
REMARK  status: ('A' for Active; 'I' for Inactive)
REMARK    1  A    between atoms: C_1  and  C_2
REMARK    2  A    between atoms: C_4  and  C_5
REMARK    3  A    between atoms: C_5  and  O_7
REMARK    4  A    between atoms: C_8  and  O_9
REMARK    5  A    between atoms: C_18  and  C_19
REMARK    6  A    between atoms: C_23  and  C_24
REMARK    7  A    between atoms: C_23  and  O_25
REMARK                            x       y       z     vdW  Elec       q    Type
REMARK                         _______ _______ _______ _____ _____    ______ ____
ROOT
ATOM      1  C   UNL     1      -0.367  13.335  18.891  0.00  0.00    +0.000 C 
ATOM      2  C   UNL     1      -0.766  12.154  19.810  0.00  0.00    +0.000 C 
ATOM      3  C   UNL     1       0.371  11.924  20.853  0.00  0.00    +0.000 C 
ATOM      4  C   UNL     1       0.487  10.462  21.186  0.00  0.00    +0.000 C 
ATOM      5  C   UNL     1       0.800   9.634  20.175  0.00  0.00    +0.000 C 
ATOM      6  C   UNL     1       0.377  10.089  18.769  0.00  0.00    +0.000 C 
ATOM      7  C   UNL     1      -0.970  10.820  19.004  0.00  0.00    +0.000 C 
ATOM      8  C   UNL     1      -1.988  10.970  17.882  0.00  0.00    +0.000 C 
ATOM      9  C   UNL     1      -3.355  11.283  18.544  0.00  0.00    +0.000 C 
ATOM     10  C   UNL     1      -3.328  12.477  19.533  0.00  0.00    +0.000 C 
ATOM     11  C   UNL     1      -2.114  12.433  20.521  0.00  0.00    +0.000 C 
ATOM     12  C   UNL     1      -2.094  13.655  21.472  0.00  0.00    +0.000 C 
ATOM     13  C   UNL     1      -3.394  13.747  22.278  0.00  0.00    +0.000 C 
ATOM     14  C   UNL     1      -4.616  13.784  21.354  0.00  0.00    +0.000 C 
ATOM     15  C   UNL     1      -4.571  15.130  20.571  0.00  0.00    +0.000 C 
ATOM     16  C   UNL     1      -4.585  12.542  20.425  0.00  0.00    +0.000 C 
ATOM     17  C   UNL     1      -5.962  12.554  19.793  0.00  0.00    +0.000 C 
ATOM     18  C   UNL     1      -6.884  12.909  20.976  0.00  0.00    +0.000 C 
ATOM     19  C   UNL     1      -6.002  13.604  22.054  0.00  0.00    +0.000 C 
ATOM     20  C   UNL     1      -5.978  12.762  23.341  0.00  0.00    +0.000 C 
ENDROOT
BRANCH   4  21
ATOM     21  C   UNL     1      -0.257   9.963  22.380  0.00  0.00    +0.000 C 
ATOM     22  O   UNL     1      -0.656   8.817  22.496  0.00  0.00    +0.000 OA
BRANCH  21  23
ATOM     23  O   UNL     1      -0.321  10.856  23.400  0.00  0.00    +0.000 OA
ATOM     24  H   UNL     1      -1.165  10.823  23.908  0.00  0.00    +0.000 HD
ENDBRANCH  21  23
ENDBRANCH   4  21
BRANCH   5  25
ATOM     25  O   UNL     1       0.951   8.266  20.346  0.00  0.00    +0.000 OA
ATOM     26  H   UNL     1       0.705   7.832  19.498  0.00  0.00    +0.000 HD
ENDBRANCH   5  25
BRANCH  19  27
ATOM     27  O   UNL     1      -6.568  14.854  22.438  0.00  0.00    +0.000 OA
ATOM     28  H   UNL     1      -7.525  14.824  22.277  0.00  0.00    +0.000 HD
ENDBRANCH  19  27
TORSDOF 4
ENDMDL
MODEL 9
REMARK VINA RESULT:      -5.9      8.615     11.056
REMARK  Name = 
REMARK  7 active torsions:
REMARK  status: ('A' for Active; 'I' for Inactive)
REMARK    1  A    between atoms: C_1  and  C_2
REMARK    2  A    between atoms: C_4  and  C_5
REMARK    3  A    between atoms: C_5  and  O_7
REMARK    4  A    between atoms: C_8  and  O_9
REMARK    5  A    between atoms: C_18  and  C_19
REMARK    6  A    between atoms: C_23  and  C_24
REMARK    7  A    between atoms: C_23  and  O_25
REMARK                            x       y       z     vdW  Elec       q    Type
REMARK                         _______ _______ _______ _____ _____    ______ ____
ROOT
ATOM      1  C   UNL     1       7.144  17.428  19.082  0.00  0.00    +0.000 C 
ATOM      2  C   UNL     1       6.290  16.183  19.427  0.00  0.00    +0.000 C 
ATOM      3  C   UNL     1       4.981  16.223  18.580  0.00  0.00    +0.000 C 
ATOM      4  C   UNL     1       3.838  15.627  19.355  0.00  0.00    +0.000 C 
ATOM      5  C   UNL     1       3.502  16.237  20.504  0.00  0.00    +0.000 C 
ATOM      6  C   UNL     1       4.626  16.998  21.222  0.00  0.00    +0.000 C 
ATOM      7  C   UNL     1       5.890  16.143  20.947  0.00  0.00    +0.000 C 
ATOM      8  C   UNL     1       7.101  16.211  21.867  0.00  0.00    +0.000 C 
ATOM      9  C   UNL     1       7.941  14.933  21.612  0.00  0.00    +0.000 C 
ATOM     10  C   UNL     1       8.296  14.688  20.122  0.00  0.00    +0.000 C 
ATOM     11  C   UNL     1       7.077  14.875  19.159  0.00  0.00    +0.000 C 
ATOM     12  C   UNL     1       7.469  14.660  17.676  0.00  0.00    +0.000 C 
ATOM     13  C   UNL     1       8.068  13.265  17.463  0.00  0.00    +0.000 C 
ATOM     14  C   UNL     1       9.262  13.028  18.392  0.00  0.00    +0.000 C 
ATOM     15  C   UNL     1      10.402  13.990  17.946  0.00  0.00    +0.000 C 
ATOM     16  C   UNL     1       8.815  13.259  19.860  0.00  0.00    +0.000 C 
ATOM     17  C   UNL     1       9.981  12.718  20.661  0.00  0.00    +0.000 C 
ATOM     18  C   UNL     1      10.350  11.424  19.909  0.00  0.00    +0.000 C 
ATOM     19  C   UNL     1       9.785  11.556  18.464  0.00  0.00    +0.000 C 
ATOM     20  C   UNL     1       8.723  10.474  18.209  0.00  0.00    +0.000 C 
ENDROOT
BRANCH   4  21
ATOM     21  C   UNL     1       3.539  14.179  19.142  0.00  0.00    +0.000 C 
ATOM     22  O   UNL     1       2.948  13.487  19.952  0.00  0.00    +0.000 OA
BRANCH  21  23
ATOM     23  O   UNL     1       3.845  13.732  17.898  0.00  0.00    +0.000 OA
ATOM     24  H   UNL     1       3.204  14.012  17.203  0.00  0.00    +0.000 HD
ENDBRANCH  21  23
ENDBRANCH   4  21
BRANCH   5  25
ATOM     25  O   UNL     1       2.460  15.799  21.308  0.00  0.00    +0.000 OA
ATOM     26  H   UNL     1       2.325  14.843  21.123  0.00  0.00    +0.000 HD
ENDBRANCH   5  25
BRANCH  19  27
ATOM     27  O   UNL     1      10.806  11.309  17.501  0.00  0.00    +0.000 OA
ATOM     28  H   UNL     1      10.748  10.382  17.218  0.00  0.00    +0.000 HD
ENDBRANCH  19  27
TORSDOF 4
ENDMDL
