MODEL 1
REMARK VINA RESULT:      -7.3      0.000      0.000
REMARK  Name = 
REMARK  4 active torsions:
REMARK  status: ('A' for Active; 'I' for Inactive)
REMARK    1  A    between atoms: C_1  and  N_2
REMARK    2  A    between atoms: C_3  and  C_4
REMARK    3  A    between atoms: C_9  and  N_10
REMARK    4  A    between atoms: C_14  and  C_15
REMARK                            x       y       z     vdW  Elec       q    Type
REMARK                         _______ _______ _______ _____ _____    ______ ____
ROOT
ATOM      1  C   UNL     1       5.295   3.272  16.881  0.00  0.00    +0.000 C 
ATOM      2  N   UNL     1       5.094   4.697  16.706  0.00  0.00    +0.000 N 
ATOM      3  C   UNL     1       4.477   5.520  17.642  0.00  0.00    +0.000 A 
ATOM      4  C   UNL     1       4.467   6.790  17.090  0.00  0.00    +0.000 A 
ATOM      5  C   UNL     1       5.010   6.722  15.798  0.00  0.00    +0.000 A 
ATOM      6  C   UNL     1       5.444   5.427  15.571  0.00  0.00    +0.000 A 
ENDROOT
BRANCH   3   7
ATOM      7  C   UNL     1       4.042   5.119  18.979  0.00  0.00    +0.000 C 
ATOM      8  O   UNL     1       4.735   5.328  19.975  0.00  0.00    +0.000 OA
ATOM      9  N   UNL     1       2.803   4.505  19.106  0.00  0.00    +0.000 N 
ATOM     10  C   UNL     1       2.225   4.250  20.416  0.00  0.00    +0.000 C 
ATOM     11  C   UNL     1       0.819   3.745  20.119  0.00  0.00    +0.000 C 
ATOM     12  C   UNL     1       0.982   2.998  18.794  0.00  0.00    +0.000 C 
ATOM     13  C   UNL     1       1.990   3.898  18.055  0.00  0.00    +0.000 C 
BRANCH  12  14
ATOM     14  N   UNL     1       1.489   1.638  19.015  0.00  0.00    +0.000 NA
ATOM     15  H   UNL     1       2.509   1.641  18.968  0.00  0.00    +0.000 HD
ATOM     16  H   UNL     1       1.186   1.036  18.248  0.00  0.00    +0.000 HD
ENDBRANCH  12  14
ENDBRANCH   3   7
BRANCH   6  17
ATOM     17  C   UNL     1       6.151   4.943  14.368  0.00  0.00    +0.000 A 
ATOM     18  C   UNL     1       7.347   5.516  13.913  0.00  0.00    +0.000 A 
ATOM     19  C   UNL     1       7.961   5.064  12.740  0.00  0.00    +0.000 A 
ATOM     20  C   UNL     1       7.373   4.053  11.984  0.00  0.00    +0.000 A 
ATOM     21  C   UNL     1       6.173   3.494  12.410  0.00  0.00    +0.000 A 
ATOM     22 BR   UNL     1       5.334   2.162  11.362  0.00  0.00    +0.000 Br
ATOM     23  C   UNL     1       5.570   3.923  13.594  0.00  0.00    +0.000 A 
ENDBRANCH   6  17
TORSDOF 3
ENDMDL
MODEL 2
REMARK VINA RESULT:      -7.3      4.849      7.175
REMARK  Name = 
REMARK  4 active torsions:
REMARK  status: ('A' for Active; 'I' for Inactive)
REMARK    1  A    between atoms: C_1  and  N_2
REMARK    2  A    between atoms: C_3  and  C_4
REMARK    3  A    between atoms: C_9  and  N_10
REMARK    4  A    between atoms: C_14  and  C_15
REMARK                            x       y       z     vdW  Elec       q    Type
REMARK                         _______ _______ _______ _____ _____    ______ ____
ROOT
ATOM      1  C   UNL     1       1.589   7.259  20.878  0.00  0.00    +0.000 C 
ATOM      2  N   UNL     1       2.117   7.530  19.556  0.00  0.00    +0.000 N 
ATOM      3  C   UNL     1       3.080   6.749  18.923  0.00  0.00    +0.000 A 
ATOM      4  C   UNL     1       3.321   7.352  17.701  0.00  0.00    +0.000 A 
ATOM      5  C   UNL     1       2.561   8.529  17.622  0.00  0.00    +0.000 A 
ATOM      6  C   UNL     1       1.775   8.621  18.758  0.00  0.00    +0.000 A 
ENDROOT
BRANCH   3   7
ATOM      7  C   UNL     1       3.623   5.488  19.425  0.00  0.00    +0.000 C 
ATOM      8  O   UNL     1       4.767   5.408  19.873  0.00  0.00    +0.000 OA
ATOM      9  N   UNL     1       2.801   4.368  19.404  0.00  0.00    +0.000 N 
ATOM     10  C   UNL     1       3.205   3.133  20.056  0.00  0.00    +0.000 C 
ATOM     11  C   UNL     1       1.977   2.235  19.961  0.00  0.00    +0.000 C 
ATOM     12  C   UNL     1       1.332   2.654  18.639  0.00  0.00    +0.000 C 
ATOM     13  C   UNL     1       1.564   4.176  18.652  0.00  0.00    +0.000 C 
BRANCH  12  14
ATOM     14  N   UNL     1       1.981   1.989  17.502  0.00  0.00    +0.000 NA
ATOM     15  H   UNL     1       1.939   0.977  17.628  0.00  0.00    +0.000 HD
ATOM     16  H   UNL     1       2.976   2.219  17.500  0.00  0.00    +0.000 HD
ENDBRANCH  12  14
ENDBRANCH   3   7
BRANCH   6  17
ATOM     17  C   UNL     1       0.767   9.664  19.039  0.00  0.00    +0.000 A 
ATOM     18  C   UNL     1       0.739  10.382  20.241  0.00  0.00    +0.000 A 
ATOM     19  C   UNL     1      -0.263  11.326  20.493  0.00  0.00    +0.000 A 
ATOM     20  C   UNL     1      -1.272  11.545  19.558  0.00  0.00    +0.000 A 
ATOM     21  C   UNL     1      -1.271  10.820  18.372  0.00  0.00    +0.000 A 
ATOM     22 BR   UNL     1      -2.668  11.064  17.121  0.00  0.00    +0.000 Br
ATOM     23  C   UNL     1      -0.258   9.896  18.105  0.00  0.00    +0.000 A 
ENDBRANCH   6  17
TORSDOF 3
ENDMDL
MODEL 3
REMARK VINA RESULT:      -7.0      5.125      7.368
REMARK  Name = 
REMARK  4 active torsions:
REMARK  status: ('A' for Active; 'I' for Inactive)
REMARK    1  A    between atoms: C_1  and  N_2
REMARK    2  A    between atoms: C_3  and  C_4
REMARK    3  A    between atoms: C_9  and  N_10
REMARK    4  A    between atoms: C_14  and  C_15
REMARK                            x       y       z     vdW  Elec       q    Type
REMARK                         _______ _______ _______ _____ _____    ______ ____
ROOT
ATOM      1  C   UNL     1       1.526   7.397  20.766  0.00  0.00    +0.000 C 
ATOM      2  N   UNL     1       2.097   7.616  19.452  0.00  0.00    +0.000 N 
ATOM      3  C   UNL     1       3.068   6.803  18.877  0.00  0.00    +0.000 A 
ATOM      4  C   UNL     1       3.353   7.360  17.642  0.00  0.00    +0.000 A 
ATOM      5  C   UNL     1       2.610   8.542  17.499  0.00  0.00    +0.000 A 
ATOM      6  C   UNL     1       1.792   8.682  18.607  0.00  0.00    +0.000 A 
ENDROOT
BRANCH   3   7
ATOM      7  C   UNL     1       3.581   5.555  19.439  0.00  0.00    +0.000 C 
ATOM      8  O   UNL     1       4.713   5.476  19.917  0.00  0.00    +0.000 OA
ATOM      9  N   UNL     1       2.744   4.446  19.438  0.00  0.00    +0.000 N 
ATOM     10  C   UNL     1       3.114   3.230  20.145  0.00  0.00    +0.000 C 
ATOM     11  C   UNL     1       1.877   2.346  20.053  0.00  0.00    +0.000 C 
ATOM     12  C   UNL     1       1.270   2.724  18.700  0.00  0.00    +0.000 C 
ATOM     13  C   UNL     1       1.523   4.242  18.663  0.00  0.00    +0.000 C 
BRANCH  12  14
ATOM     14  N   UNL     1       1.938   2.008  17.605  0.00  0.00    +0.000 NA
ATOM     15  H   UNL     1       1.297   1.323  17.203  0.00  0.00    +0.000 HD
ATOM     16  H   UNL     1       2.714   1.463  17.982  0.00  0.00    +0.000 HD
ENDBRANCH  12  14
ENDBRANCH   3   7
BRANCH   6  17
ATOM     17  C   UNL     1       0.788   9.745  18.820  0.00  0.00    +0.000 A 
ATOM     18  C   UNL     1      -0.415   9.802  18.105  0.00  0.00    +0.000 A 
ATOM     19  C   UNL     1      -1.318  10.854  18.297  0.00  0.00    +0.000 A 
ATOM     20  C   UNL     1      -1.018  11.883  19.186  0.00  0.00    +0.000 A 
ATOM     21  C   UNL     1       0.185  11.852  19.882  0.00  0.00    +0.000 A 
ATOM     22 BR   UNL     1       0.631  13.274  21.047  0.00  0.00    +0.000 Br
ATOM     23  C   UNL     1       1.077  10.792  19.714  0.00  0.00    +0.000 A 
ENDBRANCH   6  17
TORSDOF 3
ENDMDL
MODEL 4
REMARK VINA RESULT:      -6.8      5.050      8.208
REMARK  Name = 
REMARK  4 active torsions:
REMARK  status: ('A' for Active; 'I' for Inactive)
REMARK    1  A    between atoms: C_1  and  N_2
REMARK    2  A    between atoms: C_3  and  C_4
REMARK    3  A    between atoms: C_9  and  N_10
REMARK    4  A    between atoms: C_14  and  C_15
REMARK                            x       y       z     vdW  Elec       q    Type
REMARK                         _______ _______ _______ _____ _____    ______ ____
ROOT
ATOM      1  C   UNL     1       2.026   6.085  20.472  0.00  0.00    +0.000 C 
ATOM      2  N   UNL     1       2.188   7.032  19.387  0.00  0.00    +0.000 N 
ATOM      3  C   UNL     1       2.803   6.734  18.175  0.00  0.00    +0.000 A 
ATOM      4  C   UNL     1       2.772   7.901  17.431  0.00  0.00    +0.000 A 
ATOM      5  C   UNL     1       2.204   8.918  18.213  0.00  0.00    +0.000 A 
ATOM      6  C   UNL     1       1.797   8.370  19.418  0.00  0.00    +0.000 A 
ENDROOT
BRANCH   3   7
ATOM      7  C   UNL     1       3.275   5.415  17.757  0.00  0.00    +0.000 C 
ATOM      8  O   UNL     1       2.526   4.439  17.725  0.00  0.00    +0.000 OA
ATOM      9  N   UNL     1       4.605   5.288  17.373  0.00  0.00    +0.000 N 
ATOM     10  C   UNL     1       5.094   4.059  16.770  0.00  0.00    +0.000 C 
ATOM     11  C   UNL     1       6.518   4.388  16.339  0.00  0.00    +0.000 C 
ATOM     12  C   UNL     1       6.986   5.391  17.396  0.00  0.00    +0.000 C 
ATOM     13  C   UNL     1       5.705   6.213  17.628  0.00  0.00    +0.000 C 
BRANCH  12  14
ATOM     14  N   UNL     1       7.448   4.701  18.608  0.00  0.00    +0.000 NA
ATOM     15  H   UNL     1       6.651   4.505  19.215  0.00  0.00    +0.000 HD
ATOM     16  H   UNL     1       8.048   5.329  19.145  0.00  0.00    +0.000 HD
ENDBRANCH  12  14
ENDBRANCH   3   7
BRANCH   6  17
ATOM     17  C   UNL     1       1.078   9.076  20.498  0.00  0.00    +0.000 A 
ATOM     18  C   UNL     1       1.151   8.678  21.840  0.00  0.00    +0.000 A 
ATOM     19  C   UNL     1       0.413   9.339  22.828  0.00  0.00    +0.000 A 
ATOM     20  C   UNL     1      -0.435  10.389  22.486  0.00  0.00    +0.000 A 
ATOM     21  C   UNL     1      -0.537  10.776  21.155  0.00  0.00    +0.000 A 
ATOM     22 BR   UNL     1      -1.730  12.162  20.669  0.00  0.00    +0.000 Br
ATOM     23  C   UNL     1       0.217  10.137  20.169  0.00  0.00    +0.000 A 
ENDBRANCH   6  17
TORSDOF 3
ENDMDL
MODEL 5
REMARK VINA RESULT:      -6.6      4.455      7.820
REMARK  Name = 
REMARK  4 active torsions:
REMARK  status: ('A' for Active; 'I' for Inactive)
REMARK    1  A    between atoms: C_1  and  N_2
REMARK    2  A    between atoms: C_3  and  C_4
REMARK    3  A    between atoms: C_9  and  N_10
REMARK    4  A    between atoms: C_14  and  C_15
REMARK                            x       y       z     vdW  Elec       q    Type
REMARK                         _______ _______ _______ _____ _____    ______ ____
ROOT
ATOM      1  C   UNL     1       2.591   7.589  17.729  0.00  0.00    +0.000 C 
ATOM      2  N   UNL     1       2.474   6.646  18.823  0.00  0.00    +0.000 N 
ATOM      3  C   UNL     1       2.866   5.314  18.753  0.00  0.00    +0.000 A 
ATOM      4  C   UNL     1       2.571   4.760  19.987  0.00  0.00    +0.000 A 
ATOM      5  C   UNL     1       1.940   5.734  20.777  0.00  0.00    +0.000 A 
ATOM      6  C   UNL     1       1.917   6.925  20.071  0.00  0.00    +0.000 A 
ENDROOT
BRANCH   3   7
ATOM      7  C   UNL     1       3.553   4.683  17.627  0.00  0.00    +0.000 C 
ATOM      8  O   UNL     1       2.998   3.847  16.914  0.00  0.00    +0.000 OA
ATOM      9  N   UNL     1       4.863   5.066  17.364  0.00  0.00    +0.000 N 
ATOM     10  C   UNL     1       5.542   4.624  16.156  0.00  0.00    +0.000 C 
ATOM     11  C   UNL     1       6.857   5.394  16.158  0.00  0.00    +0.000 C 
ATOM     12  C   UNL     1       7.182   5.540  17.646  0.00  0.00    +0.000 C 
ATOM     13  C   UNL     1       5.783   5.781  18.244  0.00  0.00    +0.000 C 
BRANCH  12  14
ATOM     14  N   UNL     1       7.822   4.325  18.166  0.00  0.00    +0.000 NA
ATOM     15  H   UNL     1       7.587   3.531  17.570  0.00  0.00    +0.000 HD
ATOM     16  H   UNL     1       7.428   4.101  19.081  0.00  0.00    +0.000 HD
ENDBRANCH  12  14
ENDBRANCH   3   7
BRANCH   6  17
ATOM     17  C   UNL     1       1.418   8.223  20.568  0.00  0.00    +0.000 A 
ATOM     18  C   UNL     1       1.184   8.472  21.927  0.00  0.00    +0.000 A 
ATOM     19  C   UNL     1       0.661   9.697  22.355  0.00  0.00    +0.000 A 
ATOM     20  C   UNL     1       0.332  10.683  21.427  0.00  0.00    +0.000 A 
ATOM     21  C   UNL     1       0.534  10.438  20.074  0.00  0.00    +0.000 A 
ATOM     22 BR   UNL     1       0.037  11.745  18.800  0.00  0.00    +0.000 Br
ATOM     23  C   UNL     1       1.081   9.228  19.644  0.00  0.00    +0.000 A 
ENDBRANCH   6  17
TORSDOF 3
ENDMDL
MODEL 6
REMARK VINA RESULT:      -6.6      6.133      8.487
REMARK  Name = 
REMARK  4 active torsions:
REMARK  status: ('A' for Active; 'I' for Inactive)
REMARK    1  A    between atoms: C_1  and  N_2
REMARK    2  A    between atoms: C_3  and  C_4
REMARK    3  A    between atoms: C_9  and  N_10
REMARK    4  A    between atoms: C_14  and  C_15
REMARK                            x       y       z     vdW  Elec       q    Type
REMARK                         _______ _______ _______ _____ _____    ______ ____
ROOT
ATOM      1  C   UNL     1       1.692   8.952  17.799  0.00  0.00    +0.000 C 
ATOM      2  N   UNL     1       1.283   9.018  19.188  0.00  0.00    +0.000 N 
ATOM      3  C   UNL     1       0.581  10.081  19.747  0.00  0.00    +0.000 A 
ATOM      4  C   UNL     1       0.407   9.767  21.084  0.00  0.00    +0.000 A 
ATOM      5  C   UNL     1       1.061   8.554  21.349  0.00  0.00    +0.000 A 
ATOM      6  C   UNL     1       1.571   8.061  20.160  0.00  0.00    +0.000 A 
ENDROOT
BRANCH   3   7
ATOM      7  C   UNL     1       0.047  11.231  19.018  0.00  0.00    +0.000 C 
ATOM      8  O   UNL     1      -0.989  11.155  18.358  0.00  0.00    +0.000 OA
ATOM      9  N   UNL     1       0.735  12.435  19.103  0.00  0.00    +0.000 N 
ATOM     10  C   UNL     1       0.166  13.660  18.564  0.00  0.00    +0.000 C 
ATOM     11  C   UNL     1       1.127  14.754  19.013  0.00  0.00    +0.000 C 
ATOM     12  C   UNL     1       2.486  14.051  19.026  0.00  0.00    +0.000 C 
ATOM     13  C   UNL     1       2.105  12.656  19.557  0.00  0.00    +0.000 C 
BRANCH  12  14
ATOM     14  N   UNL     1       3.069  14.008  17.679  0.00  0.00    +0.000 NA
ATOM     15  H   UNL     1       2.494  13.420  17.076  0.00  0.00    +0.000 HD
ATOM     16  H   UNL     1       3.978  13.545  17.720  0.00  0.00    +0.000 HD
ENDBRANCH  12  14
ENDBRANCH   3   7
BRANCH   6  17
ATOM     17  C   UNL     1       2.261   6.768  19.977  0.00  0.00    +0.000 A 
ATOM     18  C   UNL     1       3.308   6.593  19.061  0.00  0.00    +0.000 A 
ATOM     19  C   UNL     1       3.902   5.340  18.878  0.00  0.00    +0.000 A 
ATOM     20  C   UNL     1       3.439   4.232  19.585  0.00  0.00    +0.000 A 
ATOM     21  C   UNL     1       2.384   4.387  20.477  0.00  0.00    +0.000 A 
ATOM     22 BR   UNL     1       1.707   2.881  21.399  0.00  0.00    +0.000 Br
ATOM     23  C   UNL     1       1.805   5.640  20.683  0.00  0.00    +0.000 A 
ENDBRANCH   6  17
TORSDOF 3
ENDMDL
MODEL 7
REMARK VINA RESULT:      -6.5      5.547      7.743
REMARK  Name = 
REMARK  4 active torsions:
REMARK  status: ('A' for Active; 'I' for Inactive)
REMARK    1  A    between atoms: C_1  and  N_2
REMARK    2  A    between atoms: C_3  and  C_4
REMARK    3  A    between atoms: C_9  and  N_10
REMARK    4  A    between atoms: C_14  and  C_15
REMARK                            x       y       z     vdW  Elec       q    Type
REMARK                         _______ _______ _______ _____ _____    ______ ____
ROOT
ATOM      1  C   UNL     1       2.144   8.465  17.716  0.00  0.00    +0.000 C 
ATOM      2  N   UNL     1       1.754   8.367  19.108  0.00  0.00    +0.000 N 
ATOM      3  C   UNL     1       2.062   7.291  19.933  0.00  0.00    +0.000 A 
ATOM      4  C   UNL     1       1.497   7.575  21.164  0.00  0.00    +0.000 A 
ATOM      5  C   UNL     1       0.791   8.784  21.066  0.00  0.00    +0.000 A 
ATOM      6  C   UNL     1       0.985   9.304  19.798  0.00  0.00    +0.000 A 
ENDROOT
BRANCH   3   7
ATOM      7  C   UNL     1       2.912   6.155  19.576  0.00  0.00    +0.000 C 
ATOM      8  O   UNL     1       4.025   6.311  19.074  0.00  0.00    +0.000 OA
ATOM      9  N   UNL     1       2.436   4.876  19.836  0.00  0.00    +0.000 N 
ATOM     10  C   UNL     1       3.296   3.714  19.684  0.00  0.00    +0.000 C 
ATOM     11  C   UNL     1       2.470   2.556  20.230  0.00  0.00    +0.000 C 
ATOM     12  C   UNL     1       1.033   2.950  19.881  0.00  0.00    +0.000 C 
ATOM     13  C   UNL     1       1.063   4.470  20.124  0.00  0.00    +0.000 C 
BRANCH  12  14
ATOM     14  N   UNL     1       0.713   2.601  18.491  0.00  0.00    +0.000 NA
ATOM     15  H   UNL     1       1.061   3.330  17.867  0.00  0.00    +0.000 HD
ATOM     16  H   UNL     1      -0.300   2.601  18.368  0.00  0.00    +0.000 HD
ENDBRANCH  12  14
ENDBRANCH   3   7
BRANCH   6  17
ATOM     17  C   UNL     1       0.486  10.603  19.303  0.00  0.00    +0.000 A 
ATOM     18  C   UNL     1      -0.813  10.773  18.805  0.00  0.00    +0.000 A 
ATOM     19  C   UNL     1      -1.233  12.007  18.296  0.00  0.00    +0.000 A 
ATOM     20  C   UNL     1      -0.351  13.084  18.247  0.00  0.00    +0.000 A 
ATOM     21  C   UNL     1       0.949  12.921  18.713  0.00  0.00    +0.000 A 
ATOM     22 BR   UNL     1       2.173  14.357  18.598  0.00  0.00    +0.000 Br
ATOM     23  C   UNL     1       1.365  11.700  19.247  0.00  0.00    +0.000 A 
ENDBRANCH   6  17
TORSDOF 3
ENDMDL
MODEL 8
REMARK VINA RESULT:      -6.4      5.491      7.596
REMARK  Name = 
REMARK  4 active torsions:
REMARK  status: ('A' for Active; 'I' for Inactive)
REMARK    1  A    between atoms: C_1  and  N_2
REMARK    2  A    between atoms: C_3  and  C_4
REMARK    3  A    between atoms: C_9  and  N_10
REMARK    4  A    between atoms: C_14  and  C_15
REMARK                            x       y       z     vdW  Elec       q    Type
REMARK                         _______ _______ _______ _____ _____    ______ ____
ROOT
ATOM      1  C   UNL     1       2.060   8.195  17.679  0.00  0.00    +0.000 C 
ATOM      2  N   UNL     1       1.759   8.197  19.096  0.00  0.00    +0.000 N 
ATOM      3  C   UNL     1       2.150   7.196  19.980  0.00  0.00    +0.000 A 
ATOM      4  C   UNL     1       1.654   7.562  21.219  0.00  0.00    +0.000 A 
ATOM      5  C   UNL     1       0.906   8.741  21.074  0.00  0.00    +0.000 A 
ATOM      6  C   UNL     1       1.006   9.165  19.760  0.00  0.00    +0.000 A 
ENDROOT
BRANCH   3   7
ATOM      7  C   UNL     1       3.011   6.059  19.658  0.00  0.00    +0.000 C 
ATOM      8  O   UNL     1       4.148   6.212  19.212  0.00  0.00    +0.000 OA
ATOM      9  N   UNL     1       2.517   4.781  19.886  0.00  0.00    +0.000 N 
ATOM     10  C   UNL     1       3.378   3.615  19.768  0.00  0.00    +0.000 C 
ATOM     11  C   UNL     1       2.520   2.458  20.265  0.00  0.00    +0.000 C 
ATOM     12  C   UNL     1       1.103   2.861  19.849  0.00  0.00    +0.000 C 
ATOM     13  C   UNL     1       1.129   4.380  20.104  0.00  0.00    +0.000 C 
BRANCH  12  14
ATOM     14  N   UNL     1       0.851   2.523  18.443  0.00  0.00    +0.000 NA
ATOM     15  H   UNL     1      -0.145   2.347  18.306  0.00  0.00    +0.000 HD
ATOM     16  H   UNL     1       1.315   1.642  18.220  0.00  0.00    +0.000 HD
ENDBRANCH  12  14
ENDBRANCH   3   7
BRANCH   6  17
ATOM     17  C   UNL     1       0.438  10.408  19.199  0.00  0.00    +0.000 A 
ATOM     18  C   UNL     1       1.116  11.633  19.239  0.00  0.00    +0.000 A 
ATOM     19  C   UNL     1       0.524  12.800  18.744  0.00  0.00    +0.000 A 
ATOM     20  C   UNL     1      -0.770  12.768  18.230  0.00  0.00    +0.000 A 
ATOM     21  C   UNL     1      -1.465  11.563  18.210  0.00  0.00    +0.000 A 
ATOM     22 BR   UNL     1      -3.244  11.516  17.569  0.00  0.00    +0.000 Br
ATOM     23  C   UNL     1      -0.868  10.391  18.677  0.00  0.00    +0.000 A 
ENDBRANCH   6  17
TORSDOF 3
ENDMDL
MODEL 9
REMARK VINA RESULT:      -6.4      4.567      7.696
REMARK  Name = 
REMARK  4 active torsions:
REMARK  status: ('A' for Active; 'I' for Inactive)
REMARK    1  A    between atoms: C_1  and  N_2
REMARK    2  A    between atoms: C_3  and  C_4
REMARK    3  A    between atoms: C_9  and  N_10
REMARK    4  A    between atoms: C_14  and  C_15
REMARK                            x       y       z     vdW  Elec       q    Type
REMARK                         _______ _______ _______ _____ _____    ______ ____
ROOT
ATOM      1  C   UNL     1       2.521   6.773  17.287  0.00  0.00    +0.000 C 
ATOM      2  N   UNL     1       2.622   6.089  18.560  0.00  0.00    +0.000 N 
ATOM      3  C   UNL     1       3.159   4.816  18.723  0.00  0.00    +0.000 A 
ATOM      4  C   UNL     1       3.054   4.523  20.072  0.00  0.00    +0.000 A 
ATOM      5  C   UNL     1       2.393   5.584  20.711  0.00  0.00    +0.000 A 
ATOM      6  C   UNL     1       2.162   6.582  19.780  0.00  0.00    +0.000 A 
ENDROOT
BRANCH   3   7
ATOM      7  C   UNL     1       3.802   4.019  17.679  0.00  0.00    +0.000 C 
ATOM      8  O   UNL     1       3.275   3.005  17.220  0.00  0.00    +0.000 OA
ATOM      9  N   UNL     1       5.032   4.447  17.195  0.00  0.00    +0.000 N 
ATOM     10  C   UNL     1       5.639   3.816  16.034  0.00  0.00    +0.000 C 
ATOM     11  C   UNL     1       6.858   4.677  15.728  0.00  0.00    +0.000 C 
ATOM     12  C   UNL     1       7.303   5.166  17.108  0.00  0.00    +0.000 C 
ATOM     13  C   UNL     1       5.949   5.409  17.799  0.00  0.00    +0.000 C 
BRANCH  12  14
ATOM     14  N   UNL     1       8.116   4.150  17.789  0.00  0.00    +0.000 NA
ATOM     15  H   UNL     1       8.425   4.509  18.693  0.00  0.00    +0.000 HD
ATOM     16  H   UNL     1       8.971   3.990  17.256  0.00  0.00    +0.000 HD
ENDBRANCH  12  14
ENDBRANCH   3   7
BRANCH   6  17
ATOM     17  C   UNL     1       1.565   7.906  20.052  0.00  0.00    +0.000 A 
ATOM     18  C   UNL     1       1.643   8.970  19.143  0.00  0.00    +0.000 A 
ATOM     19  C   UNL     1       1.110  10.225  19.457  0.00  0.00    +0.000 A 
ATOM     20  C   UNL     1       0.519  10.446  20.699  0.00  0.00    +0.000 A 
ATOM     21  C   UNL     1       0.458   9.406  21.619  0.00  0.00    +0.000 A 
ATOM     22 BR   UNL     1      -0.289   9.709  23.330  0.00  0.00    +0.000 Br
ATOM     23  C   UNL     1       0.965   8.145  21.300  0.00  0.00    +0.000 A 
ENDBRANCH   6  17
TORSDOF 3
ENDMDL
