MODEL 1
REMARK VINA RESULT:      -6.4      0.000      0.000
REMARK  Name = 
REMARK  2 active torsions:
REMARK  status: ('A' for Active; 'I' for Inactive)
REMARK    1  A    between atoms: C_1  and  C_2
REMARK    2  A    between atoms: C_2  and  C_3
REMARK                            x       y       z     vdW  Elec       q    Type
REMARK                         _______ _______ _______ _____ _____    ______ ____
ROOT
ATOM      1  C   UNL     1       2.970   5.758  19.672  0.00  0.00    +0.000 C 
ATOM      2  C   UNL     1       3.426   4.425  19.006  0.00  0.00    +0.000 C 
ATOM      3  C   UNL     1       3.112   3.219  19.939  0.00  0.00    +0.000 C 
ATOM      4  N   UNL     1       1.676   2.986  20.069  0.00  0.00    +0.000 NA
ATOM      5  C   UNL     1       1.115   2.786  18.734  0.00  0.00    +0.000 C 
ATOM      6  C   UNL     1       1.401   4.005  17.838  0.00  0.00    +0.000 C 
ATOM      7  O   UNL     1       2.793   4.304  17.736  0.00  0.00    +0.000 OA
ATOM      8  H   UNL     1       1.212   3.790  20.550  0.00  0.00    +0.000 HD
ENDROOT
BRANCH   2   9
ATOM      9  C   UNL     1       4.964   4.411  18.853  0.00  0.00    +0.000 C 
ATOM     10  O   UNL     1       5.573   3.577  19.506  0.00  0.00    +0.000 OA
ATOM     11  N   UNL     1       5.669   5.175  17.938  0.00  0.00    +0.000 N 
ATOM     12  C   UNL     1       7.052   4.849  17.607  0.00  0.00    +0.000 C 
ATOM     13  C   UNL     1       7.091   4.595  16.092  0.00  0.00    +0.000 C 
ATOM     14  O   UNL     1       6.684   5.756  15.387  0.00  0.00    +0.000 OA
ATOM     15  C   UNL     1       5.326   6.052  15.684  0.00  0.00    +0.000 C 
ATOM     16  C   UNL     1       5.144   6.310  17.188  0.00  0.00    +0.000 C 
ENDBRANCH   2   9
TORSDOF 1
ENDMDL
MODEL 2
REMARK VINA RESULT:      -6.3      1.336      2.531
REMARK  Name = 
REMARK  2 active torsions:
REMARK  status: ('A' for Active; 'I' for Inactive)
REMARK    1  A    between atoms: C_1  and  C_2
REMARK    2  A    between atoms: C_2  and  C_3
REMARK                            x       y       z     vdW  Elec       q    Type
REMARK                         _______ _______ _______ _____ _____    ______ ____
ROOT
ATOM      1  C   UNL     1       2.816   2.737  17.413  0.00  0.00    +0.000 C 
ATOM      2  C   UNL     1       3.240   3.838  18.430  0.00  0.00    +0.000 C 
ATOM      3  C   UNL     1       2.049   4.197  19.367  0.00  0.00    +0.000 C 
ATOM      4  N   UNL     1       1.714   3.099  20.270  0.00  0.00    +0.000 NA
ATOM      5  C   UNL     1       2.908   2.749  21.038  0.00  0.00    +0.000 C 
ATOM      6  C   UNL     1       4.062   2.359  20.096  0.00  0.00    +0.000 C 
ATOM      7  O   UNL     1       4.379   3.383  19.154  0.00  0.00    +0.000 OA
ATOM      8  H   UNL     1       1.360   2.273  19.736  0.00  0.00    +0.000 HD
ENDROOT
BRANCH   2   9
ATOM      9  C   UNL     1       3.558   5.152  17.682  0.00  0.00    +0.000 C 
ATOM     10  O   UNL     1       2.836   6.109  17.920  0.00  0.00    +0.000 OA
ATOM     11  N   UNL     1       4.670   5.351  16.881  0.00  0.00    +0.000 N 
ATOM     12  C   UNL     1       5.088   6.698  16.509  0.00  0.00    +0.000 C 
ATOM     13  C   UNL     1       6.526   6.869  17.025  0.00  0.00    +0.000 C 
ATOM     14  O   UNL     1       7.382   5.912  16.422  0.00  0.00    +0.000 OA
ATOM     15  C   UNL     1       6.994   4.601  16.812  0.00  0.00    +0.000 C 
ATOM     16  C   UNL     1       5.553   4.308  16.370  0.00  0.00    +0.000 C 
ENDBRANCH   2   9
TORSDOF 1
ENDMDL
MODEL 3
REMARK VINA RESULT:      -6.2      1.644      2.141
REMARK  Name = 
REMARK  2 active torsions:
REMARK  status: ('A' for Active; 'I' for Inactive)
REMARK    1  A    between atoms: C_1  and  C_2
REMARK    2  A    between atoms: C_2  and  C_3
REMARK                            x       y       z     vdW  Elec       q    Type
REMARK                         _______ _______ _______ _____ _____    ______ ____
ROOT
ATOM      1  C   UNL     1       2.024   4.563  19.468  0.00  0.00    +0.000 C 
ATOM      2  C   UNL     1       3.186   4.295  18.467  0.00  0.00    +0.000 C 
ATOM      3  C   UNL     1       4.377   3.603  19.193  0.00  0.00    +0.000 C 
ATOM      4  N   UNL     1       4.049   2.241  19.608  0.00  0.00    +0.000 NA
ATOM      5  C   UNL     1       3.633   1.484  18.429  0.00  0.00    +0.000 C 
ATOM      6  C   UNL     1       2.430   2.162  17.747  0.00  0.00    +0.000 C 
ATOM      7  O   UNL     1       2.690   3.517  17.382  0.00  0.00    +0.000 OA
ATOM      8  H   UNL     1       3.295   2.246  20.332  0.00  0.00    +0.000 HD
ENDROOT
BRANCH   2   9
ATOM      9  C   UNL     1       3.764   5.635  17.958  0.00  0.00    +0.000 C 
ATOM     10  O   UNL     1       3.373   6.649  18.517  0.00  0.00    +0.000 OA
ATOM     11  N   UNL     1       4.779   5.747  17.023  0.00  0.00    +0.000 N 
ATOM     12  C   UNL     1       5.508   7.001  16.864  0.00  0.00    +0.000 C 
ATOM     13  C   UNL     1       6.988   6.684  17.129  0.00  0.00    +0.000 C 
ATOM     14  O   UNL     1       7.461   5.726  16.195  0.00  0.00    +0.000 OA
ATOM     15  C   UNL     1       6.774   4.495  16.374  0.00  0.00    +0.000 C 
ATOM     16  C   UNL     1       5.264   4.680  16.156  0.00  0.00    +0.000 C 
ENDBRANCH   2   9
TORSDOF 1
ENDMDL
MODEL 4
REMARK VINA RESULT:      -6.2      1.767      5.090
REMARK  Name = 
REMARK  2 active torsions:
REMARK  status: ('A' for Active; 'I' for Inactive)
REMARK    1  A    between atoms: C_1  and  C_2
REMARK    2  A    between atoms: C_2  and  C_3
REMARK                            x       y       z     vdW  Elec       q    Type
REMARK                         _______ _______ _______ _____ _____    ______ ____
ROOT
ATOM      1  C   UNL     1       4.897   6.684  17.091  0.00  0.00    +0.000 C 
ATOM      2  C   UNL     1       5.024   5.204  17.557  0.00  0.00    +0.000 C 
ATOM      3  C   UNL     1       5.972   4.415  16.605  0.00  0.00    +0.000 C 
ATOM      4  N   UNL     1       7.357   4.862  16.720  0.00  0.00    +0.000 NA
ATOM      5  C   UNL     1       7.774   4.728  18.115  0.00  0.00    +0.000 C 
ATOM      6  C   UNL     1       6.850   5.545  19.036  0.00  0.00    +0.000 C 
ATOM      7  O   UNL     1       5.476   5.182  18.908  0.00  0.00    +0.000 OA
ATOM      8  H   UNL     1       7.457   5.850  16.396  0.00  0.00    +0.000 HD
ENDROOT
BRANCH   2   9
ATOM      9  C   UNL     1       3.659   4.491  17.427  0.00  0.00    +0.000 C 
ATOM     10  O   UNL     1       3.600   3.554  16.644  0.00  0.00    +0.000 OA
ATOM     11  N   UNL     1       2.558   4.751  18.225  0.00  0.00    +0.000 N 
ATOM     12  C   UNL     1       1.444   3.810  18.287  0.00  0.00    +0.000 C 
ATOM     13  C   UNL     1       1.306   3.391  19.759  0.00  0.00    +0.000 C 
ATOM     14  O   UNL     1       1.030   4.523  20.569  0.00  0.00    +0.000 OA
ATOM     15  C   UNL     1       2.129   5.423  20.535  0.00  0.00    +0.000 C 
ATOM     16  C   UNL     1       2.390   5.906  19.100  0.00  0.00    +0.000 C 
ENDBRANCH   2   9
TORSDOF 1
ENDMDL
MODEL 5
REMARK VINA RESULT:      -6.2      1.635      2.293
REMARK  Name = 
REMARK  2 active torsions:
REMARK  status: ('A' for Active; 'I' for Inactive)
REMARK    1  A    between atoms: C_1  and  C_2
REMARK    2  A    between atoms: C_2  and  C_3
REMARK                            x       y       z     vdW  Elec       q    Type
REMARK                         _______ _______ _______ _____ _____    ______ ____
ROOT
ATOM      1  C   UNL     1       4.398   3.491  19.335  0.00  0.00    +0.000 C 
ATOM      2  C   UNL     1       3.200   4.075  18.530  0.00  0.00    +0.000 C 
ATOM      3  C   UNL     1       2.759   3.081  17.416  0.00  0.00    +0.000 C 
ATOM      4  N   UNL     1       2.157   1.871  17.970  0.00  0.00    +0.000 NA
ATOM      5  C   UNL     1       1.027   2.259  18.814  0.00  0.00    +0.000 C 
ATOM      6  C   UNL     1       1.490   3.210  19.932  0.00  0.00    +0.000 C 
ATOM      7  O   UNL     1       2.141   4.378  19.434  0.00  0.00    +0.000 OA
ATOM      8  H   UNL     1       2.859   1.324  18.518  0.00  0.00    +0.000 HD
ENDROOT
BRANCH   2   9
ATOM      9  C   UNL     1       3.646   5.343  17.767  0.00  0.00    +0.000 C 
ATOM     10  O   UNL     1       2.991   6.357  17.957  0.00  0.00    +0.000 OA
ATOM     11  N   UNL     1       4.798   5.436  17.005  0.00  0.00    +0.000 N 
ATOM     12  C   UNL     1       5.332   6.739  16.620  0.00  0.00    +0.000 C 
ATOM     13  C   UNL     1       6.759   6.812  17.187  0.00  0.00    +0.000 C 
ATOM     14  O   UNL     1       7.560   5.778  16.637  0.00  0.00    +0.000 OA
ATOM     15  C   UNL     1       7.058   4.511  17.041  0.00  0.00    +0.000 C 
ATOM     16  C   UNL     1       5.615   4.318  16.550  0.00  0.00    +0.000 C 
ENDBRANCH   2   9
TORSDOF 1
ENDMDL
MODEL 6
REMARK VINA RESULT:      -6.1      1.221      1.394
REMARK  Name = 
REMARK  2 active torsions:
REMARK  status: ('A' for Active; 'I' for Inactive)
REMARK    1  A    between atoms: C_1  and  C_2
REMARK    2  A    between atoms: C_2  and  C_3
REMARK                            x       y       z     vdW  Elec       q    Type
REMARK                         _______ _______ _______ _____ _____    ______ ____
ROOT
ATOM      1  C   UNL     1       2.200   5.378  17.920  0.00  0.00    +0.000 C 
ATOM      2  C   UNL     1       3.225   4.404  18.572  0.00  0.00    +0.000 C 
ATOM      3  C   UNL     1       2.769   4.019  20.010  0.00  0.00    +0.000 C 
ATOM      4  N   UNL     1       1.568   3.190  20.000  0.00  0.00    +0.000 NA
ATOM      5  C   UNL     1       1.831   2.001  19.191  0.00  0.00    +0.000 C 
ATOM      6  C   UNL     1       2.242   2.400  17.762  0.00  0.00    +0.000 C 
ATOM      7  O   UNL     1       3.377   3.264  17.731  0.00  0.00    +0.000 OA
ATOM      8  H   UNL     1       0.752   3.723  19.622  0.00  0.00    +0.000 HD
ENDROOT
BRANCH   2   9
ATOM      9  C   UNL     1       4.581   5.120  18.770  0.00  0.00    +0.000 C 
ATOM     10  O   UNL     1       4.875   5.432  19.914  0.00  0.00    +0.000 OA
ATOM     11  N   UNL     1       5.525   5.303  17.774  0.00  0.00    +0.000 N 
ATOM     12  C   UNL     1       6.901   5.654  18.110  0.00  0.00    +0.000 C 
ATOM     13  C   UNL     1       7.791   4.545  17.527  0.00  0.00    +0.000 C 
ATOM     14  O   UNL     1       7.637   4.480  16.118  0.00  0.00    +0.000 OA
ATOM     15  C   UNL     1       6.305   4.104  15.793  0.00  0.00    +0.000 C 
ATOM     16  C   UNL     1       5.303   5.131  16.344  0.00  0.00    +0.000 C 
ENDBRANCH   2   9
TORSDOF 1
ENDMDL
MODEL 7
REMARK VINA RESULT:      -6.1      1.614      4.739
REMARK  Name = 
REMARK  2 active torsions:
REMARK  status: ('A' for Active; 'I' for Inactive)
REMARK    1  A    between atoms: C_1  and  C_2
REMARK    2  A    between atoms: C_2  and  C_3
REMARK                            x       y       z     vdW  Elec       q    Type
REMARK                         _______ _______ _______ _____ _____    ______ ____
ROOT
ATOM      1  C   UNL     1       7.385   6.066  17.872  0.00  0.00    +0.000 C 
ATOM      2  C   UNL     1       6.165   5.185  17.471  0.00  0.00    +0.000 C 
ATOM      3  C   UNL     1       5.042   6.065  16.848  0.00  0.00    +0.000 C 
ATOM      4  N   UNL     1       5.430   6.608  15.549  0.00  0.00    +0.000 NA
ATOM      5  C   UNL     1       5.783   5.497  14.668  0.00  0.00    +0.000 C 
ATOM      6  C   UNL     1       6.921   4.661  15.282  0.00  0.00    +0.000 C 
ATOM      7  O   UNL     1       6.605   4.163  16.581  0.00  0.00    +0.000 OA
ATOM      8  H   UNL     1       6.231   7.273  15.648  0.00  0.00    +0.000 HD
ENDROOT
BRANCH   2   9
ATOM      9  C   UNL     1       5.522   4.569  18.734  0.00  0.00    +0.000 C 
ATOM     10  O   UNL     1       5.912   4.992  19.812  0.00  0.00    +0.000 OA
ATOM     11  N   UNL     1       4.456   3.685  18.721  0.00  0.00    +0.000 N 
ATOM     12  C   UNL     1       3.683   3.434  19.933  0.00  0.00    +0.000 C 
ATOM     13  C   UNL     1       2.229   3.814  19.612  0.00  0.00    +0.000 C 
ATOM     14  O   UNL     1       1.735   3.016  18.549  0.00  0.00    +0.000 OA
ATOM     15  C   UNL     1       2.466   3.287  17.360  0.00  0.00    +0.000 C 
ATOM     16  C   UNL     1       3.956   2.966  17.555  0.00  0.00    +0.000 C 
ENDBRANCH   2   9
TORSDOF 1
ENDMDL
MODEL 8
REMARK VINA RESULT:      -6.0      1.637      1.979
REMARK  Name = 
REMARK  2 active torsions:
REMARK  status: ('A' for Active; 'I' for Inactive)
REMARK    1  A    between atoms: C_1  and  C_2
REMARK    2  A    between atoms: C_2  and  C_3
REMARK                            x       y       z     vdW  Elec       q    Type
REMARK                         _______ _______ _______ _____ _____    ______ ____
ROOT
ATOM      1  C   UNL     1       1.863   4.828  17.870  0.00  0.00    +0.000 C 
ATOM      2  C   UNL     1       2.827   3.912  18.681  0.00  0.00    +0.000 C 
ATOM      3  C   UNL     1       3.503   4.717  19.829  0.00  0.00    +0.000 C 
ATOM      4  N   UNL     1       2.547   5.099  20.865  0.00  0.00    +0.000 NA
ATOM      5  C   UNL     1       1.904   3.889  21.373  0.00  0.00    +0.000 C 
ATOM      6  C   UNL     1       1.208   3.126  20.231  0.00  0.00    +0.000 C 
ATOM      7  O   UNL     1       2.097   2.789  19.166  0.00  0.00    +0.000 OA
ATOM      8  H   UNL     1       1.837   5.767  20.488  0.00  0.00    +0.000 HD
ENDROOT
BRANCH   2   9
ATOM      9  C   UNL     1       3.999   3.454  17.783  0.00  0.00    +0.000 C 
ATOM     10  O   UNL     1       4.026   2.272  17.475  0.00  0.00    +0.000 OA
ATOM     11  N   UNL     1       4.923   4.307  17.204  0.00  0.00    +0.000 N 
ATOM     12  C   UNL     1       5.763   3.854  16.100  0.00  0.00    +0.000 C 
ATOM     13  C   UNL     1       5.476   4.792  14.917  0.00  0.00    +0.000 C 
ATOM     14  O   UNL     1       5.803   6.129  15.258  0.00  0.00    +0.000 OA
ATOM     15  C   UNL     1       4.961   6.580  16.311  0.00  0.00    +0.000 C 
ATOM     16  C   UNL     1       5.138   5.704  17.560  0.00  0.00    +0.000 C 
ENDBRANCH   2   9
TORSDOF 1
ENDMDL
MODEL 9
REMARK VINA RESULT:      -6.0      1.835      5.083
REMARK  Name = 
REMARK  2 active torsions:
REMARK  status: ('A' for Active; 'I' for Inactive)
REMARK    1  A    between atoms: C_1  and  C_2
REMARK    2  A    between atoms: C_2  and  C_3
REMARK                            x       y       z     vdW  Elec       q    Type
REMARK                         _______ _______ _______ _____ _____    ______ ____
ROOT
ATOM      1  C   UNL     1       4.780   4.033  16.018  0.00  0.00    +0.000 C 
ATOM      2  C   UNL     1       4.267   4.433  17.433  0.00  0.00    +0.000 C 
ATOM      3  C   UNL     1       5.115   3.730  18.535  0.00  0.00    +0.000 C 
ATOM      4  N   UNL     1       6.482   4.240  18.581  0.00  0.00    +0.000 NA
ATOM      5  C   UNL     1       6.432   5.686  18.792  0.00  0.00    +0.000 C 
ATOM      6  C   UNL     1       5.623   6.367  17.672  0.00  0.00    +0.000 C 
ATOM      7  O   UNL     1       4.298   5.852  17.552  0.00  0.00    +0.000 OA
ATOM      8  H   UNL     1       6.994   4.011  17.699  0.00  0.00    +0.000 HD
ENDROOT
BRANCH   2   9
ATOM      9  C   UNL     1       2.832   3.899  17.644  0.00  0.00    +0.000 C 
ATOM     10  O   UNL     1       2.392   3.151  16.784  0.00  0.00    +0.000 OA
ATOM     11  N   UNL     1       2.081   4.098  18.790  0.00  0.00    +0.000 N 
ATOM     12  C   UNL     1       0.905   3.278  19.061  0.00  0.00    +0.000 C 
ATOM     13  C   UNL     1       1.156   2.585  20.410  0.00  0.00    +0.000 C 
ATOM     14  O   UNL     1       1.320   3.551  21.436  0.00  0.00    +0.000 OA
ATOM     15  C   UNL     1       2.485   4.327  21.189  0.00  0.00    +0.000 C 
ATOM     16  C   UNL     1       2.371   5.063  19.845  0.00  0.00    +0.000 C 
ENDBRANCH   2   9
TORSDOF 1
ENDMDL
