MODEL 1
REMARK VINA RESULT:      -9.0      0.000      0.000
REMARK  Name = 
REMARK  8 active torsions:
REMARK  status: ('A' for Active; 'I' for Inactive)
REMARK    1  A    between atoms: C_1  and  C_2
REMARK    2  A    between atoms: C_2  and  C_3
REMARK    3  A    between atoms: C_2  and  C_4
REMARK    4  A    between atoms: C_7  and  S_8
REMARK    5  A    between atoms: S_8  and  N_11
REMARK    6  A    between atoms: C_15  and  C_16
REMARK    7  A    between atoms: C_16  and  N_17
REMARK    8  A    between atoms: N_20  and  C_21
REMARK                            x       y       z     vdW  Elec       q    Type
REMARK                         _______ _______ _______ _____ _____    ______ ____
ROOT
ATOM      1  N   UNL     1       5.784   6.044  17.833  0.00  0.00    +0.000 N 
ATOM      2  C   UNL     1       5.653   5.333  19.015  0.00  0.00    +0.000 A 
ATOM      3  C   UNL     1       4.390   4.817  18.881  0.00  0.00    +0.000 A 
ATOM      4  C   UNL     1       3.738   6.046  18.602  0.00  0.00    +0.000 A 
ATOM      5  C   UNL     1       2.613   6.640  19.205  0.00  0.00    +0.000 A 
ATOM      6  C   UNL     1       2.088   7.800  18.643  0.00  0.00    +0.000 A 
ATOM      7  C   UNL     1       2.727   8.359  17.527  0.00  0.00    +0.000 A 
ATOM      8  C   UNL     1       3.972   7.866  17.026  0.00  0.00    +0.000 A 
ATOM      9  C   UNL     1       4.554   6.742  17.675  0.00  0.00    +0.000 A 
ENDROOT
BRANCH   1  10
ATOM     10  S   UNL     1       7.246   5.740  16.968  0.00  0.00    +0.000 S 
ATOM     11  O   UNL     1       7.868   4.639  17.621  0.00  0.00    +0.000 OA
ATOM     12  O   UNL     1       7.848   7.053  16.767  0.00  0.00    +0.000 OA
BRANCH  10  16
ATOM     13  C   UNL     1       5.959   3.822  12.773  0.00  0.00    +0.000 A 
ATOM     14  C   UNL     1       5.165   3.777  13.938  0.00  0.00    +0.000 A 
ATOM     15  C   UNL     1       5.531   4.413  15.152  0.00  0.00    +0.000 A 
ATOM     16  C   UNL     1       6.733   5.135  15.264  0.00  0.00    +0.000 A 
ATOM     17  C   UNL     1       7.526   5.224  14.096  0.00  0.00    +0.000 A 
ATOM     18  C   UNL     1       7.140   4.586  12.871  0.00  0.00    +0.000 A 
BRANCH  13  20
ATOM     19  C   UNL     1       5.872   1.540  11.498  0.00  0.00    +0.000 C 
ATOM     20  C   UNL     1       5.483   3.041  11.538  0.00  0.00    +0.000 C 
ATOM     21  C   UNL     1       3.970   3.125  11.249  0.00  0.00    +0.000 C 
ENDBRANCH  13  20
ENDBRANCH  10  16
ENDBRANCH   1  10
BRANCH   5  22
ATOM     22  C   UNL     1       2.133   6.092  20.535  0.00  0.00    +0.000 C 
BRANCH  22  23
ATOM     23  N   UNL     1       1.534   4.770  20.492  0.00  0.00    +0.000 NA
ATOM     24  C   UNL     1       2.400   3.809  21.209  0.00  0.00    +0.000 C 
ATOM     25  C   UNL     1       1.737   2.417  21.256  0.00  0.00    +0.000 C 
ATOM     26  N   UNL     1       1.343   1.869  19.940  0.00  0.00    +0.000 NA
ATOM     27  C   UNL     1       2.501   1.406  19.180  0.00  0.00    +0.000 C 
ATOM     28  C   UNL     1       0.598   2.901  19.187  0.00  0.00    +0.000 C 
ATOM     29  C   UNL     1       1.295   4.276  19.125  0.00  0.00    +0.000 C 
ENDBRANCH  22  23
ENDBRANCH   5  22
TORSDOF 5
ENDMDL
MODEL 2
REMARK VINA RESULT:      -8.8      5.419      9.263
REMARK  Name = 
REMARK  8 active torsions:
REMARK  status: ('A' for Active; 'I' for Inactive)
REMARK    1  A    between atoms: C_1  and  C_2
REMARK    2  A    between atoms: C_2  and  C_3
REMARK    3  A    between atoms: C_2  and  C_4
REMARK    4  A    between atoms: C_7  and  S_8
REMARK    5  A    between atoms: S_8  and  N_11
REMARK    6  A    between atoms: C_15  and  C_16
REMARK    7  A    between atoms: C_16  and  N_17
REMARK    8  A    between atoms: N_20  and  C_21
REMARK                            x       y       z     vdW  Elec       q    Type
REMARK                         _______ _______ _______ _____ _____    ______ ____
ROOT
ATOM      1  N   UNL     1       1.026  10.151  19.731  0.00  0.00    +0.000 N 
ATOM      2  C   UNL     1       1.788  10.497  18.627  0.00  0.00    +0.000 A 
ATOM      3  C   UNL     1       1.506   9.464  17.771  0.00  0.00    +0.000 A 
ATOM      4  C   UNL     1       1.819   8.412  18.670  0.00  0.00    +0.000 A 
ATOM      5  C   UNL     1       2.674   7.305  18.517  0.00  0.00    +0.000 A 
ATOM      6  C   UNL     1       2.696   6.336  19.516  0.00  0.00    +0.000 A 
ATOM      7  C   UNL     1       1.903   6.522  20.656  0.00  0.00    +0.000 A 
ATOM      8  C   UNL     1       1.177   7.729  20.901  0.00  0.00    +0.000 A 
ATOM      9  C   UNL     1       1.246   8.758  19.920  0.00  0.00    +0.000 A 
ENDROOT
BRANCH   1  10
ATOM     10  S   UNL     1       0.044  11.426  20.355  0.00  0.00    +0.000 S 
ATOM     11  O   UNL     1       0.712  12.637  20.020  0.00  0.00    +0.000 OA
ATOM     12  O   UNL     1      -0.314  11.003  21.704  0.00  0.00    +0.000 OA
BRANCH  10  16
ATOM     13  C   UNL     1      -4.210  11.262  18.161  0.00  0.00    +0.000 A 
ATOM     14  C   UNL     1      -3.851  12.236  19.116  0.00  0.00    +0.000 A 
ATOM     15  C   UNL     1      -2.561  12.313  19.702  0.00  0.00    +0.000 A 
ATOM     16  C   UNL     1      -1.550  11.397  19.360  0.00  0.00    +0.000 A 
ATOM     17  C   UNL     1      -1.877  10.433  18.376  0.00  0.00    +0.000 A 
ATOM     18  C   UNL     1      -3.182  10.375  17.783  0.00  0.00    +0.000 A 
BRANCH  13  20
ATOM     19  C   UNL     1      -6.711  10.643  18.612  0.00  0.00    +0.000 C 
ATOM     20  C   UNL     1      -5.658  11.246  17.646  0.00  0.00    +0.000 C 
ATOM     21  C   UNL     1      -6.203  12.610  17.176  0.00  0.00    +0.000 C 
ENDBRANCH  13  20
ENDBRANCH  10  16
ENDBRANCH   1  10
BRANCH   5  22
ATOM     22  C   UNL     1       3.657   7.306  17.363  0.00  0.00    +0.000 C 
BRANCH  22  23
ATOM     23  N   UNL     1       4.769   6.380  17.481  0.00  0.00    +0.000 NA
ATOM     24  C   UNL     1       6.017   7.042  17.046  0.00  0.00    +0.000 C 
ATOM     25  C   UNL     1       7.225   6.106  17.251  0.00  0.00    +0.000 C 
ATOM     26  N   UNL     1       7.100   4.778  16.612  0.00  0.00    +0.000 NA
ATOM     27  C   UNL     1       7.277   4.857  15.165  0.00  0.00    +0.000 C 
ATOM     28  C   UNL     1       5.784   4.197  16.951  0.00  0.00    +0.000 C 
ATOM     29  C   UNL     1       4.587   5.140  16.707  0.00  0.00    +0.000 C 
ENDBRANCH  22  23
ENDBRANCH   5  22
TORSDOF 5
ENDMDL
MODEL 3
REMARK VINA RESULT:      -8.8      5.505      9.335
REMARK  Name = 
REMARK  8 active torsions:
REMARK  status: ('A' for Active; 'I' for Inactive)
REMARK    1  A    between atoms: C_1  and  C_2
REMARK    2  A    between atoms: C_2  and  C_3
REMARK    3  A    between atoms: C_2  and  C_4
REMARK    4  A    between atoms: C_7  and  S_8
REMARK    5  A    between atoms: S_8  and  N_11
REMARK    6  A    between atoms: C_15  and  C_16
REMARK    7  A    between atoms: C_16  and  N_17
REMARK    8  A    between atoms: N_20  and  C_21
REMARK                            x       y       z     vdW  Elec       q    Type
REMARK                         _______ _______ _______ _____ _____    ______ ____
ROOT
ATOM      1  N   UNL     1       1.098  10.601  19.640  0.00  0.00    +0.000 N 
ATOM      2  C   UNL     1       1.869  10.791  18.505  0.00  0.00    +0.000 A 
ATOM      3  C   UNL     1       1.486   9.721  17.737  0.00  0.00    +0.000 A 
ATOM      4  C   UNL     1       1.723   8.721  18.716  0.00  0.00    +0.000 A 
ATOM      5  C   UNL     1       2.478   7.535  18.645  0.00  0.00    +0.000 A 
ATOM      6  C   UNL     1       2.432   6.651  19.719  0.00  0.00    +0.000 A 
ATOM      7  C   UNL     1       1.676   6.995  20.847  0.00  0.00    +0.000 A 
ATOM      8  C   UNL     1       1.060   8.276  21.000  0.00  0.00    +0.000 A 
ATOM      9  C   UNL     1       1.201   9.214  19.939  0.00  0.00    +0.000 A 
ENDROOT
BRANCH   1  10
ATOM     10  S   UNL     1       0.238  12.002  20.168  0.00  0.00    +0.000 S 
ATOM     11  O   UNL     1       0.746  13.087  19.400  0.00  0.00    +0.000 OA
ATOM     12  O   UNL     1       0.242  11.922  21.624  0.00  0.00    +0.000 OA
BRANCH  10  16
ATOM     13  C   UNL     1      -4.214  11.549  18.463  0.00  0.00    +0.000 A 
ATOM     14  C   UNL     1      -3.095  10.868  17.940  0.00  0.00    +0.000 A 
ATOM     15  C   UNL     1      -1.796  10.958  18.504  0.00  0.00    +0.000 A 
ATOM     16  C   UNL     1      -1.547  11.754  19.636  0.00  0.00    +0.000 A 
ATOM     17  C   UNL     1      -2.663  12.418  20.199  0.00  0.00    +0.000 A 
ATOM     18  C   UNL     1      -3.973  12.308  19.627  0.00  0.00    +0.000 A 
BRANCH  13  20
ATOM     19  C   UNL     1      -6.717  10.798  18.544  0.00  0.00    +0.000 C 
ATOM     20  C   UNL     1      -5.556  11.418  17.725  0.00  0.00    +0.000 C 
ATOM     21  C   UNL     1      -6.090  12.721  17.096  0.00  0.00    +0.000 C 
ENDBRANCH  13  20
ENDBRANCH  10  16
ENDBRANCH   1  10
BRANCH   5  22
ATOM     22  C   UNL     1       3.438   7.359  17.486  0.00  0.00    +0.000 C 
BRANCH  22  23
ATOM     23  N   UNL     1       4.511   6.404  17.696  0.00  0.00    +0.000 NA
ATOM     24  C   UNL     1       5.791   6.983  17.235  0.00  0.00    +0.000 C 
ATOM     25  C   UNL     1       6.958   6.021  17.535  0.00  0.00    +0.000 C 
ATOM     26  N   UNL     1       6.792   4.653  16.998  0.00  0.00    +0.000 NA
ATOM     27  C   UNL     1       6.994   4.612  15.552  0.00  0.00    +0.000 C 
ATOM     28  C   UNL     1       5.448   4.150  17.355  0.00  0.00    +0.000 C 
ATOM     29  C   UNL     1       4.293   5.115  17.017  0.00  0.00    +0.000 C 
ENDBRANCH  22  23
ENDBRANCH   5  22
TORSDOF 5
ENDMDL
MODEL 4
REMARK VINA RESULT:      -8.7      6.109      9.603
REMARK  Name = 
REMARK  8 active torsions:
REMARK  status: ('A' for Active; 'I' for Inactive)
REMARK    1  A    between atoms: C_1  and  C_2
REMARK    2  A    between atoms: C_2  and  C_3
REMARK    3  A    between atoms: C_2  and  C_4
REMARK    4  A    between atoms: C_7  and  S_8
REMARK    5  A    between atoms: S_8  and  N_11
REMARK    6  A    between atoms: C_15  and  C_16
REMARK    7  A    between atoms: C_16  and  N_17
REMARK    8  A    between atoms: N_20  and  C_21
REMARK                            x       y       z     vdW  Elec       q    Type
REMARK                         _______ _______ _______ _____ _____    ______ ____
ROOT
ATOM      1  N   UNL     1       0.112  10.252  21.159  0.00  0.00    +0.000 N 
ATOM      2  C   UNL     1       0.039   9.063  21.867  0.00  0.00    +0.000 A 
ATOM      3  C   UNL     1       1.347   8.654  21.843  0.00  0.00    +0.000 A 
ATOM      4  C   UNL     1       1.525   8.748  20.438  0.00  0.00    +0.000 A 
ATOM      5  C   UNL     1       2.003   7.800  19.514  0.00  0.00    +0.000 A 
ATOM      6  C   UNL     1       2.210   8.199  18.196  0.00  0.00    +0.000 A 
ATOM      7  C   UNL     1       1.891   9.514  17.830  0.00  0.00    +0.000 A 
ATOM      8  C   UNL     1       1.235  10.423  18.717  0.00  0.00    +0.000 A 
ATOM      9  C   UNL     1       0.932   9.969  20.031  0.00  0.00    +0.000 A 
ENDROOT
BRANCH   1  10
ATOM     10  S   UNL     1      -0.659  11.593  21.924  0.00  0.00    +0.000 S 
ATOM     11  O   UNL     1       0.254  12.681  21.824  0.00  0.00    +0.000 OA
ATOM     12  O   UNL     1      -1.204  11.059  23.167  0.00  0.00    +0.000 OA
BRANCH  10  16
ATOM     13  C   UNL     1      -4.643  12.446  19.407  0.00  0.00    +0.000 A 
ATOM     14  C   UNL     1      -4.478  12.789  20.765  0.00  0.00    +0.000 A 
ATOM     15  C   UNL     1      -3.265  12.595  21.475  0.00  0.00    +0.000 A 
ATOM     16  C   UNL     1      -2.138  12.032  20.851  0.00  0.00    +0.000 A 
ATOM     17  C   UNL     1      -2.269  11.714  19.478  0.00  0.00    +0.000 A 
ATOM     18  C   UNL     1      -3.498  11.927  18.769  0.00  0.00    +0.000 A 
BRANCH  13  20
ATOM     19  C   UNL     1      -6.073  12.553  17.220  0.00  0.00    +0.000 C 
ATOM     20  C   UNL     1      -6.025  12.649  18.767  0.00  0.00    +0.000 C 
ATOM     21  C   UNL     1      -7.143  11.737  19.313  0.00  0.00    +0.000 C 
ENDBRANCH  13  20
ENDBRANCH  10  16
ENDBRANCH   1  10
BRANCH   5  22
ATOM     22  C   UNL     1       2.101   6.352  19.950  0.00  0.00    +0.000 C 
BRANCH  22  23
ATOM     23  N   UNL     1       2.651   5.434  18.969  0.00  0.00    +0.000 NA
ATOM     24  C   UNL     1       1.708   4.316  18.750  0.00  0.00    +0.000 C 
ATOM     25  C   UNL     1       2.231   3.378  17.643  0.00  0.00    +0.000 C 
ATOM     26  N   UNL     1       3.598   2.859  17.860  0.00  0.00    +0.000 NA
ATOM     27  C   UNL     1       3.626   1.826  18.892  0.00  0.00    +0.000 C 
ATOM     28  C   UNL     1       4.494   3.981  18.215  0.00  0.00    +0.000 C 
ATOM     29  C   UNL     1       3.966   4.887  19.346  0.00  0.00    +0.000 C 
ENDBRANCH  22  23
ENDBRANCH   5  22
TORSDOF 5
ENDMDL
MODEL 5
REMARK VINA RESULT:      -8.4      1.716      3.563
REMARK  Name = 
REMARK  8 active torsions:
REMARK  status: ('A' for Active; 'I' for Inactive)
REMARK    1  A    between atoms: C_1  and  C_2
REMARK    2  A    between atoms: C_2  and  C_3
REMARK    3  A    between atoms: C_2  and  C_4
REMARK    4  A    between atoms: C_7  and  S_8
REMARK    5  A    between atoms: S_8  and  N_11
REMARK    6  A    between atoms: C_15  and  C_16
REMARK    7  A    between atoms: C_16  and  N_17
REMARK    8  A    between atoms: N_20  and  C_21
REMARK                            x       y       z     vdW  Elec       q    Type
REMARK                         _______ _______ _______ _____ _____    ______ ____
ROOT
ATOM      1  N   UNL     1       5.616   5.456  17.430  0.00  0.00    +0.000 N 
ATOM      2  C   UNL     1       5.487   6.555  18.264  0.00  0.00    +0.000 A 
ATOM      3  C   UNL     1       5.088   5.961  19.433  0.00  0.00    +0.000 A 
ATOM      4  C   UNL     1       4.001   5.230  18.885  0.00  0.00    +0.000 A 
ATOM      5  C   UNL     1       2.651   5.171  19.279  0.00  0.00    +0.000 A 
ATOM      6  C   UNL     1       1.812   4.257  18.648  0.00  0.00    +0.000 A 
ATOM      7  C   UNL     1       2.331   3.466  17.614  0.00  0.00    +0.000 A 
ATOM      8  C   UNL     1       3.647   3.651  17.087  0.00  0.00    +0.000 A 
ATOM      9  C   UNL     1       4.461   4.662  17.671  0.00  0.00    +0.000 A 
ENDROOT
BRANCH   1  10
ATOM     10  S   UNL     1       7.104   5.387  16.556  0.00  0.00    +0.000 S 
ATOM     11  O   UNL     1       7.868   4.351  17.162  0.00  0.00    +0.000 OA
ATOM     12  O   UNL     1       7.525   6.776  16.415  0.00  0.00    +0.000 OA
BRANCH  10  16
ATOM     13  C   UNL     1       5.948   3.509  12.306  0.00  0.00    +0.000 A 
ATOM     14  C   UNL     1       5.050   3.626  13.387  0.00  0.00    +0.000 A 
ATOM     15  C   UNL     1       5.390   4.251  14.615  0.00  0.00    +0.000 A 
ATOM     16  C   UNL     1       6.669   4.795  14.827  0.00  0.00    +0.000 A 
ATOM     17  C   UNL     1       7.574   4.721  13.741  0.00  0.00    +0.000 A 
ATOM     18  C   UNL     1       7.215   4.097  12.501  0.00  0.00    +0.000 A 
BRANCH  13  20
ATOM     19  C   UNL     1       5.875   1.257  10.977  0.00  0.00    +0.000 C 
ATOM     20  C   UNL     1       5.481   2.755  11.050  0.00  0.00    +0.000 C 
ATOM     21  C   UNL     1       3.969   2.840  10.757  0.00  0.00    +0.000 C 
ENDBRANCH  13  20
ENDBRANCH  10  16
ENDBRANCH   1  10
BRANCH   5  22
ATOM     22  C   UNL     1       2.133   6.220  20.242  0.00  0.00    +0.000 C 
BRANCH  22  23
ATOM     23  N   UNL     1       2.172   7.590  19.764  0.00  0.00    +0.000 NA
ATOM     24  C   UNL     1       1.208   8.412  20.526  0.00  0.00    +0.000 C 
ATOM     25  C   UNL     1       1.301   9.890  20.097  0.00  0.00    +0.000 C 
ATOM     26  N   UNL     1       1.142  10.129  18.646  0.00  0.00    +0.000 NA
ATOM     27  C   UNL     1      -0.249   9.987  18.225  0.00  0.00    +0.000 C 
ATOM     28  C   UNL     1       2.015   9.197  17.901  0.00  0.00    +0.000 C 
ATOM     29  C   UNL     1       1.883   7.720  18.325  0.00  0.00    +0.000 C 
ENDBRANCH  22  23
ENDBRANCH   5  22
TORSDOF 5
ENDMDL
MODEL 6
REMARK VINA RESULT:      -8.4      5.851      9.184
REMARK  Name = 
REMARK  8 active torsions:
REMARK  status: ('A' for Active; 'I' for Inactive)
REMARK    1  A    between atoms: C_1  and  C_2
REMARK    2  A    between atoms: C_2  and  C_3
REMARK    3  A    between atoms: C_2  and  C_4
REMARK    4  A    between atoms: C_7  and  S_8
REMARK    5  A    between atoms: S_8  and  N_11
REMARK    6  A    between atoms: C_15  and  C_16
REMARK    7  A    between atoms: C_16  and  N_17
REMARK    8  A    between atoms: N_20  and  C_21
REMARK                            x       y       z     vdW  Elec       q    Type
REMARK                         _______ _______ _______ _____ _____    ______ ____
ROOT
ATOM      1  N   UNL     1       0.079  10.395  20.825  0.00  0.00    +0.000 N 
ATOM      2  C   UNL     1      -0.083   9.320  21.684  0.00  0.00    +0.000 A 
ATOM      3  C   UNL     1       1.206   8.865  21.792  0.00  0.00    +0.000 A 
ATOM      4  C   UNL     1       1.460   8.755  20.399  0.00  0.00    +0.000 A 
ATOM      5  C   UNL     1       1.943   7.671  19.643  0.00  0.00    +0.000 A 
ATOM      6  C   UNL     1       2.235   7.874  18.297  0.00  0.00    +0.000 A 
ATOM      7  C   UNL     1       1.994   9.136  17.736  0.00  0.00    +0.000 A 
ATOM      8  C   UNL     1       1.333  10.183  18.450  0.00  0.00    +0.000 A 
ATOM      9  C   UNL     1       0.943   9.929  19.795  0.00  0.00    +0.000 A 
ENDROOT
BRANCH   1  10
ATOM     10  S   UNL     1      -0.671  11.858  21.353  0.00  0.00    +0.000 S 
ATOM     11  O   UNL     1      -0.211  12.077  22.682  0.00  0.00    +0.000 OA
ATOM     12  O   UNL     1      -2.067  11.735  20.951  0.00  0.00    +0.000 OA
BRANCH  10  16
ATOM     13  C   UNL     1       1.268  15.556  19.009  0.00  0.00    +0.000 A 
ATOM     14  C   UNL     1       1.998  14.674  19.832  0.00  0.00    +0.000 A 
ATOM     15  C   UNL     1       1.420  13.541  20.461  0.00  0.00    +0.000 A 
ATOM     16  C   UNL     1       0.058  13.232  20.298  0.00  0.00    +0.000 A 
ATOM     17  C   UNL     1      -0.685  14.084  19.446  0.00  0.00    +0.000 A 
ATOM     18  C   UNL     1      -0.086  15.219  18.807  0.00  0.00    +0.000 A 
BRANCH  13  20
ATOM     19  C   UNL     1       3.198  16.480  17.505  0.00  0.00    +0.000 C 
ATOM     20  C   UNL     1       1.994  16.783  18.434  0.00  0.00    +0.000 C 
ATOM     21  C   UNL     1       1.093  17.793  17.694  0.00  0.00    +0.000 C 
ENDBRANCH  13  20
ENDBRANCH  10  16
ENDBRANCH   1  10
BRANCH   5  22
ATOM     22  C   UNL     1       1.955   6.295  20.279  0.00  0.00    +0.000 C 
BRANCH  22  23
ATOM     23  N   UNL     1       2.537   5.235  19.477  0.00  0.00    +0.000 NA
ATOM     24  C   UNL     1       1.921   3.940  19.841  0.00  0.00    +0.000 C 
ATOM     25  C   UNL     1       2.458   2.814  18.935  0.00  0.00    +0.000 C 
ATOM     26  N   UNL     1       3.932   2.689  18.902  0.00  0.00    +0.000 NA
ATOM     27  C   UNL     1       4.450   2.090  20.129  0.00  0.00    +0.000 C 
ATOM     28  C   UNL     1       4.528   4.023  18.675  0.00  0.00    +0.000 C 
ATOM     29  C   UNL     1       3.999   5.128  19.614  0.00  0.00    +0.000 C 
ENDBRANCH  22  23
ENDBRANCH   5  22
TORSDOF 5
ENDMDL
MODEL 7
REMARK VINA RESULT:      -8.4      2.074      3.875
REMARK  Name = 
REMARK  8 active torsions:
REMARK  status: ('A' for Active; 'I' for Inactive)
REMARK    1  A    between atoms: C_1  and  C_2
REMARK    2  A    between atoms: C_2  and  C_3
REMARK    3  A    between atoms: C_2  and  C_4
REMARK    4  A    between atoms: C_7  and  S_8
REMARK    5  A    between atoms: S_8  and  N_11
REMARK    6  A    between atoms: C_15  and  C_16
REMARK    7  A    between atoms: C_16  and  N_17
REMARK    8  A    between atoms: N_20  and  C_21
REMARK                            x       y       z     vdW  Elec       q    Type
REMARK                         _______ _______ _______ _____ _____    ______ ____
ROOT
ATOM      1  N   UNL     1       5.512   5.763  17.411  0.00  0.00    +0.000 N 
ATOM      2  C   UNL     1       4.803   6.865  16.961  0.00  0.00    +0.000 A 
ATOM      3  C   UNL     1       4.490   7.485  18.142  0.00  0.00    +0.000 A 
ATOM      4  C   UNL     1       3.910   6.354  18.774  0.00  0.00    +0.000 A 
ATOM      5  C   UNL     1       2.657   6.200  19.398  0.00  0.00    +0.000 A 
ATOM      6  C   UNL     1       2.388   5.011  20.069  0.00  0.00    +0.000 A 
ATOM      7  C   UNL     1       3.353   3.995  20.057  0.00  0.00    +0.000 A 
ATOM      8  C   UNL     1       4.546   4.074  19.273  0.00  0.00    +0.000 A 
ATOM      9  C   UNL     1       4.762   5.254  18.507  0.00  0.00    +0.000 A 
ENDROOT
BRANCH   1  10
ATOM     10  S   UNL     1       7.022   5.505  16.614  0.00  0.00    +0.000 S 
ATOM     11  O   UNL     1       7.653   4.433  17.306  0.00  0.00    +0.000 OA
ATOM     12  O   UNL     1       7.585   6.837  16.426  0.00  0.00    +0.000 OA
BRANCH  10  16
ATOM     13  C   UNL     1       5.948   3.508  12.396  0.00  0.00    +0.000 A 
ATOM     14  C   UNL     1       5.063   3.559  13.493  0.00  0.00    +0.000 A 
ATOM     15  C   UNL     1       5.372   4.219  14.711  0.00  0.00    +0.000 A 
ATOM     16  C   UNL     1       6.607   4.867  14.896  0.00  0.00    +0.000 A 
ATOM     17  C   UNL     1       7.495   4.859  13.794  0.00  0.00    +0.000 A 
ATOM     18  C   UNL     1       7.166   4.199  12.564  0.00  0.00    +0.000 A 
BRANCH  13  20
ATOM     19  C   UNL     1       5.951   1.221  11.129  0.00  0.00    +0.000 C 
ATOM     20  C   UNL     1       5.522   2.710  11.153  0.00  0.00    +0.000 C 
ATOM     21  C   UNL     1       4.014   2.752  10.831  0.00  0.00    +0.000 C 
ENDBRANCH  13  20
ENDBRANCH  10  16
ENDBRANCH   1  10
BRANCH   5  22
ATOM     22  C   UNL     1       1.598   7.259  19.163  0.00  0.00    +0.000 C 
BRANCH  22  23
ATOM     23  N   UNL     1       1.678   8.430  20.016  0.00  0.00    +0.000 NA
ATOM     24  C   UNL     1       1.208   8.089  21.375  0.00  0.00    +0.000 C 
ATOM     25  C   UNL     1       1.372   9.295  22.323  0.00  0.00    +0.000 C 
ATOM     26  N   UNL     1       0.732  10.544  21.857  0.00  0.00    +0.000 NA
ATOM     27  C   UNL     1      -0.720  10.494  22.006  0.00  0.00    +0.000 C 
ATOM     28  C   UNL     1       1.108  10.789  20.449  0.00  0.00    +0.000 C 
ATOM     29  C   UNL     1       0.905   9.579  19.513  0.00  0.00    +0.000 C 
ENDBRANCH  22  23
ENDBRANCH   5  22
TORSDOF 5
ENDMDL
MODEL 8
REMARK VINA RESULT:      -8.3      5.636      8.975
REMARK  Name = 
REMARK  8 active torsions:
REMARK  status: ('A' for Active; 'I' for Inactive)
REMARK    1  A    between atoms: C_1  and  C_2
REMARK    2  A    between atoms: C_2  and  C_3
REMARK    3  A    between atoms: C_2  and  C_4
REMARK    4  A    between atoms: C_7  and  S_8
REMARK    5  A    between atoms: S_8  and  N_11
REMARK    6  A    between atoms: C_15  and  C_16
REMARK    7  A    between atoms: C_16  and  N_17
REMARK    8  A    between atoms: N_20  and  C_21
REMARK                            x       y       z     vdW  Elec       q    Type
REMARK                         _______ _______ _______ _____ _____    ______ ____
ROOT
ATOM      1  N   UNL     1       0.156  10.111  20.825  0.00  0.00    +0.000 N 
ATOM      2  C   UNL     1       0.031   8.979  21.614  0.00  0.00    +0.000 A 
ATOM      3  C   UNL     1       1.331   8.550  21.677  0.00  0.00    +0.000 A 
ATOM      4  C   UNL     1       1.569   8.536  20.278  0.00  0.00    +0.000 A 
ATOM      5  C   UNL     1       2.067   7.515  19.447  0.00  0.00    +0.000 A 
ATOM      6  C   UNL     1       2.338   7.812  18.114  0.00  0.00    +0.000 A 
ATOM      7  C   UNL     1       2.059   9.101  17.639  0.00  0.00    +0.000 A 
ATOM      8  C   UNL     1       1.383  10.083  18.427  0.00  0.00    +0.000 A 
ATOM      9  C   UNL     1       1.017   9.733  19.757  0.00  0.00    +0.000 A 
ENDROOT
BRANCH   1  10
ATOM     10  S   UNL     1      -0.621  11.517  21.456  0.00  0.00    +0.000 S 
ATOM     11  O   UNL     1      -0.304  11.553  22.843  0.00  0.00    +0.000 OA
ATOM     12  O   UNL     1      -1.968  11.490  20.896  0.00  0.00    +0.000 OA
BRANCH  10  16
ATOM     13  C   UNL     1       1.686  15.025  19.151  0.00  0.00    +0.000 A 
ATOM     14  C   UNL     1       0.517  14.399  18.669  0.00  0.00    +0.000 A 
ATOM     15  C   UNL     1      -0.194  13.412  19.400  0.00  0.00    +0.000 A 
ATOM     16  C   UNL     1       0.241  12.991  20.669  0.00  0.00    +0.000 A 
ATOM     17  C   UNL     1       1.391  13.633  21.188  0.00  0.00    +0.000 A 
ATOM     18  C   UNL     1       2.093  14.638  20.444  0.00  0.00    +0.000 A 
BRANCH  13  20
ATOM     19  C   UNL     1       1.645  17.367  17.987  0.00  0.00    +0.000 C 
ATOM     20  C   UNL     1       2.399  16.036  18.239  0.00  0.00    +0.000 C 
ATOM     21  C   UNL     1       3.836  16.403  18.662  0.00  0.00    +0.000 C 
ENDBRANCH  13  20
ENDBRANCH  10  16
ENDBRANCH   1  10
BRANCH   5  22
ATOM     22  C   UNL     1       2.120   6.102  19.992  0.00  0.00    +0.000 C 
BRANCH  22  23
ATOM     23  N   UNL     1       2.034   5.042  19.004  0.00  0.00    +0.000 NA
ATOM     24  C   UNL     1       1.443   3.834  19.620  0.00  0.00    +0.000 C 
ATOM     25  C   UNL     1       1.256   2.726  18.564  0.00  0.00    +0.000 C 
ATOM     26  N   UNL     1       2.478   2.370  17.812  0.00  0.00    +0.000 NA
ATOM     27  C   UNL     1       3.403   1.584  18.624  0.00  0.00    +0.000 C 
ATOM     28  C   UNL     1       3.127   3.606  17.325  0.00  0.00    +0.000 C 
ATOM     29  C   UNL     1       3.332   4.689  18.404  0.00  0.00    +0.000 C 
ENDBRANCH  22  23
ENDBRANCH   5  22
TORSDOF 5
ENDMDL
MODEL 9
REMARK VINA RESULT:      -8.3      5.632      8.992
REMARK  Name = 
REMARK  8 active torsions:
REMARK  status: ('A' for Active; 'I' for Inactive)
REMARK    1  A    between atoms: C_1  and  C_2
REMARK    2  A    between atoms: C_2  and  C_3
REMARK    3  A    between atoms: C_2  and  C_4
REMARK    4  A    between atoms: C_7  and  S_8
REMARK    5  A    between atoms: S_8  and  N_11
REMARK    6  A    between atoms: C_15  and  C_16
REMARK    7  A    between atoms: C_16  and  N_17
REMARK    8  A    between atoms: N_20  and  C_21
REMARK                            x       y       z     vdW  Elec       q    Type
REMARK                         _______ _______ _______ _____ _____    ______ ____
ROOT
ATOM      1  N   UNL     1       0.210  10.076  20.697  0.00  0.00    +0.000 N 
ATOM      2  C   UNL     1       0.034   8.963  21.504  0.00  0.00    +0.000 A 
ATOM      3  C   UNL     1       1.320   8.502  21.611  0.00  0.00    +0.000 A 
ATOM      4  C   UNL     1       1.596   8.455  20.219  0.00  0.00    +0.000 A 
ATOM      5  C   UNL     1       2.089   7.405  19.421  0.00  0.00    +0.000 A 
ATOM      6  C   UNL     1       2.403   7.669  18.091  0.00  0.00    +0.000 A 
ATOM      7  C   UNL     1       2.171   8.955  17.584  0.00  0.00    +0.000 A 
ATOM      8  C   UNL     1       1.500   9.970  18.335  0.00  0.00    +0.000 A 
ATOM      9  C   UNL     1       1.089   9.655  19.661  0.00  0.00    +0.000 A 
ENDROOT
BRANCH   1  10
ATOM     10  S   UNL     1      -0.547  11.514  21.280  0.00  0.00    +0.000 S 
ATOM     11  O   UNL     1      -0.158  11.638  22.644  0.00  0.00    +0.000 OA
ATOM     12  O   UNL     1      -1.921  11.442  20.796  0.00  0.00    +0.000 OA
BRANCH  10  16
ATOM     13  C   UNL     1       1.615  15.296  19.293  0.00  0.00    +0.000 A 
ATOM     14  C   UNL     1       2.296  14.264  19.971  0.00  0.00    +0.000 A 
ATOM     15  C   UNL     1       1.647  13.114  20.490  0.00  0.00    +0.000 A 
ATOM     16  C   UNL     1       0.257  12.941  20.359  0.00  0.00    +0.000 A 
ATOM     17  C   UNL     1      -0.441  13.947  19.650  0.00  0.00    +0.000 A 
ATOM     18  C   UNL     1       0.230  15.099  19.119  0.00  0.00    +0.000 A 
BRANCH  13  20
ATOM     19  C   UNL     1       3.428  17.093  19.862  0.00  0.00    +0.000 C 
ATOM     20  C   UNL     1       2.423  16.520  18.831  0.00  0.00    +0.000 C 
ATOM     21  C   UNL     1       3.188  16.339  17.504  0.00  0.00    +0.000 C 
ENDBRANCH  13  20
ENDBRANCH  10  16
ENDBRANCH   1  10
BRANCH   5  22
ATOM     22  C   UNL     1       2.091   6.002  19.995  0.00  0.00    +0.000 C 
BRANCH  22  23
ATOM     23  N   UNL     1       1.987   4.926  19.026  0.00  0.00    +0.000 NA
ATOM     24  C   UNL     1       1.433   3.720  19.679  0.00  0.00    +0.000 C 
ATOM     25  C   UNL     1       1.227   2.593  18.647  0.00  0.00    +0.000 C 
ATOM     26  N   UNL     1       2.429   2.243  17.859  0.00  0.00    +0.000 NA
ATOM     27  C   UNL     1       3.391   1.481  18.652  0.00  0.00    +0.000 C 
ATOM     28  C   UNL     1       3.044   3.480  17.333  0.00  0.00    +0.000 C 
ATOM     29  C   UNL     1       3.270   4.581  18.389  0.00  0.00    +0.000 C 
ENDBRANCH  22  23
ENDBRANCH   5  22
TORSDOF 5
ENDMDL
