MODEL 1
REMARK VINA RESULT:      -8.9      0.000      0.000
REMARK  Name = 
REMARK  6 active torsions:
REMARK  status: ('A' for Active; 'I' for Inactive)
REMARK    1  A    between atoms: C_1  and  C_2
REMARK    2  A    between atoms: C_6  and  N_7
REMARK    3  A    between atoms: C_8  and  C_10
REMARK    4  A    between atoms: C_10  and  S_11
REMARK    5  A    between atoms: S_11  and  C_12
REMARK    6  A    between atoms: N_25  and  C_26
REMARK                            x       y       z     vdW  Elec       q    Type
REMARK                         _______ _______ _______ _____ _____    ______ ____
ROOT
ATOM      1  C   UNL     1       6.023   5.020  17.866  0.00  0.00    +0.000 A 
ATOM      2  N   UNL     1       6.732   5.211  16.784  0.00  0.00    +0.000 NA
ATOM      3  C   UNL     1       6.202   4.620  15.634  0.00  0.00    +0.000 A 
ATOM      4  C   UNL     1       5.061   3.881  15.649  0.00  0.00    +0.000 A 
ATOM      5  O   UNL     1       4.773   3.381  14.424  0.00  0.00    +0.000 OA
ATOM      6  C   UNL     1       5.760   3.839  13.598  0.00  0.00    +0.000 A 
ATOM      7  C   UNL     1       5.852   3.555  12.237  0.00  0.00    +0.000 A 
ATOM      8  C   UNL     1       6.926   4.130  11.554  0.00  0.00    +0.000 A 
ATOM      9  C   UNL     1       7.849   4.947  12.216  0.00  0.00    +0.000 A 
ATOM     10  C   UNL     1       7.736   5.209  13.592  0.00  0.00    +0.000 A 
ATOM     11  C   UNL     1       6.668   4.636  14.303  0.00  0.00    +0.000 A 
ATOM     12  C   UNL     1       4.272   3.647  16.804  0.00  0.00    +0.000 A 
ATOM     13  O   UNL     1       3.277   2.925  16.794  0.00  0.00    +0.000 OA
ATOM     14  N   UNL     1       4.796   4.305  17.943  0.00  0.00    +0.000 N 
ENDROOT
BRANCH  14  15
ATOM     15  C   UNL     1       4.026   4.115  19.140  0.00  0.00    +0.000 A 
ATOM     16  C   UNL     1       4.144   2.947  19.907  0.00  0.00    +0.000 A 
ATOM     17  C   UNL     1       3.198   2.663  20.898  0.00  0.00    +0.000 A 
ATOM     18  C   UNL     1       2.145   3.542  21.130  0.00  0.00    +0.000 A 
ATOM     19  F   UNL     1       1.205   3.227  22.031  0.00  0.00    +0.000 F 
ATOM     20  C   UNL     1       2.036   4.725  20.416  0.00  0.00    +0.000 A 
ATOM     21  C   UNL     1       2.975   5.010  19.425  0.00  0.00    +0.000 A 
ENDBRANCH  14  15
BRANCH   1  22
ATOM     22  S   UNL     1       6.624   5.802  19.346  0.00  0.00    +0.000 S 
BRANCH  22  23
ATOM     23  C   UNL     1       8.242   6.457  18.811  0.00  0.00    +0.000 C 
BRANCH  23  25
ATOM     24  N   UNL     1       8.991   8.772  19.202  0.00  0.00    +0.000 N 
ATOM     25  C   UNL     1       8.214   7.941  18.416  0.00  0.00    +0.000 C 
ATOM     26  O   UNL     1       7.478   8.306  17.504  0.00  0.00    +0.000 OA
ATOM     27  H   UNL     1       9.560   8.308  19.899  0.00  0.00    +0.000 HD
BRANCH  24  33
ATOM     28  C   UNL     1       9.665  12.964  21.678  0.00  0.00    +0.000 C 
ATOM     29  C   UNL     1       9.453  12.266  20.367  0.00  0.00    +0.000 A 
ATOM     30  C   UNL     1       9.346  12.987  19.176  0.00  0.00    +0.000 A 
ATOM     31  C   UNL     1       9.132  12.313  17.973  0.00  0.00    +0.000 A 
ATOM     32  C   UNL     1       9.015  10.918  17.951  0.00  0.00    +0.000 A 
ATOM     33  C   UNL     1       9.116  10.180  19.130  0.00  0.00    +0.000 A 
ATOM     34  C   UNL     1       9.345  10.865  20.333  0.00  0.00    +0.000 A 
ENDBRANCH  24  33
ENDBRANCH  23  25
ENDBRANCH  22  23
ENDBRANCH   1  22
TORSDOF 5
ENDMDL
MODEL 2
REMARK VINA RESULT:      -8.7      4.035      8.248
REMARK  Name = 
REMARK  6 active torsions:
REMARK  status: ('A' for Active; 'I' for Inactive)
REMARK    1  A    between atoms: C_1  and  C_2
REMARK    2  A    between atoms: C_6  and  N_7
REMARK    3  A    between atoms: C_8  and  C_10
REMARK    4  A    between atoms: C_10  and  S_11
REMARK    5  A    between atoms: S_11  and  C_12
REMARK    6  A    between atoms: N_25  and  C_26
REMARK                            x       y       z     vdW  Elec       q    Type
REMARK                         _______ _______ _______ _____ _____    ______ ____
ROOT
ATOM      1  C   UNL     1       2.625   7.254  18.438  0.00  0.00    +0.000 A 
ATOM      2  N   UNL     1       2.192   8.435  18.795  0.00  0.00    +0.000 NA
ATOM      3  C   UNL     1       1.478   8.449  19.997  0.00  0.00    +0.000 A 
ATOM      4  C   UNL     1       1.231   7.322  20.716  0.00  0.00    +0.000 A 
ATOM      5  O   UNL     1       0.490   7.585  21.818  0.00  0.00    +0.000 OA
ATOM      6  C   UNL     1       0.278   8.934  21.806  0.00  0.00    +0.000 A 
ATOM      7  C   UNL     1      -0.450   9.632  22.767  0.00  0.00    +0.000 A 
ATOM      8  C   UNL     1      -0.543  11.015  22.593  0.00  0.00    +0.000 A 
ATOM      9  C   UNL     1       0.072  11.649  21.508  0.00  0.00    +0.000 A 
ATOM     10  C   UNL     1       0.793  10.918  20.548  0.00  0.00    +0.000 A 
ATOM     11  C   UNL     1       0.894   9.524  20.698  0.00  0.00    +0.000 A 
ATOM     12  C   UNL     1       1.679   6.026  20.355  0.00  0.00    +0.000 A 
ATOM     13  O   UNL     1       1.388   5.019  20.998  0.00  0.00    +0.000 OA
ATOM     14  N   UNL     1       2.449   6.046  19.167  0.00  0.00    +0.000 N 
ENDROOT
BRANCH  14  15
ATOM     15  C   UNL     1       2.942   4.759  18.763  0.00  0.00    +0.000 A 
ATOM     16  C   UNL     1       2.266   3.983  17.811  0.00  0.00    +0.000 A 
ATOM     17  C   UNL     1       2.604   2.635  17.640  0.00  0.00    +0.000 A 
ATOM     18  C   UNL     1       3.616   2.067  18.406  0.00  0.00    +0.000 A 
ATOM     19  F   UNL     1       3.884   0.760  18.286  0.00  0.00    +0.000 F 
ATOM     20  C   UNL     1       4.330   2.828  19.319  0.00  0.00    +0.000 A 
ATOM     21  C   UNL     1       3.994   4.170  19.495  0.00  0.00    +0.000 A 
ENDBRANCH  14  15
BRANCH   1  22
ATOM     22  S   UNL     1       3.589   7.191  16.944  0.00  0.00    +0.000 S 
BRANCH  22  23
ATOM     23  C   UNL     1       5.231   6.688  17.562  0.00  0.00    +0.000 C 
BRANCH  23  25
ATOM     24  N   UNL     1       5.583   5.686  15.338  0.00  0.00    +0.000 N 
ATOM     25  C   UNL     1       6.193   6.212  16.462  0.00  0.00    +0.000 C 
ATOM     26  O   UNL     1       7.403   6.257  16.661  0.00  0.00    +0.000 OA
ATOM     27  H   UNL     1       4.572   5.746  15.320  0.00  0.00    +0.000 HD
BRANCH  24  33
ATOM     28  C   UNL     1       5.228   2.373  11.724  0.00  0.00    +0.000 C 
ATOM     29  C   UNL     1       6.013   3.458  12.400  0.00  0.00    +0.000 A 
ATOM     30  C   UNL     1       7.280   3.823  11.941  0.00  0.00    +0.000 A 
ATOM     31  C   UNL     1       7.996   4.824  12.599  0.00  0.00    +0.000 A 
ATOM     32  C   UNL     1       7.457   5.460  13.724  0.00  0.00    +0.000 A 
ATOM     33  C   UNL     1       6.194   5.109  14.200  0.00  0.00    +0.000 A 
ATOM     34  C   UNL     1       5.476   4.111  13.523  0.00  0.00    +0.000 A 
ENDBRANCH  24  33
ENDBRANCH  23  25
ENDBRANCH  22  23
ENDBRANCH   1  22
TORSDOF 5
ENDMDL
MODEL 3
REMARK VINA RESULT:      -8.7      6.745     10.626
REMARK  Name = 
REMARK  6 active torsions:
REMARK  status: ('A' for Active; 'I' for Inactive)
REMARK    1  A    between atoms: C_1  and  C_2
REMARK    2  A    between atoms: C_6  and  N_7
REMARK    3  A    between atoms: C_8  and  C_10
REMARK    4  A    between atoms: C_10  and  S_11
REMARK    5  A    between atoms: S_11  and  C_12
REMARK    6  A    between atoms: N_25  and  C_26
REMARK                            x       y       z     vdW  Elec       q    Type
REMARK                         _______ _______ _______ _____ _____    ______ ____
ROOT
ATOM      1  C   UNL     1       0.449  11.625  20.827  0.00  0.00    +0.000 A 
ATOM      2  N   UNL     1       1.564  12.131  21.285  0.00  0.00    +0.000 NA
ATOM      3  C   UNL     1       2.030  13.241  20.574  0.00  0.00    +0.000 A 
ATOM      4  C   UNL     1       1.389  13.731  19.480  0.00  0.00    +0.000 A 
ATOM      5  O   UNL     1       2.053  14.783  18.942  0.00  0.00    +0.000 OA
ATOM      6  C   UNL     1       3.143  14.977  19.740  0.00  0.00    +0.000 A 
ATOM      7  C   UNL     1       4.106  15.965  19.542  0.00  0.00    +0.000 A 
ATOM      8  C   UNL     1       5.142  16.017  20.477  0.00  0.00    +0.000 A 
ATOM      9  C   UNL     1       5.193  15.121  21.550  0.00  0.00    +0.000 A 
ATOM     10  C   UNL     1       4.213  14.129  21.720  0.00  0.00    +0.000 A 
ATOM     11  C   UNL     1       3.164  14.051  20.788  0.00  0.00    +0.000 A 
ATOM     12  C   UNL     1       0.183  13.204  18.952  0.00  0.00    +0.000 A 
ATOM     13  O   UNL     1      -0.338  13.635  17.926  0.00  0.00    +0.000 OA
ATOM     14  N   UNL     1      -0.300  12.119  19.723  0.00  0.00    +0.000 N 
ENDROOT
BRANCH  14  15
ATOM     15  C   UNL     1      -1.530  11.556  19.242  0.00  0.00    +0.000 A 
ATOM     16  C   UNL     1      -1.539  10.528  18.287  0.00  0.00    +0.000 A 
ATOM     17  C   UNL     1      -2.730  10.191  17.635  0.00  0.00    +0.000 A 
ATOM     18  C   UNL     1      -3.908  10.866  17.938  0.00  0.00    +0.000 A 
ATOM     19  F   UNL     1      -5.027  10.586  17.258  0.00  0.00    +0.000 F 
ATOM     20  C   UNL     1      -3.931  11.852  18.913  0.00  0.00    +0.000 A 
ATOM     21  C   UNL     1      -2.745  12.193  19.563  0.00  0.00    +0.000 A 
ENDBRANCH  14  15
BRANCH   1  22
ATOM     22  S   UNL     1      -0.216  10.246  21.732  0.00  0.00    +0.000 S 
BRANCH  22  23
ATOM     23  C   UNL     1       1.224   9.132  21.859  0.00  0.00    +0.000 C 
BRANCH  23  25
ATOM     24  N   UNL     1       1.866   6.979  20.845  0.00  0.00    +0.000 N 
ATOM     25  C   UNL     1       1.465   8.280  20.603  0.00  0.00    +0.000 C 
ATOM     26  O   UNL     1       1.363   8.800  19.495  0.00  0.00    +0.000 OA
ATOM     27  H   UNL     1       1.877   6.699  21.818  0.00  0.00    +0.000 HD
BRANCH  24  33
ATOM     28  C   UNL     1       0.899   2.524  19.008  0.00  0.00    +0.000 C 
ATOM     29  C   UNL     1       1.742   3.765  18.992  0.00  0.00    +0.000 A 
ATOM     30  C   UNL     1       2.831   3.886  18.127  0.00  0.00    +0.000 A 
ATOM     31  C   UNL     1       3.608   5.045  18.144  0.00  0.00    +0.000 A 
ATOM     32  C   UNL     1       3.309   6.086  19.031  0.00  0.00    +0.000 A 
ATOM     33  C   UNL     1       2.227   5.985  19.905  0.00  0.00    +0.000 A 
ATOM     34  C   UNL     1       1.444   4.821  19.871  0.00  0.00    +0.000 A 
ENDBRANCH  24  33
ENDBRANCH  23  25
ENDBRANCH  22  23
ENDBRANCH   1  22
TORSDOF 5
ENDMDL
MODEL 4
REMARK VINA RESULT:      -8.6      0.492      1.192
REMARK  Name = 
REMARK  6 active torsions:
REMARK  status: ('A' for Active; 'I' for Inactive)
REMARK    1  A    between atoms: C_1  and  C_2
REMARK    2  A    between atoms: C_6  and  N_7
REMARK    3  A    between atoms: C_8  and  C_10
REMARK    4  A    between atoms: C_10  and  S_11
REMARK    5  A    between atoms: S_11  and  C_12
REMARK    6  A    between atoms: N_25  and  C_26
REMARK                            x       y       z     vdW  Elec       q    Type
REMARK                         _______ _______ _______ _____ _____    ______ ____
ROOT
ATOM      1  C   UNL     1       6.126   5.189  17.799  0.00  0.00    +0.000 A 
ATOM      2  N   UNL     1       6.814   5.390  16.705  0.00  0.00    +0.000 NA
ATOM      3  C   UNL     1       6.309   4.736  15.577  0.00  0.00    +0.000 A 
ATOM      4  C   UNL     1       5.213   3.935  15.625  0.00  0.00    +0.000 A 
ATOM      5  O   UNL     1       4.944   3.384  14.417  0.00  0.00    +0.000 OA
ATOM      6  C   UNL     1       5.895   3.873  13.569  0.00  0.00    +0.000 A 
ATOM      7  C   UNL     1       5.992   3.556  12.216  0.00  0.00    +0.000 A 
ATOM      8  C   UNL     1       7.025   4.171  11.506  0.00  0.00    +0.000 A 
ATOM      9  C   UNL     1       7.905   5.059  12.136  0.00  0.00    +0.000 A 
ATOM     10  C   UNL     1       7.789   5.353  13.505  0.00  0.00    +0.000 A 
ATOM     11  C   UNL     1       6.762   4.741  14.242  0.00  0.00    +0.000 A 
ATOM     12  C   UNL     1       4.447   3.689  16.793  0.00  0.00    +0.000 A 
ATOM     13  O   UNL     1       3.496   2.912  16.814  0.00  0.00    +0.000 OA
ATOM     14  N   UNL     1       4.943   4.409  17.908  0.00  0.00    +0.000 N 
ENDROOT
BRANCH  14  15
ATOM     15  C   UNL     1       4.194   4.209  19.118  0.00  0.00    +0.000 A 
ATOM     16  C   UNL     1       4.300   3.021  19.855  0.00  0.00    +0.000 A 
ATOM     17  C   UNL     1       3.369   2.737  20.861  0.00  0.00    +0.000 A 
ATOM     18  C   UNL     1       2.345   3.636  21.137  0.00  0.00    +0.000 A 
ATOM     19  F   UNL     1       1.418   3.323  22.052  0.00  0.00    +0.000 F 
ATOM     20  C   UNL     1       2.250   4.838  20.453  0.00  0.00    +0.000 A 
ATOM     21  C   UNL     1       3.174   5.124  19.448  0.00  0.00    +0.000 A 
ENDBRANCH  14  15
BRANCH   1  22
ATOM     22  S   UNL     1       6.694   6.047  19.250  0.00  0.00    +0.000 S 
BRANCH  22  23
ATOM     23  C   UNL     1       8.296   6.726  18.700  0.00  0.00    +0.000 C 
BRANCH  23  25
ATOM     24  N   UNL     1       9.173   8.955  19.282  0.00  0.00    +0.000 N 
ATOM     25  C   UNL     1       8.289   8.247  18.487  0.00  0.00    +0.000 C 
ATOM     26  O   UNL     1       7.481   8.742  17.706  0.00  0.00    +0.000 OA
ATOM     27  H   UNL     1       9.789   8.393  19.857  0.00  0.00    +0.000 HD
BRANCH  24  33
ATOM     28  C   UNL     1      10.749  13.034  17.039  0.00  0.00    +0.000 C 
ATOM     29  C   UNL     1      10.132  12.386  18.244  0.00  0.00    +0.000 A 
ATOM     30  C   UNL     1       9.802  13.136  19.375  0.00  0.00    +0.000 A 
ATOM     31  C   UNL     1       9.245  12.506  20.488  0.00  0.00    +0.000 A 
ATOM     32  C   UNL     1       9.022  11.124  20.484  0.00  0.00    +0.000 A 
ATOM     33  C   UNL     1       9.347  10.357  19.365  0.00  0.00    +0.000 A 
ATOM     34  C   UNL     1       9.894  11.001  18.245  0.00  0.00    +0.000 A 
ENDBRANCH  24  33
ENDBRANCH  23  25
ENDBRANCH  22  23
ENDBRANCH   1  22
TORSDOF 5
ENDMDL
MODEL 5
REMARK VINA RESULT:      -8.6      8.673     11.399
REMARK  Name = 
REMARK  6 active torsions:
REMARK  status: ('A' for Active; 'I' for Inactive)
REMARK    1  A    between atoms: C_1  and  C_2
REMARK    2  A    between atoms: C_6  and  N_7
REMARK    3  A    between atoms: C_8  and  C_10
REMARK    4  A    between atoms: C_10  and  S_11
REMARK    5  A    between atoms: S_11  and  C_12
REMARK    6  A    between atoms: N_25  and  C_26
REMARK                            x       y       z     vdW  Elec       q    Type
REMARK                         _______ _______ _______ _____ _____    ______ ____
ROOT
ATOM      1  C   UNL     1       0.157  11.455  20.011  0.00  0.00    +0.000 A 
ATOM      2  N   UNL     1       0.825  10.637  19.240  0.00  0.00    +0.000 NA
ATOM      3  C   UNL     1       1.124   9.404  19.826  0.00  0.00    +0.000 A 
ATOM      4  C   UNL     1       0.774   9.097  21.103  0.00  0.00    +0.000 A 
ATOM      5  O   UNL     1       1.208   7.863  21.457  0.00  0.00    +0.000 OA
ATOM      6  C   UNL     1       1.838   7.364  20.353  0.00  0.00    +0.000 A 
ATOM      7  C   UNL     1       2.441   6.110  20.282  0.00  0.00    +0.000 A 
ATOM      8  C   UNL     1       3.022   5.769  19.059  0.00  0.00    +0.000 A 
ATOM      9  C   UNL     1       2.988   6.650  17.973  0.00  0.00    +0.000 A 
ATOM     10  C   UNL     1       2.380   7.912  18.076  0.00  0.00    +0.000 A 
ATOM     11  C   UNL     1       1.796   8.282  19.299  0.00  0.00    +0.000 A 
ATOM     12  C   UNL     1       0.056   9.960  21.969  0.00  0.00    +0.000 A 
ATOM     13  O   UNL     1      -0.193   9.673  23.138  0.00  0.00    +0.000 OA
ATOM     14  N   UNL     1      -0.287  11.178  21.333  0.00  0.00    +0.000 N 
ENDROOT
BRANCH  14  15
ATOM     15  C   UNL     1      -1.030  12.086  22.161  0.00  0.00    +0.000 A 
ATOM     16  C   UNL     1      -2.426  12.000  22.270  0.00  0.00    +0.000 A 
ATOM     17  C   UNL     1      -3.147  13.049  22.850  0.00  0.00    +0.000 A 
ATOM     18  C   UNL     1      -2.482  14.174  23.328  0.00  0.00    +0.000 A 
ATOM     19  F   UNL     1      -3.186  15.203  23.816  0.00  0.00    +0.000 F 
ATOM     20  C   UNL     1      -1.099  14.258  23.274  0.00  0.00    +0.000 A 
ATOM     21  C   UNL     1      -0.377  13.216  22.694  0.00  0.00    +0.000 A 
ENDBRANCH  14  15
BRANCH   1  22
ATOM     22  S   UNL     1      -0.299  13.016  19.290  0.00  0.00    +0.000 S 
BRANCH  22  23
ATOM     23  C   UNL     1      -1.289  12.502  17.844  0.00  0.00    +0.000 C 
BRANCH  23  25
ATOM     24  N   UNL     1      -3.657  12.372  18.517  0.00  0.00    +0.000 N 
ATOM     25  C   UNL     1      -2.518  11.653  18.200  0.00  0.00    +0.000 C 
ATOM     26  O   UNL     1      -2.411  10.431  18.251  0.00  0.00    +0.000 OA
ATOM     27  H   UNL     1      -3.586  13.376  18.401  0.00  0.00    +0.000 HD
BRANCH  24  33
ATOM     28  C   UNL     1      -7.102  12.422  22.023  0.00  0.00    +0.000 C 
ATOM     29  C   UNL     1      -6.626  11.908  20.695  0.00  0.00    +0.000 A 
ATOM     30  C   UNL     1      -7.372  10.973  19.976  0.00  0.00    +0.000 A 
ATOM     31  C   UNL     1      -6.898  10.499  18.752  0.00  0.00    +0.000 A 
ATOM     32  C   UNL     1      -5.673  10.948  18.243  0.00  0.00    +0.000 A 
ATOM     33  C   UNL     1      -4.911  11.880  18.948  0.00  0.00    +0.000 A 
ATOM     34  C   UNL     1      -5.403  12.361  20.171  0.00  0.00    +0.000 A 
ENDBRANCH  24  33
ENDBRANCH  23  25
ENDBRANCH  22  23
ENDBRANCH   1  22
TORSDOF 5
ENDMDL
MODEL 6
REMARK VINA RESULT:      -8.5      8.816     11.587
REMARK  Name = 
REMARK  6 active torsions:
REMARK  status: ('A' for Active; 'I' for Inactive)
REMARK    1  A    between atoms: C_1  and  C_2
REMARK    2  A    between atoms: C_6  and  N_7
REMARK    3  A    between atoms: C_8  and  C_10
REMARK    4  A    between atoms: C_10  and  S_11
REMARK    5  A    between atoms: S_11  and  C_12
REMARK    6  A    between atoms: N_25  and  C_26
REMARK                            x       y       z     vdW  Elec       q    Type
REMARK                         _______ _______ _______ _____ _____    ______ ____
ROOT
ATOM      1  C   UNL     1      -0.250  11.492  19.781  0.00  0.00    +0.000 A 
ATOM      2  N   UNL     1       0.363  10.620  19.023  0.00  0.00    +0.000 NA
ATOM      3  C   UNL     1       0.884   9.521  19.711  0.00  0.00    +0.000 A 
ATOM      4  C   UNL     1       0.786   9.389  21.061  0.00  0.00    +0.000 A 
ATOM      5  O   UNL     1       1.400   8.263  21.498  0.00  0.00    +0.000 OA
ATOM      6  C   UNL     1       1.887   7.651  20.379  0.00  0.00    +0.000 A 
ATOM      7  C   UNL     1       2.598   6.453  20.375  0.00  0.00    +0.000 A 
ATOM      8  C   UNL     1       3.000   5.973  19.126  0.00  0.00    +0.000 A 
ATOM      9  C   UNL     1       2.692   6.670  17.952  0.00  0.00    +0.000 A 
ATOM     10  C   UNL     1       1.980   7.881  17.987  0.00  0.00    +0.000 A 
ATOM     11  C   UNL     1       1.572   8.387  19.232  0.00  0.00    +0.000 A 
ATOM     12  C   UNL     1       0.135  10.316  21.914  0.00  0.00    +0.000 A 
ATOM     13  O   UNL     1       0.116  10.195  23.136  0.00  0.00    +0.000 OA
ATOM     14  N   UNL     1      -0.435  11.390  21.187  0.00  0.00    +0.000 N 
ENDROOT
BRANCH  14  15
ATOM     15  C   UNL     1      -1.122  12.353  22.001  0.00  0.00    +0.000 A 
ATOM     16  C   UNL     1      -0.472  13.498  22.483  0.00  0.00    +0.000 A 
ATOM     17  C   UNL     1      -1.068  14.269  23.488  0.00  0.00    +0.000 A 
ATOM     18  C   UNL     1      -2.308  13.906  24.004  0.00  0.00    +0.000 A 
ATOM     19  F   UNL     1      -2.836  14.608  25.015  0.00  0.00    +0.000 F 
ATOM     20  C   UNL     1      -2.989  12.805  23.508  0.00  0.00    +0.000 A 
ATOM     21  C   UNL     1      -2.397  12.032  22.509  0.00  0.00    +0.000 A 
ENDBRANCH  14  15
BRANCH   1  22
ATOM     22  S   UNL     1      -0.982  12.881  18.945  0.00  0.00    +0.000 S 
BRANCH  22  23
ATOM     23  C   UNL     1      -1.861  12.082  17.559  0.00  0.00    +0.000 C 
BRANCH  23  25
ATOM     24  N   UNL     1      -3.945  12.198  18.872  0.00  0.00    +0.000 N 
ATOM     25  C   UNL     1      -3.215  11.469  17.950  0.00  0.00    +0.000 C 
ATOM     26  O   UNL     1      -3.532  10.374  17.496  0.00  0.00    +0.000 OA
ATOM     27  H   UNL     1      -3.553  13.096  19.127  0.00  0.00    +0.000 HD
BRANCH  24  33
ATOM     28  C   UNL     1      -6.960  12.845  22.699  0.00  0.00    +0.000 C 
ATOM     29  C   UNL     1      -6.682  12.189  21.378  0.00  0.00    +0.000 A 
ATOM     30  C   UNL     1      -7.582  11.278  20.823  0.00  0.00    +0.000 A 
ATOM     31  C   UNL     1      -7.291  10.669  19.601  0.00  0.00    +0.000 A 
ATOM     32  C   UNL     1      -6.096  10.958  18.932  0.00  0.00    +0.000 A 
ATOM     33  C   UNL     1      -5.182  11.864  19.471  0.00  0.00    +0.000 A 
ATOM     34  C   UNL     1      -5.490  12.480  20.693  0.00  0.00    +0.000 A 
ENDBRANCH  24  33
ENDBRANCH  23  25
ENDBRANCH  22  23
ENDBRANCH   1  22
TORSDOF 5
ENDMDL
MODEL 7
REMARK VINA RESULT:      -8.5      9.078     11.318
REMARK  Name = 
REMARK  6 active torsions:
REMARK  status: ('A' for Active; 'I' for Inactive)
REMARK    1  A    between atoms: C_1  and  C_2
REMARK    2  A    between atoms: C_6  and  N_7
REMARK    3  A    between atoms: C_8  and  C_10
REMARK    4  A    between atoms: C_10  and  S_11
REMARK    5  A    between atoms: S_11  and  C_12
REMARK    6  A    between atoms: N_25  and  C_26
REMARK                            x       y       z     vdW  Elec       q    Type
REMARK                         _______ _______ _______ _____ _____    ______ ____
ROOT
ATOM      1  C   UNL     1      -1.803  12.181  20.911  0.00  0.00    +0.000 A 
ATOM      2  N   UNL     1      -1.573  11.494  19.823  0.00  0.00    +0.000 NA
ATOM      3  C   UNL     1      -2.604  11.540  18.881  0.00  0.00    +0.000 A 
ATOM      4  C   UNL     1      -3.762  12.219  19.096  0.00  0.00    +0.000 A 
ATOM      5  O   UNL     1      -4.621  12.083  18.057  0.00  0.00    +0.000 OA
ATOM      6  C   UNL     1      -3.972  11.305  17.142  0.00  0.00    +0.000 A 
ATOM      7  C   UNL     1      -4.503  10.912  15.915  0.00  0.00    +0.000 A 
ATOM      8  C   UNL     1      -3.679  10.127  15.105  0.00  0.00    +0.000 A 
ATOM      9  C   UNL     1      -2.391   9.768  15.517  0.00  0.00    +0.000 A 
ATOM     10  C   UNL     1      -1.885  10.172  16.764  0.00  0.00    +0.000 A 
ATOM     11  C   UNL     1      -2.698  10.955  17.601  0.00  0.00    +0.000 A 
ATOM     12  C   UNL     1      -4.048  12.969  20.265  0.00  0.00    +0.000 A 
ATOM     13  O   UNL     1      -5.129  13.523  20.452  0.00  0.00    +0.000 OA
ATOM     14  N   UNL     1      -2.965  12.955  21.178  0.00  0.00    +0.000 N 
ENDROOT
BRANCH  14  15
ATOM     15  C   UNL     1      -3.195  13.713  22.375  0.00  0.00    +0.000 A 
ATOM     16  C   UNL     1      -2.751  15.038  22.499  0.00  0.00    +0.000 A 
ATOM     17  C   UNL     1      -2.738  15.656  23.755  0.00  0.00    +0.000 A 
ATOM     18  C   UNL     1      -3.174  14.962  24.879  0.00  0.00    +0.000 A 
ATOM     19  F   UNL     1      -3.091  15.537  26.086  0.00  0.00    +0.000 F 
ATOM     20  C   UNL     1      -3.662  13.669  24.772  0.00  0.00    +0.000 A 
ATOM     21  C   UNL     1      -3.673  13.048  23.523  0.00  0.00    +0.000 A 
ENDBRANCH  14  15
BRANCH   1  22
ATOM     22  S   UNL     1      -0.495  12.201  22.117  0.00  0.00    +0.000 S 
BRANCH  22  23
ATOM     23  C   UNL     1      -0.384  10.445  22.600  0.00  0.00    +0.000 C 
BRANCH  23  25
ATOM     24  N   UNL     1       0.540   9.345  20.597  0.00  0.00    +0.000 N 
ATOM     25  C   UNL     1       0.763   9.682  21.920  0.00  0.00    +0.000 C 
ATOM     26  O   UNL     1       1.747   9.362  22.580  0.00  0.00    +0.000 OA
ATOM     27  H   UNL     1      -0.315   9.708  20.192  0.00  0.00    +0.000 HD
BRANCH  24  33
ATOM     28  C   UNL     1       3.138   5.221  19.968  0.00  0.00    +0.000 C 
ATOM     29  C   UNL     1       2.662   6.536  19.423  0.00  0.00    +0.000 A 
ATOM     30  C   UNL     1       3.063   6.981  18.162  0.00  0.00    +0.000 A 
ATOM     31  C   UNL     1       2.619   8.215  17.687  0.00  0.00    +0.000 A 
ATOM     32  C   UNL     1       1.780   9.017  18.470  0.00  0.00    +0.000 A 
ATOM     33  C   UNL     1       1.369   8.592  19.733  0.00  0.00    +0.000 A 
ATOM     34  C   UNL     1       1.810   7.343  20.197  0.00  0.00    +0.000 A 
ENDBRANCH  24  33
ENDBRANCH  23  25
ENDBRANCH  22  23
ENDBRANCH   1  22
TORSDOF 5
ENDMDL
MODEL 8
REMARK VINA RESULT:      -8.3      6.651     10.475
REMARK  Name = 
REMARK  6 active torsions:
REMARK  status: ('A' for Active; 'I' for Inactive)
REMARK    1  A    between atoms: C_1  and  C_2
REMARK    2  A    between atoms: C_6  and  N_7
REMARK    3  A    between atoms: C_8  and  C_10
REMARK    4  A    between atoms: C_10  and  S_11
REMARK    5  A    between atoms: S_11  and  C_12
REMARK    6  A    between atoms: N_25  and  C_26
REMARK                            x       y       z     vdW  Elec       q    Type
REMARK                         _______ _______ _______ _____ _____    ______ ____
ROOT
ATOM      1  C   UNL     1       1.120  12.521  19.508  0.00  0.00    +0.000 A 
ATOM      2  N   UNL     1       2.196  12.908  18.873  0.00  0.00    +0.000 NA
ATOM      3  C   UNL     1       2.897  13.942  19.499  0.00  0.00    +0.000 A 
ATOM      4  C   UNL     1       2.475  14.517  20.657  0.00  0.00    +0.000 A 
ATOM      5  O   UNL     1       3.297  15.520  21.045  0.00  0.00    +0.000 OA
ATOM      6  C   UNL     1       4.289  15.568  20.107  0.00  0.00    +0.000 A 
ATOM      7  C   UNL     1       5.352  16.468  20.120  0.00  0.00    +0.000 A 
ATOM      8  C   UNL     1       6.278  16.350  19.082  0.00  0.00    +0.000 A 
ATOM      9  C   UNL     1       6.133  15.373  18.092  0.00  0.00    +0.000 A 
ATOM     10  C   UNL     1       5.045  14.483  18.099  0.00  0.00    +0.000 A 
ATOM     11  C   UNL     1       4.095  14.587  19.130  0.00  0.00    +0.000 A 
ATOM     12  C   UNL     1       1.311  14.128  21.369  0.00  0.00    +0.000 A 
ATOM     13  O   UNL     1       0.927  14.708  22.381  0.00  0.00    +0.000 OA
ATOM     14  N   UNL     1       0.652  13.040  20.746  0.00  0.00    +0.000 N 
ENDROOT
BRANCH  14  15
ATOM     15  C   UNL     1      -0.527  12.595  21.435  0.00  0.00    +0.000 A 
ATOM     16  C   UNL     1      -1.711  13.346  21.419  0.00  0.00    +0.000 A 
ATOM     17  C   UNL     1      -2.745  13.040  22.311  0.00  0.00    +0.000 A 
ATOM     18  C   UNL     1      -2.604  11.985  23.207  0.00  0.00    +0.000 A 
ATOM     19  F   UNL     1      -3.569  11.745  24.104  0.00  0.00    +0.000 F 
ATOM     20  C   UNL     1      -1.463  11.199  23.206  0.00  0.00    +0.000 A 
ATOM     21  C   UNL     1      -0.428  11.503  22.321  0.00  0.00    +0.000 A 
ENDBRANCH  14  15
BRANCH   1  22
ATOM     22  S   UNL     1       0.225  11.167  18.782  0.00  0.00    +0.000 S 
BRANCH  22  23
ATOM     23  C   UNL     1       1.085   9.714  19.476  0.00  0.00    +0.000 C 
BRANCH  23  25
ATOM     24  N   UNL     1       2.260   7.627  18.894  0.00  0.00    +0.000 N 
ATOM     25  C   UNL     1       1.770   8.832  18.422  0.00  0.00    +0.000 C 
ATOM     26  O   UNL     1       1.904   9.256  17.278  0.00  0.00    +0.000 OA
ATOM     27  H   UNL     1       2.043   7.416  19.860  0.00  0.00    +0.000 HD
BRANCH  24  33
ATOM     28  C   UNL     1       2.522   2.921  17.500  0.00  0.00    +0.000 C 
ATOM     29  C   UNL     1       3.118   4.298  17.495  0.00  0.00    +0.000 A 
ATOM     30  C   UNL     1       4.338   4.553  16.866  0.00  0.00    +0.000 A 
ATOM     31  C   UNL     1       4.878   5.839  16.891  0.00  0.00    +0.000 A 
ATOM     32  C   UNL     1       4.210   6.877  17.552  0.00  0.00    +0.000 A 
ATOM     33  C   UNL     1       2.991   6.643  18.188  0.00  0.00    +0.000 A 
ATOM     34  C   UNL     1       2.450   5.349  18.146  0.00  0.00    +0.000 A 
ENDBRANCH  24  33
ENDBRANCH  23  25
ENDBRANCH  22  23
ENDBRANCH   1  22
TORSDOF 5
ENDMDL
MODEL 9
REMARK VINA RESULT:      -8.3      7.262     11.247
REMARK  Name = 
REMARK  6 active torsions:
REMARK  status: ('A' for Active; 'I' for Inactive)
REMARK    1  A    between atoms: C_1  and  C_2
REMARK    2  A    between atoms: C_6  and  N_7
REMARK    3  A    between atoms: C_8  and  C_10
REMARK    4  A    between atoms: C_10  and  S_11
REMARK    5  A    between atoms: S_11  and  C_12
REMARK    6  A    between atoms: N_25  and  C_26
REMARK                            x       y       z     vdW  Elec       q    Type
REMARK                         _______ _______ _______ _____ _____    ______ ____
ROOT
ATOM      1  C   UNL     1      -0.010  12.438  21.246  0.00  0.00    +0.000 A 
ATOM      2  N   UNL     1       0.710  13.307  21.906  0.00  0.00    +0.000 NA
ATOM      3  C   UNL     1       1.164  14.384  21.138  0.00  0.00    +0.000 A 
ATOM      4  C   UNL     1       0.901  14.498  19.810  0.00  0.00    +0.000 A 
ATOM      5  O   UNL     1       1.478  15.603  19.279  0.00  0.00    +0.000 OA
ATOM      6  C   UNL     1       2.113  16.221  20.318  0.00  0.00    +0.000 A 
ATOM      7  C   UNL     1       2.844  17.403  20.212  0.00  0.00    +0.000 A 
ATOM      8  C   UNL     1       3.408  17.892  21.392  0.00  0.00    +0.000 A 
ATOM      9  C   UNL     1       3.235  17.221  22.607  0.00  0.00    +0.000 A 
ATOM     10  C   UNL     1       2.500  16.026  22.683  0.00  0.00    +0.000 A 
ATOM     11  C   UNL     1       1.929  15.509  21.507  0.00  0.00    +0.000 A 
ATOM     12  C   UNL     1       0.130  13.573  19.061  0.00  0.00    +0.000 A 
ATOM     13  O   UNL     1      -0.039  13.676  17.848  0.00  0.00    +0.000 OA
ATOM     14  N   UNL     1      -0.367  12.523  19.872  0.00  0.00    +0.000 N 
ENDROOT
BRANCH  14  15
ATOM     15  C   UNL     1      -1.170  11.564  19.167  0.00  0.00    +0.000 A 
ATOM     16  C   UNL     1      -0.586  10.506  18.454  0.00  0.00    +0.000 A 
ATOM     17  C   UNL     1      -1.358   9.758  17.558  0.00  0.00    +0.000 A 
ATOM     18  C   UNL     1      -2.706  10.054  17.380  0.00  0.00    +0.000 A 
ATOM     19  F   UNL     1      -3.418   9.379  16.469  0.00  0.00    +0.000 F 
ATOM     20  C   UNL     1      -3.313  11.064  18.111  0.00  0.00    +0.000 A 
ATOM     21  C   UNL     1      -2.547  11.815  19.002  0.00  0.00    +0.000 A 
ENDBRANCH  14  15
BRANCH   1  22
ATOM     22  S   UNL     1      -0.660  11.079  22.191  0.00  0.00    +0.000 S 
BRANCH  22  23
ATOM     23  C   UNL     1       0.773   9.953  22.290  0.00  0.00    +0.000 C 
BRANCH  23  25
ATOM     24  N   UNL     1       1.773   8.106  20.999  0.00  0.00    +0.000 N 
ATOM     25  C   UNL     1       0.600   8.652  21.491  0.00  0.00    +0.000 C 
ATOM     26  O   UNL     1      -0.530   8.222  21.279  0.00  0.00    +0.000 OA
ATOM     27  H   UNL     1       2.625   8.570  21.287  0.00  0.00    +0.000 HD
BRANCH  24  33
ATOM     28  C   UNL     1       1.362   3.221  20.642  0.00  0.00    +0.000 C 
ATOM     29  C   UNL     1       1.723   4.531  20.005  0.00  0.00    +0.000 A 
ATOM     30  C   UNL     1       2.220   4.584  18.701  0.00  0.00    +0.000 A 
ATOM     31  C   UNL     1       2.563   5.814  18.138  0.00  0.00    +0.000 A 
ATOM     32  C   UNL     1       2.422   6.996  18.874  0.00  0.00    +0.000 A 
ATOM     33  C   UNL     1       1.929   6.964  20.179  0.00  0.00    +0.000 A 
ATOM     34  C   UNL     1       1.574   5.724  20.731  0.00  0.00    +0.000 A 
ENDBRANCH  24  33
ENDBRANCH  23  25
ENDBRANCH  22  23
ENDBRANCH   1  22
TORSDOF 5
ENDMDL
