MODEL 1
REMARK VINA RESULT:      -6.5      0.000      0.000
REMARK  Name = 
REMARK  14 active torsions:
REMARK  status: ('A' for Active; 'I' for Inactive)
REMARK    1  A    between atoms: C_1  and  C_2
REMARK    2  A    between atoms: C_2  and  C_3
REMARK    3  A    between atoms: C_3  and  C_4
REMARK    4  A    between atoms: C_4  and  C_5
REMARK    5  A    between atoms: C_5  and  C_6
REMARK    6  A    between atoms: C_6  and  C_7
REMARK    7  A    between atoms: C_7  and  C_8
REMARK    8  A    between atoms: C_8  and  N_9
REMARK    9  A    between atoms: N_9  and  S_10
REMARK   10  A    between atoms: S_10  and  C_13
REMARK   11  A    between atoms: C_13  and  C_14
REMARK   12  A    between atoms: C_14  and  N_15
REMARK   13  A    between atoms: N_15  and  C_16
REMARK   14  A    between atoms: C_16  and  C_17
REMARK                            x       y       z     vdW  Elec       q    Type
REMARK                         _______ _______ _______ _____ _____    ______ ____
ROOT
ATOM      1  S   UNL     1       6.331   6.424  17.267  0.00  0.00    +0.000 S 
ATOM      2  O   UNL     1       7.210   7.449  17.790  0.00  0.00    +0.000 OA
ATOM      3  O   UNL     1       4.898   6.619  17.231  0.00  0.00    +0.000 OA
ENDROOT
BRANCH   1   4
ATOM      4  N   UNL     1       6.832   6.152  15.677  0.00  0.00    +0.000 NA
ATOM      5  H   UNL     1       6.242   6.706  15.050  0.00  0.00    +0.000 HD
BRANCH   4   6
ATOM      6  C   UNL     1       6.970   4.740  15.287  0.00  0.00    +0.000 C 
BRANCH   6   7
ATOM      7  C   UNL     1       7.030   4.606  13.770  0.00  0.00    +0.000 C 
BRANCH   7   8
ATOM      8  C   UNL     1       5.981   3.586  13.326  0.00  0.00    +0.000 C 
BRANCH   8   9
ATOM      9  C   UNL     1       6.415   2.818  12.084  0.00  0.00    +0.000 C 
BRANCH   9  10
ATOM     10  C   UNL     1       5.195   2.356  11.288  0.00  0.00    +0.000 C 
BRANCH  10  11
ATOM     11  C   UNL     1       4.068   3.383  11.374  0.00  0.00    +0.000 C 
BRANCH  11  13
ATOM     12  C   UNL     1       2.842   4.473   9.476  0.00  0.00    +0.000 C 
ATOM     13  C   UNL     1       3.049   3.184  10.255  0.00  0.00    +0.000 C 
ENDBRANCH  11  13
ENDBRANCH  10  11
ENDBRANCH   9  10
ENDBRANCH   8   9
ENDBRANCH   7   8
ENDBRANCH   6   7
ENDBRANCH   4   6
ENDBRANCH   1   4
BRANCH   1  14
ATOM     14  C   UNL     1       6.702   4.869  18.075  0.00  0.00    +0.000 C 
BRANCH  14  15
ATOM     15  C   UNL     1       5.717   4.661  19.214  0.00  0.00    +0.000 C 
BRANCH  15  16
ATOM     16  N   UNL     1       5.149   3.310  19.180  0.00  0.00    +0.000 NA
ATOM     17  H   UNL     1       4.726   3.079  20.082  0.00  0.00    +0.000 HD
BRANCH  16  18
ATOM     18  C   UNL     1       4.091   3.236  18.167  0.00  0.00    +0.000 C 
BRANCH  18  19
ATOM     19  C   UNL     1       2.757   3.303  18.816  0.00  0.00    +0.000 A 
ATOM     20  C   UNL     1       2.161   4.222  19.655  0.00  0.00    +0.000 A 
ATOM     21  C   UNL     1       0.865   3.726  19.930  0.00  0.00    +0.000 A 
ATOM     22  C   UNL     1       0.754   2.540  19.243  0.00  0.00    +0.000 A 
ATOM     23  O   UNL     1       1.897   2.275  18.561  0.00  0.00    +0.000 OA
ENDBRANCH  18  19
ENDBRANCH  16  18
ENDBRANCH  15  16
ENDBRANCH  14  15
ENDBRANCH   1  14
TORSDOF 13
ENDMDL
MODEL 2
REMARK VINA RESULT:      -6.4      1.419      1.655
REMARK  Name = 
REMARK  14 active torsions:
REMARK  status: ('A' for Active; 'I' for Inactive)
REMARK    1  A    between atoms: C_1  and  C_2
REMARK    2  A    between atoms: C_2  and  C_3
REMARK    3  A    between atoms: C_3  and  C_4
REMARK    4  A    between atoms: C_4  and  C_5
REMARK    5  A    between atoms: C_5  and  C_6
REMARK    6  A    between atoms: C_6  and  C_7
REMARK    7  A    between atoms: C_7  and  C_8
REMARK    8  A    between atoms: C_8  and  N_9
REMARK    9  A    between atoms: N_9  and  S_10
REMARK   10  A    between atoms: S_10  and  C_13
REMARK   11  A    between atoms: C_13  and  C_14
REMARK   12  A    between atoms: C_14  and  N_15
REMARK   13  A    between atoms: N_15  and  C_16
REMARK   14  A    between atoms: C_16  and  C_17
REMARK                            x       y       z     vdW  Elec       q    Type
REMARK                         _______ _______ _______ _____ _____    ______ ____
ROOT
ATOM      1  S   UNL     1       6.324   5.741  16.372  0.00  0.00    +0.000 S 
ATOM      2  O   UNL     1       7.690   6.217  16.311  0.00  0.00    +0.000 OA
ATOM      3  O   UNL     1       5.306   6.283  15.499  0.00  0.00    +0.000 OA
ENDROOT
BRANCH   1   4
ATOM      4  N   UNL     1       6.400   4.080  16.069  0.00  0.00    +0.000 NA
ATOM      5  H   UNL     1       7.332   3.745  16.327  0.00  0.00    +0.000 HD
BRANCH   4   6
ATOM      6  C   UNL     1       5.953   3.658  14.732  0.00  0.00    +0.000 C 
BRANCH   6   7
ATOM      7  C   UNL     1       6.870   4.226  13.656  0.00  0.00    +0.000 C 
BRANCH   7   8
ATOM      8  C   UNL     1       6.374   3.755  12.289  0.00  0.00    +0.000 C 
BRANCH   8   9
ATOM      9  C   UNL     1       4.854   3.758  12.198  0.00  0.00    +0.000 C 
BRANCH   9  10
ATOM     10  C   UNL     1       4.387   2.894  11.026  0.00  0.00    +0.000 C 
BRANCH  10  11
ATOM     11  C   UNL     1       3.025   3.357  10.516  0.00  0.00    +0.000 C 
BRANCH  11  13
ATOM     12  C   UNL     1       2.108   5.073   8.932  0.00  0.00    +0.000 C 
ATOM     13  C   UNL     1       3.132   3.965   9.120  0.00  0.00    +0.000 C 
ENDBRANCH  11  13
ENDBRANCH  10  11
ENDBRANCH   9  10
ENDBRANCH   8   9
ENDBRANCH   7   8
ENDBRANCH   6   7
ENDBRANCH   4   6
ENDBRANCH   1   4
BRANCH   1  14
ATOM     14  C   UNL     1       5.756   5.813  18.069  0.00  0.00    +0.000 C 
BRANCH  14  15
ATOM     15  C   UNL     1       4.710   4.730  18.282  0.00  0.00    +0.000 C 
BRANCH  15  16
ATOM     16  N   UNL     1       3.399   5.157  17.783  0.00  0.00    +0.000 NA
ATOM     17  H   UNL     1       2.885   4.358  17.406  0.00  0.00    +0.000 HD
BRANCH  16  18
ATOM     18  C   UNL     1       2.602   5.715  18.881  0.00  0.00    +0.000 C 
BRANCH  18  19
ATOM     19  C   UNL     1       2.024   4.620  19.699  0.00  0.00    +0.000 A 
ATOM     20  C   UNL     1       2.010   4.358  21.053  0.00  0.00    +0.000 A 
ATOM     21  C   UNL     1       1.286   3.154  21.219  0.00  0.00    +0.000 A 
ATOM     22  C   UNL     1       0.905   2.759  19.958  0.00  0.00    +0.000 A 
ATOM     23  O   UNL     1       1.346   3.644  19.027  0.00  0.00    +0.000 OA
ENDBRANCH  18  19
ENDBRANCH  16  18
ENDBRANCH  15  16
ENDBRANCH  14  15
ENDBRANCH   1  14
TORSDOF 13
ENDMDL
MODEL 3
REMARK VINA RESULT:      -6.3      4.344      6.805
REMARK  Name = 
REMARK  14 active torsions:
REMARK  status: ('A' for Active; 'I' for Inactive)
REMARK    1  A    between atoms: C_1  and  C_2
REMARK    2  A    between atoms: C_2  and  C_3
REMARK    3  A    between atoms: C_3  and  C_4
REMARK    4  A    between atoms: C_4  and  C_5
REMARK    5  A    between atoms: C_5  and  C_6
REMARK    6  A    between atoms: C_6  and  C_7
REMARK    7  A    between atoms: C_7  and  C_8
REMARK    8  A    between atoms: C_8  and  N_9
REMARK    9  A    between atoms: N_9  and  S_10
REMARK   10  A    between atoms: S_10  and  C_13
REMARK   11  A    between atoms: C_13  and  C_14
REMARK   12  A    between atoms: C_14  and  N_15
REMARK   13  A    between atoms: N_15  and  C_16
REMARK   14  A    between atoms: C_16  and  C_17
REMARK                            x       y       z     vdW  Elec       q    Type
REMARK                         _______ _______ _______ _____ _____    ______ ____
ROOT
ATOM      1  S   UNL     1       6.924   4.950  17.306  0.00  0.00    +0.000 S 
ATOM      2  O   UNL     1       6.663   4.253  16.064  0.00  0.00    +0.000 OA
ATOM      3  O   UNL     1       7.808   4.389  18.304  0.00  0.00    +0.000 OA
ENDROOT
BRANCH   1   4
ATOM      4  N   UNL     1       7.565   6.451  16.867  0.00  0.00    +0.000 NA
ATOM      5  H   UNL     1       8.314   6.298  16.187  0.00  0.00    +0.000 HD
BRANCH   4   6
ATOM      6  C   UNL     1       7.933   7.335  17.985  0.00  0.00    +0.000 C 
BRANCH   6   7
ATOM      7  C   UNL     1       7.510   8.770  17.695  0.00  0.00    +0.000 C 
BRANCH   7   8
ATOM      8  C   UNL     1       8.735   9.676  17.812  0.00  0.00    +0.000 C 
BRANCH   8   9
ATOM      9  C   UNL     1       9.114   9.947  19.263  0.00  0.00    +0.000 C 
BRANCH   9  10
ATOM     10  C   UNL     1       9.543  11.403  19.440  0.00  0.00    +0.000 C 
BRANCH  10  11
ATOM     11  C   UNL     1       9.877  12.040  18.093  0.00  0.00    +0.000 C 
BRANCH  11  13
ATOM     12  C   UNL     1       7.929  13.584  17.756  0.00  0.00    +0.000 C 
ATOM     13  C   UNL     1       9.420  13.495  18.037  0.00  0.00    +0.000 C 
ENDBRANCH  11  13
ENDBRANCH  10  11
ENDBRANCH   9  10
ENDBRANCH   8   9
ENDBRANCH   7   8
ENDBRANCH   6   7
ENDBRANCH   4   6
ENDBRANCH   1   4
BRANCH   1  14
ATOM     14  C   UNL     1       5.363   5.389  18.067  0.00  0.00    +0.000 C 
BRANCH  14  15
ATOM     15  C   UNL     1       5.140   4.496  19.278  0.00  0.00    +0.000 C 
BRANCH  15  16
ATOM     16  N   UNL     1       5.088   3.083  18.888  0.00  0.00    +0.000 NA
ATOM     17  H   UNL     1       6.033   2.704  18.799  0.00  0.00    +0.000 HD
BRANCH  16  18
ATOM     18  C   UNL     1       4.398   2.303  19.922  0.00  0.00    +0.000 C 
BRANCH  18  19
ATOM     19  C   UNL     1       2.944   2.605  19.903  0.00  0.00    +0.000 A 
ATOM     20  C   UNL     1       2.082   3.156  20.827  0.00  0.00    +0.000 A 
ATOM     21  C   UNL     1       0.808   3.192  20.212  0.00  0.00    +0.000 A 
ATOM     22  C   UNL     1       0.975   2.662  18.954  0.00  0.00    +0.000 A 
ATOM     23  O   UNL     1       2.270   2.305  18.755  0.00  0.00    +0.000 OA
ENDBRANCH  18  19
ENDBRANCH  16  18
ENDBRANCH  15  16
ENDBRANCH  14  15
ENDBRANCH   1  14
TORSDOF 13
ENDMDL
MODEL 4
REMARK VINA RESULT:      -6.3      4.230      7.969
REMARK  Name = 
REMARK  14 active torsions:
REMARK  status: ('A' for Active; 'I' for Inactive)
REMARK    1  A    between atoms: C_1  and  C_2
REMARK    2  A    between atoms: C_2  and  C_3
REMARK    3  A    between atoms: C_3  and  C_4
REMARK    4  A    between atoms: C_4  and  C_5
REMARK    5  A    between atoms: C_5  and  C_6
REMARK    6  A    between atoms: C_6  and  C_7
REMARK    7  A    between atoms: C_7  and  C_8
REMARK    8  A    between atoms: C_8  and  N_9
REMARK    9  A    between atoms: N_9  and  S_10
REMARK   10  A    between atoms: S_10  and  C_13
REMARK   11  A    between atoms: C_13  and  C_14
REMARK   12  A    between atoms: C_14  and  N_15
REMARK   13  A    between atoms: N_15  and  C_16
REMARK   14  A    between atoms: C_16  and  C_17
REMARK                            x       y       z     vdW  Elec       q    Type
REMARK                         _______ _______ _______ _____ _____    ______ ____
ROOT
ATOM      1  S   UNL     1       7.614   4.931  18.308  0.00  0.00    +0.000 S 
ATOM      2  O   UNL     1       7.854   5.597  19.571  0.00  0.00    +0.000 OA
ATOM      3  O   UNL     1       8.579   4.003  17.760  0.00  0.00    +0.000 OA
ENDROOT
BRANCH   1   4
ATOM      4  N   UNL     1       6.167   4.079  18.503  0.00  0.00    +0.000 NA
ATOM      5  H   UNL     1       6.378   3.077  18.513  0.00  0.00    +0.000 HD
BRANCH   4   6
ATOM      6  C   UNL     1       5.078   4.460  17.589  0.00  0.00    +0.000 C 
BRANCH   6   7
ATOM      7  C   UNL     1       3.809   4.775  18.371  0.00  0.00    +0.000 C 
BRANCH   7   8
ATOM      8  C   UNL     1       2.599   4.393  17.517  0.00  0.00    +0.000 C 
BRANCH   8   9
ATOM      9  C   UNL     1       2.394   2.885  17.454  0.00  0.00    +0.000 C 
BRANCH   9  10
ATOM     10  C   UNL     1       2.214   2.311  18.859  0.00  0.00    +0.000 C 
BRANCH  10  11
ATOM     11  C   UNL     1       0.854   2.697  19.435  0.00  0.00    +0.000 C 
BRANCH  11  13
ATOM     12  C   UNL     1       2.067   3.066  21.600  0.00  0.00    +0.000 C 
ATOM     13  C   UNL     1       1.004   3.602  20.655  0.00  0.00    +0.000 C 
ENDBRANCH  11  13
ENDBRANCH  10  11
ENDBRANCH   9  10
ENDBRANCH   8   9
ENDBRANCH   7   8
ENDBRANCH   6   7
ENDBRANCH   4   6
ENDBRANCH   1   4
BRANCH   1  14
ATOM     14  C   UNL     1       7.193   6.156  17.072  0.00  0.00    +0.000 C 
BRANCH  14  15
ATOM     15  C   UNL     1       6.969   7.492  17.762  0.00  0.00    +0.000 C 
BRANCH  15  16
ATOM     16  N   UNL     1       8.238   8.194  17.977  0.00  0.00    +0.000 NA
ATOM     17  H   UNL     1       8.931   7.896  17.287  0.00  0.00    +0.000 HD
BRANCH  16  18
ATOM     18  C   UNL     1       8.046   9.639  17.812  0.00  0.00    +0.000 C 
BRANCH  18  19
ATOM     19  C   UNL     1       9.098  10.381  18.552  0.00  0.00    +0.000 A 
ATOM     20  C   UNL     1       9.326  10.609  19.893  0.00  0.00    +0.000 A 
ATOM     21  C   UNL     1      10.504  11.389  19.970  0.00  0.00    +0.000 A 
ATOM     22  C   UNL     1      10.919  11.585  18.673  0.00  0.00    +0.000 A 
ATOM     23  O   UNL     1      10.073  10.975  17.804  0.00  0.00    +0.000 OA
ENDBRANCH  18  19
ENDBRANCH  16  18
ENDBRANCH  15  16
ENDBRANCH  14  15
ENDBRANCH   1  14
TORSDOF 13
ENDMDL
MODEL 5
REMARK VINA RESULT:      -6.1      4.764      7.453
REMARK  Name = 
REMARK  14 active torsions:
REMARK  status: ('A' for Active; 'I' for Inactive)
REMARK    1  A    between atoms: C_1  and  C_2
REMARK    2  A    between atoms: C_2  and  C_3
REMARK    3  A    between atoms: C_3  and  C_4
REMARK    4  A    between atoms: C_4  and  C_5
REMARK    5  A    between atoms: C_5  and  C_6
REMARK    6  A    between atoms: C_6  and  C_7
REMARK    7  A    between atoms: C_7  and  C_8
REMARK    8  A    between atoms: C_8  and  N_9
REMARK    9  A    between atoms: N_9  and  S_10
REMARK   10  A    between atoms: S_10  and  C_13
REMARK   11  A    between atoms: C_13  and  C_14
REMARK   12  A    between atoms: C_14  and  N_15
REMARK   13  A    between atoms: N_15  and  C_16
REMARK   14  A    between atoms: C_16  and  C_17
REMARK                            x       y       z     vdW  Elec       q    Type
REMARK                         _______ _______ _______ _____ _____    ______ ____
ROOT
ATOM      1  S   UNL     1       6.986   5.521  18.434  0.00  0.00    +0.000 S 
ATOM      2  O   UNL     1       7.872   4.428  18.095  0.00  0.00    +0.000 OA
ATOM      3  O   UNL     1       6.152   5.465  19.615  0.00  0.00    +0.000 OA
ENDROOT
BRANCH   1   4
ATOM      4  N   UNL     1       7.973   6.883  18.593  0.00  0.00    +0.000 NA
ATOM      5  H   UNL     1       7.763   7.335  19.486  0.00  0.00    +0.000 HD
BRANCH   4   6
ATOM      6  C   UNL     1       7.983   7.797  17.439  0.00  0.00    +0.000 C 
BRANCH   6   7
ATOM      7  C   UNL     1       7.891   9.246  17.903  0.00  0.00    +0.000 C 
BRANCH   7   8
ATOM      8  C   UNL     1       9.047   9.528  18.863  0.00  0.00    +0.000 C 
BRANCH   8   9
ATOM      9  C   UNL     1       9.338  11.017  18.992  0.00  0.00    +0.000 C 
BRANCH   9  10
ATOM     10  C   UNL     1      10.302  11.470  17.895  0.00  0.00    +0.000 C 
BRANCH  10  11
ATOM     11  C   UNL     1      11.726  11.577  18.432  0.00  0.00    +0.000 C 
BRANCH  11  13
ATOM     12  C   UNL     1      11.744  13.667  19.821  0.00  0.00    +0.000 C 
ATOM     13  C   UNL     1      11.745  12.147  19.848  0.00  0.00    +0.000 C 
ENDBRANCH  11  13
ENDBRANCH  10  11
ENDBRANCH   9  10
ENDBRANCH   8   9
ENDBRANCH   7   8
ENDBRANCH   6   7
ENDBRANCH   4   6
ENDBRANCH   1   4
BRANCH   1  14
ATOM     14  C   UNL     1       5.979   5.920  17.009  0.00  0.00    +0.000 C 
BRANCH  14  15
ATOM     15  C   UNL     1       4.669   6.526  17.488  0.00  0.00    +0.000 C 
BRANCH  15  16
ATOM     16  N   UNL     1       3.645   5.492  17.669  0.00  0.00    +0.000 NA
ATOM     17  H   UNL     1       4.081   4.593  17.884  0.00  0.00    +0.000 HD
BRANCH  16  18
ATOM     18  C   UNL     1       2.776   5.840  18.800  0.00  0.00    +0.000 C 
BRANCH  18  19
ATOM     19  C   UNL     1       2.018   4.645  19.247  0.00  0.00    +0.000 A 
ATOM     20  C   UNL     1       1.252   4.375  20.362  0.00  0.00    +0.000 A 
ATOM     21  C   UNL     1       0.782   3.049  20.211  0.00  0.00    +0.000 A 
ATOM     22  C   UNL     1       1.290   2.596  19.015  0.00  0.00    +0.000 A 
ATOM     23  O   UNL     1       2.041   3.559  18.420  0.00  0.00    +0.000 OA
ENDBRANCH  18  19
ENDBRANCH  16  18
ENDBRANCH  15  16
ENDBRANCH  14  15
ENDBRANCH   1  14
TORSDOF 13
ENDMDL
MODEL 6
REMARK VINA RESULT:      -6.0      3.532      5.989
REMARK  Name = 
REMARK  14 active torsions:
REMARK  status: ('A' for Active; 'I' for Inactive)
REMARK    1  A    between atoms: C_1  and  C_2
REMARK    2  A    between atoms: C_2  and  C_3
REMARK    3  A    between atoms: C_3  and  C_4
REMARK    4  A    between atoms: C_4  and  C_5
REMARK    5  A    between atoms: C_5  and  C_6
REMARK    6  A    between atoms: C_6  and  C_7
REMARK    7  A    between atoms: C_7  and  C_8
REMARK    8  A    between atoms: C_8  and  N_9
REMARK    9  A    between atoms: N_9  and  S_10
REMARK   10  A    between atoms: S_10  and  C_13
REMARK   11  A    between atoms: C_13  and  C_14
REMARK   12  A    between atoms: C_14  and  N_15
REMARK   13  A    between atoms: N_15  and  C_16
REMARK   14  A    between atoms: C_16  and  C_17
REMARK                            x       y       z     vdW  Elec       q    Type
REMARK                         _______ _______ _______ _____ _____    ______ ____
ROOT
ATOM      1  S   UNL     1       6.997   4.940  17.167  0.00  0.00    +0.000 S 
ATOM      2  O   UNL     1       7.580   5.638  16.040  0.00  0.00    +0.000 OA
ATOM      3  O   UNL     1       7.831   4.343  18.186  0.00  0.00    +0.000 OA
ENDROOT
BRANCH   1   4
ATOM      4  N   UNL     1       6.003   6.066  17.942  0.00  0.00    +0.000 NA
ATOM      5  H   UNL     1       5.310   5.559  18.499  0.00  0.00    +0.000 HD
BRANCH   4   6
ATOM      6  C   UNL     1       5.436   7.113  17.077  0.00  0.00    +0.000 C 
BRANCH   6   7
ATOM      7  C   UNL     1       3.922   6.971  16.985  0.00  0.00    +0.000 C 
BRANCH   7   8
ATOM      8  C   UNL     1       3.274   8.237  17.548  0.00  0.00    +0.000 C 
BRANCH   8   9
ATOM      9  C   UNL     1       2.078   7.924  18.437  0.00  0.00    +0.000 C 
BRANCH   9  10
ATOM     10  C   UNL     1       2.439   6.845  19.458  0.00  0.00    +0.000 C 
BRANCH  10  11
ATOM     11  C   UNL     1       1.596   6.988  20.723  0.00  0.00    +0.000 C 
BRANCH  11  13
ATOM     12  C   UNL     1      -0.029   8.652  21.664  0.00  0.00    +0.000 C 
ATOM     13  C   UNL     1       1.355   8.456  21.066  0.00  0.00    +0.000 C 
ENDBRANCH  11  13
ENDBRANCH  10  11
ENDBRANCH   9  10
ENDBRANCH   8   9
ENDBRANCH   7   8
ENDBRANCH   6   7
ENDBRANCH   4   6
ENDBRANCH   1   4
BRANCH   1  14
ATOM     14  C   UNL     1       5.829   3.726  16.561  0.00  0.00    +0.000 C 
BRANCH  14  15
ATOM     15  C   UNL     1       4.663   3.639  17.533  0.00  0.00    +0.000 C 
BRANCH  15  16
ATOM     16  N   UNL     1       5.108   3.181  18.853  0.00  0.00    +0.000 NA
ATOM     17  H   UNL     1       5.008   3.930  19.541  0.00  0.00    +0.000 HD
BRANCH  16  18
ATOM     18  C   UNL     1       4.277   2.058  19.301  0.00  0.00    +0.000 C 
BRANCH  18  19
ATOM     19  C   UNL     1       3.020   2.563  19.906  0.00  0.00    +0.000 A 
ATOM     20  C   UNL     1       1.804   2.945  19.379  0.00  0.00    +0.000 A 
ATOM     21  C   UNL     1       0.997   3.330  20.475  0.00  0.00    +0.000 A 
ATOM     22  C   UNL     1       1.771   3.158  21.599  0.00  0.00    +0.000 A 
ATOM     23  O   UNL     1       3.001   2.690  21.265  0.00  0.00    +0.000 OA
ENDBRANCH  18  19
ENDBRANCH  16  18
ENDBRANCH  15  16
ENDBRANCH  14  15
ENDBRANCH   1  14
TORSDOF 13
ENDMDL
MODEL 7
REMARK VINA RESULT:      -6.0      1.908      2.861
REMARK  Name = 
REMARK  14 active torsions:
REMARK  status: ('A' for Active; 'I' for Inactive)
REMARK    1  A    between atoms: C_1  and  C_2
REMARK    2  A    between atoms: C_2  and  C_3
REMARK    3  A    between atoms: C_3  and  C_4
REMARK    4  A    between atoms: C_4  and  C_5
REMARK    5  A    between atoms: C_5  and  C_6
REMARK    6  A    between atoms: C_6  and  C_7
REMARK    7  A    between atoms: C_7  and  C_8
REMARK    8  A    between atoms: C_8  and  N_9
REMARK    9  A    between atoms: N_9  and  S_10
REMARK   10  A    between atoms: S_10  and  C_13
REMARK   11  A    between atoms: C_13  and  C_14
REMARK   12  A    between atoms: C_14  and  N_15
REMARK   13  A    between atoms: N_15  and  C_16
REMARK   14  A    between atoms: C_16  and  C_17
REMARK                            x       y       z     vdW  Elec       q    Type
REMARK                         _______ _______ _______ _____ _____    ______ ____
ROOT
ATOM      1  S   UNL     1       5.101   4.075  18.801  0.00  0.00    +0.000 S 
ATOM      2  O   UNL     1       5.057   3.043  19.816  0.00  0.00    +0.000 OA
ATOM      3  O   UNL     1       4.714   5.435  19.105  0.00  0.00    +0.000 OA
ENDROOT
BRANCH   1   4
ATOM      4  N   UNL     1       6.702   4.126  18.265  0.00  0.00    +0.000 NA
ATOM      5  H   UNL     1       7.313   4.263  19.075  0.00  0.00    +0.000 HD
BRANCH   4   6
ATOM      6  C   UNL     1       6.967   5.044  17.145  0.00  0.00    +0.000 C 
BRANCH   6   7
ATOM      7  C   UNL     1       6.846   4.313  15.813  0.00  0.00    +0.000 C 
BRANCH   7   8
ATOM      8  C   UNL     1       6.539   5.335  14.719  0.00  0.00    +0.000 C 
BRANCH   8   9
ATOM      9  C   UNL     1       7.015   4.871  13.349  0.00  0.00    +0.000 C 
BRANCH   9  10
ATOM     10  C   UNL     1       6.445   3.490  13.024  0.00  0.00    +0.000 C 
BRANCH  10  11
ATOM     11  C   UNL     1       4.999   3.597  12.546  0.00  0.00    +0.000 C 
BRANCH  11  13
ATOM     12  C   UNL     1       5.733   1.596  11.222  0.00  0.00    +0.000 C 
ATOM     13  C   UNL     1       4.768   2.768  11.285  0.00  0.00    +0.000 C 
ENDBRANCH  11  13
ENDBRANCH  10  11
ENDBRANCH   9  10
ENDBRANCH   8   9
ENDBRANCH   7   8
ENDBRANCH   6   7
ENDBRANCH   4   6
ENDBRANCH   1   4
BRANCH   1  14
ATOM     14  C   UNL     1       4.212   3.509  17.354  0.00  0.00    +0.000 C 
BRANCH  14  15
ATOM     15  C   UNL     1       3.362   2.308  17.738  0.00  0.00    +0.000 C 
BRANCH  15  16
ATOM     16  N   UNL     1       1.949   2.539  17.421  0.00  0.00    +0.000 NA
ATOM     17  H   UNL     1       1.652   1.928  16.657  0.00  0.00    +0.000 HD
BRANCH  16  18
ATOM     18  C   UNL     1       1.115   2.223  18.586  0.00  0.00    +0.000 C 
BRANCH  18  19
ATOM     19  C   UNL     1       1.474   3.106  19.724  0.00  0.00    +0.000 A 
ATOM     20  C   UNL     1       1.461   4.474  19.899  0.00  0.00    +0.000 A 
ATOM     21  C   UNL     1       1.913   4.712  21.218  0.00  0.00    +0.000 A 
ATOM     22  C   UNL     1       2.172   3.476  21.763  0.00  0.00    +0.000 A 
ATOM     23  O   UNL     1       1.906   2.493  20.864  0.00  0.00    +0.000 OA
ENDBRANCH  18  19
ENDBRANCH  16  18
ENDBRANCH  15  16
ENDBRANCH  14  15
ENDBRANCH   1  14
TORSDOF 13
ENDMDL
MODEL 8
REMARK VINA RESULT:      -6.0      4.617      7.358
REMARK  Name = 
REMARK  14 active torsions:
REMARK  status: ('A' for Active; 'I' for Inactive)
REMARK    1  A    between atoms: C_1  and  C_2
REMARK    2  A    between atoms: C_2  and  C_3
REMARK    3  A    between atoms: C_3  and  C_4
REMARK    4  A    between atoms: C_4  and  C_5
REMARK    5  A    between atoms: C_5  and  C_6
REMARK    6  A    between atoms: C_6  and  C_7
REMARK    7  A    between atoms: C_7  and  C_8
REMARK    8  A    between atoms: C_8  and  N_9
REMARK    9  A    between atoms: N_9  and  S_10
REMARK   10  A    between atoms: S_10  and  C_13
REMARK   11  A    between atoms: C_13  and  C_14
REMARK   12  A    between atoms: C_14  and  N_15
REMARK   13  A    between atoms: N_15  and  C_16
REMARK   14  A    between atoms: C_16  and  C_17
REMARK                            x       y       z     vdW  Elec       q    Type
REMARK                         _______ _______ _______ _____ _____    ______ ____
ROOT
ATOM      1  S   UNL     1       5.635   6.157  17.121  0.00  0.00    +0.000 S 
ATOM      2  O   UNL     1       4.705   7.259  17.248  0.00  0.00    +0.000 OA
ATOM      3  O   UNL     1       5.420   5.109  16.148  0.00  0.00    +0.000 OA
ENDROOT
BRANCH   1   4
ATOM      4  N   UNL     1       7.133   6.857  16.770  0.00  0.00    +0.000 NA
ATOM      5  H   UNL     1       7.693   6.180  16.244  0.00  0.00    +0.000 HD
BRANCH   4   6
ATOM      6  C   UNL     1       7.834   7.463  17.913  0.00  0.00    +0.000 C 
BRANCH   6   7
ATOM      7  C   UNL     1       7.866   8.981  17.778  0.00  0.00    +0.000 C 
BRANCH   7   8
ATOM      8  C   UNL     1       8.923   9.536  18.733  0.00  0.00    +0.000 C 
BRANCH   8   9
ATOM      9  C   UNL     1       9.207  11.011  18.480  0.00  0.00    +0.000 C 
BRANCH   9  10
ATOM     10  C   UNL     1      10.595  11.384  19.003  0.00  0.00    +0.000 C 
BRANCH  10  11
ATOM     11  C   UNL     1      10.545  11.712  20.493  0.00  0.00    +0.000 C 
BRANCH  11  13
ATOM     12  C   UNL     1       8.865  12.357  22.241  0.00  0.00    +0.000 C 
ATOM     13  C   UNL     1       9.358  12.611  20.826  0.00  0.00    +0.000 C 
ENDBRANCH  11  13
ENDBRANCH  10  11
ENDBRANCH   9  10
ENDBRANCH   8   9
ENDBRANCH   7   8
ENDBRANCH   6   7
ENDBRANCH   4   6
ENDBRANCH   1   4
BRANCH   1  14
ATOM     14  C   UNL     1       5.902   5.429  18.735  0.00  0.00    +0.000 C 
BRANCH  14  15
ATOM     15  C   UNL     1       4.751   4.485  19.044  0.00  0.00    +0.000 C 
BRANCH  15  16
ATOM     16  N   UNL     1       5.246   3.175  19.479  0.00  0.00    +0.000 NA
ATOM     17  H   UNL     1       5.487   3.199  20.472  0.00  0.00    +0.000 HD
BRANCH  16  18
ATOM     18  C   UNL     1       4.200   2.161  19.305  0.00  0.00    +0.000 C 
BRANCH  18  19
ATOM     19  C   UNL     1       2.974   2.561  20.041  0.00  0.00    +0.000 A 
ATOM     20  C   UNL     1       2.688   2.726  21.381  0.00  0.00    +0.000 A 
ATOM     21  C   UNL     1       1.335   3.130  21.452  0.00  0.00    +0.000 A 
ATOM     22  C   UNL     1       0.883   3.187  20.155  0.00  0.00    +0.000 A 
ATOM     23  O   UNL     1       1.871   2.846  19.289  0.00  0.00    +0.000 OA
ENDBRANCH  18  19
ENDBRANCH  16  18
ENDBRANCH  15  16
ENDBRANCH  14  15
ENDBRANCH   1  14
TORSDOF 13
ENDMDL
MODEL 9
REMARK VINA RESULT:      -6.0      4.888      7.699
REMARK  Name = 
REMARK  14 active torsions:
REMARK  status: ('A' for Active; 'I' for Inactive)
REMARK    1  A    between atoms: C_1  and  C_2
REMARK    2  A    between atoms: C_2  and  C_3
REMARK    3  A    between atoms: C_3  and  C_4
REMARK    4  A    between atoms: C_4  and  C_5
REMARK    5  A    between atoms: C_5  and  C_6
REMARK    6  A    between atoms: C_6  and  C_7
REMARK    7  A    between atoms: C_7  and  C_8
REMARK    8  A    between atoms: C_8  and  N_9
REMARK    9  A    between atoms: N_9  and  S_10
REMARK   10  A    between atoms: S_10  and  C_13
REMARK   11  A    between atoms: C_13  and  C_14
REMARK   12  A    between atoms: C_14  and  N_15
REMARK   13  A    between atoms: N_15  and  C_16
REMARK   14  A    between atoms: C_16  and  C_17
REMARK                            x       y       z     vdW  Elec       q    Type
REMARK                         _______ _______ _______ _____ _____    ______ ____
ROOT
ATOM      1  S   UNL     1       6.813   4.998  18.276  0.00  0.00    +0.000 S 
ATOM      2  O   UNL     1       8.071   4.389  17.898  0.00  0.00    +0.000 OA
ATOM      3  O   UNL     1       6.363   4.986  19.650  0.00  0.00    +0.000 OA
ENDROOT
BRANCH   1   4
ATOM      4  N   UNL     1       6.924   6.617  17.807  0.00  0.00    +0.000 NA
ATOM      5  H   UNL     1       6.811   6.671  16.791  0.00  0.00    +0.000 HD
BRANCH   4   6
ATOM      6  C   UNL     1       8.091   7.349  18.326  0.00  0.00    +0.000 C 
BRANCH   6   7
ATOM      7  C   UNL     1       8.068   8.798  17.852  0.00  0.00    +0.000 C 
BRANCH   7   8
ATOM      8  C   UNL     1       8.904   9.641  18.815  0.00  0.00    +0.000 C 
BRANCH   8   9
ATOM      9  C   UNL     1       9.417  10.919  18.163  0.00  0.00    +0.000 C 
BRANCH   9  10
ATOM     10  C   UNL     1      10.461  11.592  19.055  0.00  0.00    +0.000 C 
BRANCH  10  11
ATOM     11  C   UNL     1       9.938  12.918  19.600  0.00  0.00    +0.000 C 
BRANCH  11  13
ATOM     12  C   UNL     1      10.147  14.427  21.593  0.00  0.00    +0.000 C 
ATOM     13  C   UNL     1      10.068  12.985  21.119  0.00  0.00    +0.000 C 
ENDBRANCH  11  13
ENDBRANCH  10  11
ENDBRANCH   9  10
ENDBRANCH   8   9
ENDBRANCH   7   8
ENDBRANCH   6   7
ENDBRANCH   4   6
ENDBRANCH   1   4
BRANCH   1  14
ATOM     14  C   UNL     1       5.516   4.363  17.216  0.00  0.00    +0.000 C 
BRANCH  14  15
ATOM     15  C   UNL     1       4.477   5.453  17.005  0.00  0.00    +0.000 C 
BRANCH  15  16
ATOM     16  N   UNL     1       3.944   5.928  18.286  0.00  0.00    +0.000 NA
ATOM     17  H   UNL     1       4.304   6.862  18.496  0.00  0.00    +0.000 HD
BRANCH  16  18
ATOM     18  C   UNL     1       2.482   6.026  18.215  0.00  0.00    +0.000 C 
BRANCH  18  19
ATOM     19  C   UNL     1       1.862   4.788  18.751  0.00  0.00    +0.000 A 
ATOM     20  C   UNL     1       1.467   3.601  18.170  0.00  0.00    +0.000 A 
ATOM     21  C   UNL     1       0.948   2.799  19.213  0.00  0.00    +0.000 A 
ATOM     22  C   UNL     1       1.060   3.547  20.362  0.00  0.00    +0.000 A 
ATOM     23  O   UNL     1       1.616   4.756  20.093  0.00  0.00    +0.000 OA
ENDBRANCH  18  19
ENDBRANCH  16  18
ENDBRANCH  15  16
ENDBRANCH  14  15
ENDBRANCH   1  14
TORSDOF 13
ENDMDL
