MODEL 1
REMARK VINA RESULT:      -7.3      0.000      0.000
REMARK  Name = 
REMARK  5 active torsions:
REMARK  status: ('A' for Active; 'I' for Inactive)
REMARK    1  A    between atoms: C_2  and  C_3
REMARK    2  A    between atoms: C_3  and  C_4
REMARK    3  A    between atoms: CA_14  and  C_15
REMARK    4  A    between atoms: C_15  and  O_16
REMARK    5  A    between atoms: C_21  and  C_22
REMARK                            x       y       z     vdW  Elec       q    Type
REMARK                         _______ _______ _______ _____ _____    ______ ____
ROOT
ATOM      1  O   UNL     1      -6.093  13.832  21.042  0.00  0.00    +0.000 OA
ATOM      2  C   UNL     1      -5.144  13.021  21.116  0.00  0.00    +0.000 C 
ATOM      3  N   UNL     1      -4.879  12.050  20.112  0.00  0.00    +0.000 N 
ATOM      4  C   UNL     1      -6.051  12.012  19.214  0.00  0.00    +0.000 C 
ATOM      5  C   UNL     1      -5.603  11.297  17.972  0.00  0.00    +0.000 C 
ATOM      6  C   UNL     1      -4.232  11.915  17.790  0.00  0.00    +0.000 C 
ATOM      7  CA  UNL     1      -3.222  11.078  17.043  0.00  0.00    +0.000 C 
ATOM      8  N   UNL     1      -1.997  11.913  16.939  0.00  0.00    +0.000 N 
ATOM      9  C   UNL     1      -1.548  12.377  18.268  0.00  0.00    +0.000 A 
ATOM     10  C   UNL     1      -0.214  12.710  18.361  0.00  0.00    +0.000 A 
ATOM     11  C   UNL     1       0.608  11.723  18.866  0.00  0.00    +0.000 A 
ATOM     12  C   UNL     1       0.054  10.527  19.379  0.00  0.00    +0.000 A 
ATOM     13  C   UNL     1      -1.383  10.556  19.681  0.00  0.00    +0.000 A 
ATOM     14  C   UNL     1      -2.178  11.682  19.314  0.00  0.00    +0.000 A 
ATOM     15  C   UNL     1      -3.676  12.173  19.240  0.00  0.00    +0.000 C 
ATOM     16  H   UNL     1      -1.948  12.654  16.245  0.00  0.00    +0.000 HD
ENDROOT
BRANCH  12  17
ATOM     17  C   UNL     1       1.030   9.366  19.493  0.00  0.00    +0.000 A 
ATOM     18  C   UNL     1       1.124   8.518  20.618  0.00  0.00    +0.000 A 
ATOM     19  C   UNL     1       1.959   7.365  20.632  0.00  0.00    +0.000 A 
ATOM     20  C   UNL     1       2.708   7.015  19.517  0.00  0.00    +0.000 A 
ATOM     21  C   UNL     1       2.584   7.796  18.376  0.00  0.00    +0.000 A 
ATOM     22  F   UNL     1       3.239   7.441  17.258  0.00  0.00    +0.000 F 
ATOM     23  C   UNL     1       1.764   8.936  18.359  0.00  0.00    +0.000 A 
ENDBRANCH  12  17
BRANCH   2  24
ATOM     24  C   UNL     1      -4.348  12.921  22.392  0.00  0.00    +0.000 C 
BRANCH  24  25
ATOM     25  C   UNL     1      -2.905  13.357  22.303  0.00  0.00    +0.000 A 
ATOM     26  C   UNL     1      -1.837  12.522  22.722  0.00  0.00    +0.000 A 
ATOM     27  C   UNL     1      -0.513  12.927  22.546  0.00  0.00    +0.000 A 
ATOM     28  C   UNL     1      -0.227  14.164  21.951  0.00  0.00    +0.000 A 
ATOM     29  C   UNL     1      -1.263  14.978  21.535  0.00  0.00    +0.000 A 
ATOM     30  C   UNL     1      -2.589  14.576  21.706  0.00  0.00    +0.000 A 
ENDBRANCH  24  25
ENDBRANCH   2  24
BRANCH   7  31
ATOM     31  C   UNL     1      -3.653  10.463  15.718  0.00  0.00    +0.000 C 
BRANCH  31  32
ATOM     32  O   UNL     1      -3.490  11.432  14.679  0.00  0.00    +0.000 OA
ATOM     33  H   UNL     1      -4.396  11.682  14.402  0.00  0.00    +0.000 HD
ENDBRANCH  31  32
ENDBRANCH   7  31
TORSDOF 5
ENDMDL
MODEL 2
REMARK VINA RESULT:      -6.9      0.896      1.508
REMARK  Name = 
REMARK  5 active torsions:
REMARK  status: ('A' for Active; 'I' for Inactive)
REMARK    1  A    between atoms: C_2  and  C_3
REMARK    2  A    between atoms: C_3  and  C_4
REMARK    3  A    between atoms: CA_14  and  C_15
REMARK    4  A    between atoms: C_15  and  O_16
REMARK    5  A    between atoms: C_21  and  C_22
REMARK                            x       y       z     vdW  Elec       q    Type
REMARK                         _______ _______ _______ _____ _____    ______ ____
ROOT
ATOM      1  O   UNL     1      -6.132  13.644  21.049  0.00  0.00    +0.000 OA
ATOM      2  C   UNL     1      -5.190  12.821  21.041  0.00  0.00    +0.000 C 
ATOM      3  N   UNL     1      -4.977  11.904  19.977  0.00  0.00    +0.000 N 
ATOM      4  C   UNL     1      -6.184  11.926  19.126  0.00  0.00    +0.000 C 
ATOM      5  C   UNL     1      -5.793  11.275  17.830  0.00  0.00    +0.000 C 
ATOM      6  C   UNL     1      -4.424  11.887  17.627  0.00  0.00    +0.000 C 
ATOM      7  CA  UNL     1      -3.454  11.082  16.797  0.00  0.00    +0.000 C 
ATOM      8  N   UNL     1      -2.224  11.909  16.688  0.00  0.00    +0.000 N 
ATOM      9  C   UNL     1      -1.718  12.296  18.021  0.00  0.00    +0.000 A 
ATOM     10  C   UNL     1      -0.377  12.610  18.079  0.00  0.00    +0.000 A 
ATOM     11  C   UNL     1       0.452  11.589  18.496  0.00  0.00    +0.000 A 
ATOM     12  C   UNL     1      -0.096  10.373  18.967  0.00  0.00    +0.000 A 
ATOM     13  C   UNL     1      -1.520  10.400  19.327  0.00  0.00    +0.000 A 
ATOM     14  C   UNL     1      -2.315  11.552  19.052  0.00  0.00    +0.000 A 
ATOM     15  C   UNL     1      -3.808  12.061  19.065  0.00  0.00    +0.000 C 
ATOM     16  H   UNL     1      -2.193  12.687  16.033  0.00  0.00    +0.000 HD
ENDROOT
BRANCH  12  17
ATOM     17  C   UNL     1       0.869   9.197  18.979  0.00  0.00    +0.000 A 
ATOM     18  C   UNL     1       1.828   8.949  17.971  0.00  0.00    +0.000 A 
ATOM     19  C   UNL     1       2.797   7.912  18.085  0.00  0.00    +0.000 A 
ATOM     20  C   UNL     1       2.850   7.108  19.214  0.00  0.00    +0.000 A 
ATOM     21  C   UNL     1       1.960   7.372  20.247  0.00  0.00    +0.000 A 
ATOM     22  F   UNL     1       2.034   6.658  21.382  0.00  0.00    +0.000 F 
ATOM     23  C   UNL     1       1.000   8.391  20.138  0.00  0.00    +0.000 A 
ENDBRANCH  12  17
BRANCH   2  24
ATOM     24  C   UNL     1      -4.346  12.644  22.277  0.00  0.00    +0.000 C 
BRANCH  24  25
ATOM     25  C   UNL     1      -2.871  12.920  22.112  0.00  0.00    +0.000 A 
ATOM     26  C   UNL     1      -2.386  14.153  21.603  0.00  0.00    +0.000 A 
ATOM     27  C   UNL     1      -1.014  14.402  21.544  0.00  0.00    +0.000 A 
ATOM     28  C   UNL     1      -0.102  13.435  21.990  0.00  0.00    +0.000 A 
ATOM     29  C   UNL     1      -0.569  12.236  22.494  0.00  0.00    +0.000 A 
ATOM     30  C   UNL     1      -1.940  11.983  22.557  0.00  0.00    +0.000 A 
ENDBRANCH  24  25
ENDBRANCH   2  24
BRANCH   7  31
ATOM     31  C   UNL     1      -3.945  10.545  15.458  0.00  0.00    +0.000 C 
BRANCH  31  32
ATOM     32  O   UNL     1      -2.951  10.797  14.461  0.00  0.00    +0.000 OA
ATOM     33  H   UNL     1      -2.487   9.945  14.326  0.00  0.00    +0.000 HD
ENDBRANCH  31  32
ENDBRANCH   7  31
TORSDOF 5
ENDMDL
MODEL 3
REMARK VINA RESULT:      -6.8      1.345      1.519
REMARK  Name = 
REMARK  5 active torsions:
REMARK  status: ('A' for Active; 'I' for Inactive)
REMARK    1  A    between atoms: C_2  and  C_3
REMARK    2  A    between atoms: C_3  and  C_4
REMARK    3  A    between atoms: CA_14  and  C_15
REMARK    4  A    between atoms: C_15  and  O_16
REMARK    5  A    between atoms: C_21  and  C_22
REMARK                            x       y       z     vdW  Elec       q    Type
REMARK                         _______ _______ _______ _____ _____    ______ ____
ROOT
ATOM      1  O   UNL     1      -5.128  14.062  22.180  0.00  0.00    +0.000 OA
ATOM      2  C   UNL     1      -4.244  13.184  22.073  0.00  0.00    +0.000 C 
ATOM      3  N   UNL     1      -4.197  12.264  20.989  0.00  0.00    +0.000 N 
ATOM      4  C   UNL     1      -5.482  12.367  20.268  0.00  0.00    +0.000 C 
ATOM      5  C   UNL     1      -5.268  11.705  18.937  0.00  0.00    +0.000 C 
ATOM      6  C   UNL     1      -3.892  12.235  18.595  0.00  0.00    +0.000 C 
ATOM      7  CA  UNL     1      -3.064  11.381  17.666  0.00  0.00    +0.000 C 
ATOM      8  N   UNL     1      -1.804  12.133  17.433  0.00  0.00    +0.000 N 
ATOM      9  C   UNL     1      -1.140  12.478  18.707  0.00  0.00    +0.000 A 
ATOM     10  C   UNL     1       0.216  12.710  18.626  0.00  0.00    +0.000 A 
ATOM     11  C   UNL     1       1.020  11.637  18.953  0.00  0.00    +0.000 A 
ATOM     12  C   UNL     1       0.451  10.452  19.475  0.00  0.00    +0.000 A 
ATOM     13  C   UNL     1      -0.924  10.561  19.981  0.00  0.00    +0.000 A 
ATOM     14  C   UNL     1      -1.671  11.762  19.793  0.00  0.00    +0.000 A 
ATOM     15  C   UNL     1      -3.121  12.359  19.961  0.00  0.00    +0.000 C 
ATOM     16  H   UNL     1      -1.794  12.913  16.780  0.00  0.00    +0.000 HD
ENDROOT
BRANCH  12  17
ATOM     17  C   UNL     1       1.339   9.220  19.384  0.00  0.00    +0.000 A 
ATOM     18  C   UNL     1       1.342   8.174  20.332  0.00  0.00    +0.000 A 
ATOM     19  C   UNL     1       2.093   6.979  20.142  0.00  0.00    +0.000 A 
ATOM     20  C   UNL     1       2.847   6.787  18.993  0.00  0.00    +0.000 A 
ATOM     21  C   UNL     1       2.811   7.773  18.016  0.00  0.00    +0.000 A 
ATOM     22  F   UNL     1       3.471   7.585  16.862  0.00  0.00    +0.000 F 
ATOM     23  C   UNL     1       2.073   8.954  18.200  0.00  0.00    +0.000 A 
ENDBRANCH  12  17
BRANCH   2  24
ATOM     24  C   UNL     1      -3.288  12.946  23.213  0.00  0.00    +0.000 C 
BRANCH  24  25
ATOM     25  C   UNL     1      -2.479  14.142  23.656  0.00  0.00    +0.000 A 
ATOM     26  C   UNL     1      -1.452  14.698  22.850  0.00  0.00    +0.000 A 
ATOM     27  C   UNL     1      -0.784  15.853  23.257  0.00  0.00    +0.000 A 
ATOM     28  C   UNL     1      -1.125  16.477  24.465  0.00  0.00    +0.000 A 
ATOM     29  C   UNL     1      -2.129  15.944  25.250  0.00  0.00    +0.000 A 
ATOM     30  C   UNL     1      -2.802  14.789  24.846  0.00  0.00    +0.000 A 
ENDBRANCH  24  25
ENDBRANCH   2  24
BRANCH   7  31
ATOM     31  C   UNL     1      -3.723  10.885  16.385  0.00  0.00    +0.000 C 
BRANCH  31  32
ATOM     32  O   UNL     1      -3.255  11.671  15.286  0.00  0.00    +0.000 OA
ATOM     33  H   UNL     1      -2.912  12.501  15.678  0.00  0.00    +0.000 HD
ENDBRANCH  31  32
ENDBRANCH   7  31
TORSDOF 5
ENDMDL
MODEL 4
REMARK VINA RESULT:      -6.8      1.645      1.947
REMARK  Name = 
REMARK  5 active torsions:
REMARK  status: ('A' for Active; 'I' for Inactive)
REMARK    1  A    between atoms: C_2  and  C_3
REMARK    2  A    between atoms: C_3  and  C_4
REMARK    3  A    between atoms: CA_14  and  C_15
REMARK    4  A    between atoms: C_15  and  O_16
REMARK    5  A    between atoms: C_21  and  C_22
REMARK                            x       y       z     vdW  Elec       q    Type
REMARK                         _______ _______ _______ _____ _____    ______ ____
ROOT
ATOM      1  O   UNL     1      -4.881  14.030  22.298  0.00  0.00    +0.000 OA
ATOM      2  C   UNL     1      -4.035  13.127  22.120  0.00  0.00    +0.000 C 
ATOM      3  N   UNL     1      -4.076  12.240  21.009  0.00  0.00    +0.000 N 
ATOM      4  C   UNL     1      -5.392  12.408  20.359  0.00  0.00    +0.000 C 
ATOM      5  C   UNL     1      -5.270  11.780  19.001  0.00  0.00    +0.000 C 
ATOM      6  C   UNL     1      -3.895  12.274  18.603  0.00  0.00    +0.000 C 
ATOM      7  CA  UNL     1      -3.146  11.421  17.608  0.00  0.00    +0.000 C 
ATOM      8  N   UNL     1      -1.874  12.137  17.331  0.00  0.00    +0.000 N 
ATOM      9  C   UNL     1      -1.134  12.420  18.578  0.00  0.00    +0.000 A 
ATOM     10  C   UNL     1       0.223  12.608  18.434  0.00  0.00    +0.000 A 
ATOM     11  C   UNL     1       1.005  11.499  18.686  0.00  0.00    +0.000 A 
ATOM     12  C   UNL     1       0.422  10.319  19.203  0.00  0.00    +0.000 A 
ATOM     13  C   UNL     1      -0.921  10.459  19.783  0.00  0.00    +0.000 A 
ATOM     14  C   UNL     1      -1.634  11.689  19.669  0.00  0.00    +0.000 A 
ATOM     15  C   UNL     1      -3.052  12.330  19.930  0.00  0.00    +0.000 C 
ATOM     16  H   UNL     1      -1.870  12.936  16.701  0.00  0.00    +0.000 HD
ENDROOT
BRANCH  12  17
ATOM     17  C   UNL     1       1.260   9.061  19.030  0.00  0.00    +0.000 A 
ATOM     18  C   UNL     1       2.177   8.859  17.975  0.00  0.00    +0.000 A 
ATOM     19  C   UNL     1       3.036   7.725  17.922  0.00  0.00    +0.000 A 
ATOM     20  C   UNL     1       3.016   6.770  18.929  0.00  0.00    +0.000 A 
ATOM     21  C   UNL     1       2.168   6.976  20.009  0.00  0.00    +0.000 A 
ATOM     22  F   UNL     1       2.179   6.108  21.034  0.00  0.00    +0.000 F 
ATOM     23  C   UNL     1       1.318   8.093  20.064  0.00  0.00    +0.000 A 
ENDBRANCH  12  17
BRANCH   2  24
ATOM     24  C   UNL     1      -3.031  12.821  23.202  0.00  0.00    +0.000 C 
BRANCH  24  25
ATOM     25  C   UNL     1      -2.364  14.017  23.838  0.00  0.00    +0.000 A 
ATOM     26  C   UNL     1      -2.790  14.544  25.085  0.00  0.00    +0.000 A 
ATOM     27  C   UNL     1      -2.095  15.598  25.680  0.00  0.00    +0.000 A 
ATOM     28  C   UNL     1      -0.967  16.143  25.051  0.00  0.00    +0.000 A 
ATOM     29  C   UNL     1      -0.544  15.629  23.840  0.00  0.00    +0.000 A 
ATOM     30  C   UNL     1      -1.234  14.573  23.242  0.00  0.00    +0.000 A 
ENDBRANCH  24  25
ENDBRANCH   2  24
BRANCH   7  31
ATOM     31  C   UNL     1      -3.886  10.987  16.349  0.00  0.00    +0.000 C 
BRANCH  31  32
ATOM     32  O   UNL     1      -3.256  11.579  15.210  0.00  0.00    +0.000 OA
ATOM     33  H   UNL     1      -3.427  10.968  14.463  0.00  0.00    +0.000 HD
ENDBRANCH  31  32
ENDBRANCH   7  31
TORSDOF 5
ENDMDL
MODEL 5
REMARK VINA RESULT:      -6.5      1.024      1.235
REMARK  Name = 
REMARK  5 active torsions:
REMARK  status: ('A' for Active; 'I' for Inactive)
REMARK    1  A    between atoms: C_2  and  C_3
REMARK    2  A    between atoms: C_3  and  C_4
REMARK    3  A    between atoms: CA_14  and  C_15
REMARK    4  A    between atoms: C_15  and  O_16
REMARK    5  A    between atoms: C_21  and  C_22
REMARK                            x       y       z     vdW  Elec       q    Type
REMARK                         _______ _______ _______ _____ _____    ______ ____
ROOT
ATOM      1  O   UNL     1      -5.835  13.659  21.369  0.00  0.00    +0.000 OA
ATOM      2  C   UNL     1      -4.887  12.844  21.366  0.00  0.00    +0.000 C 
ATOM      3  N   UNL     1      -4.665  11.921  20.307  0.00  0.00    +0.000 N 
ATOM      4  C   UNL     1      -5.872  11.930  19.455  0.00  0.00    +0.000 C 
ATOM      5  C   UNL     1      -5.476  11.274  18.164  0.00  0.00    +0.000 C 
ATOM      6  C   UNL     1      -4.111  11.896  17.958  0.00  0.00    +0.000 C 
ATOM      7  CA  UNL     1      -3.134  11.094  17.133  0.00  0.00    +0.000 C 
ATOM      8  N   UNL     1      -1.911  11.930  17.020  0.00  0.00    +0.000 N 
ATOM      9  C   UNL     1      -1.409  12.328  18.352  0.00  0.00    +0.000 A 
ATOM     10  C   UNL     1      -0.070  12.653  18.408  0.00  0.00    +0.000 A 
ATOM     11  C   UNL     1       0.766  11.641  18.832  0.00  0.00    +0.000 A 
ATOM     12  C   UNL     1       0.228  10.423  19.309  0.00  0.00    +0.000 A 
ATOM     13  C   UNL     1      -1.196  10.441  19.668  0.00  0.00    +0.000 A 
ATOM     14  C   UNL     1      -2.000  11.586  19.387  0.00  0.00    +0.000 A 
ATOM     15  C   UNL     1      -3.497  12.083  19.395  0.00  0.00    +0.000 C 
ATOM     16  H   UNL     1      -1.886  12.703  16.361  0.00  0.00    +0.000 HD
ENDROOT
BRANCH  12  17
ATOM     17  C   UNL     1       1.202   9.255  19.328  0.00  0.00    +0.000 A 
ATOM     18  C   UNL     1       1.263   8.291  20.359  0.00  0.00    +0.000 A 
ATOM     19  C   UNL     1       2.100   7.142  20.275  0.00  0.00    +0.000 A 
ATOM     20  C   UNL     1       2.884   6.913  19.154  0.00  0.00    +0.000 A 
ATOM     21  C   UNL     1       2.795   7.812  18.099  0.00  0.00    +0.000 A 
ATOM     22  F   UNL     1       3.486   7.579  16.971  0.00  0.00    +0.000 F 
ATOM     23  C   UNL     1       1.973   8.948  18.178  0.00  0.00    +0.000 A 
ENDBRANCH  12  17
BRANCH   2  24
ATOM     24  C   UNL     1      -4.042  12.680  22.603  0.00  0.00    +0.000 C 
BRANCH  24  25
ATOM     25  C   UNL     1      -3.384  13.936  23.123  0.00  0.00    +0.000 A 
ATOM     26  C   UNL     1      -3.711  14.492  24.386  0.00  0.00    +0.000 A 
ATOM     27  C   UNL     1      -3.022  15.606  24.867  0.00  0.00    +0.000 A 
ATOM     28  C   UNL     1      -1.997  16.185  24.105  0.00  0.00    +0.000 A 
ATOM     29  C   UNL     1      -1.670  15.643  22.877  0.00  0.00    +0.000 A 
ATOM     30  C   UNL     1      -2.355  14.527  22.393  0.00  0.00    +0.000 A 
ENDBRANCH  24  25
ENDBRANCH   2  24
BRANCH   7  31
ATOM     31  C   UNL     1      -3.620  10.544  15.798  0.00  0.00    +0.000 C 
BRANCH  31  32
ATOM     32  O   UNL     1      -3.627  11.601  14.833  0.00  0.00    +0.000 OA
ATOM     33  H   UNL     1      -4.276  11.334  14.150  0.00  0.00    +0.000 HD
ENDBRANCH  31  32
ENDBRANCH   7  31
TORSDOF 5
ENDMDL
MODEL 6
REMARK VINA RESULT:      -6.4      2.516      5.146
REMARK  Name = 
REMARK  5 active torsions:
REMARK  status: ('A' for Active; 'I' for Inactive)
REMARK    1  A    between atoms: C_2  and  C_3
REMARK    2  A    between atoms: C_3  and  C_4
REMARK    3  A    between atoms: CA_14  and  C_15
REMARK    4  A    between atoms: C_15  and  O_16
REMARK    5  A    between atoms: C_21  and  C_22
REMARK                            x       y       z     vdW  Elec       q    Type
REMARK                         _______ _______ _______ _____ _____    ______ ____
ROOT
ATOM      1  O   UNL     1      -4.252  13.188  20.145  0.00  0.00    +0.000 OA
ATOM      2  C   UNL     1      -3.474  12.326  19.681  0.00  0.00    +0.000 C 
ATOM      3  N   UNL     1      -2.090  12.573  19.466  0.00  0.00    +0.000 N 
ATOM      4  C   UNL     1      -1.874  14.028  19.600  0.00  0.00    +0.000 C 
ATOM      5  C   UNL     1      -0.394  14.217  19.764  0.00  0.00    +0.000 C 
ATOM      6  C   UNL     1      -0.083  13.076  20.709  0.00  0.00    +0.000 C 
ATOM      7  CA  UNL     1       1.328  12.541  20.661  0.00  0.00    +0.000 C 
ATOM      8  N   UNL     1       1.402  11.489  21.708  0.00  0.00    +0.000 N 
ATOM      9  C   UNL     1       0.350  10.469  21.520  0.00  0.00    +0.000 A 
ATOM     10  C   UNL     1       0.611   9.237  22.081  0.00  0.00    +0.000 A 
ATOM     11  C   UNL     1       1.129   8.292  21.220  0.00  0.00    +0.000 A 
ATOM     12  C   UNL     1       1.226   8.566  19.836  0.00  0.00    +0.000 A 
ATOM     13  C   UNL     1       0.433   9.700  19.342  0.00  0.00    +0.000 A 
ATOM     14  C   UNL     1      -0.253  10.555  20.255  0.00  0.00    +0.000 A 
ATOM     15  C   UNL     1      -1.062  11.908  20.318  0.00  0.00    +0.000 C 
ATOM     16  H   UNL     1       1.499  11.755  22.685  0.00  0.00    +0.000 HD
ENDROOT
BRANCH  12  17
ATOM     17  C   UNL     1       2.187   7.669  19.071  0.00  0.00    +0.000 A 
ATOM     18  C   UNL     1       2.879   8.062  17.904  0.00  0.00    +0.000 A 
ATOM     19  C   UNL     1       3.866   7.238  17.293  0.00  0.00    +0.000 A 
ATOM     20  C   UNL     1       4.205   6.008  17.839  0.00  0.00    +0.000 A 
ATOM     21  C   UNL     1       3.585   5.626  19.021  0.00  0.00    +0.000 A 
ATOM     22  F   UNL     1       3.943   4.474  19.614  0.00  0.00    +0.000 F 
ATOM     23  C   UNL     1       2.608   6.434  19.626  0.00  0.00    +0.000 A 
ENDBRANCH  12  17
BRANCH   2  24
ATOM     24  C   UNL     1      -4.029  11.032  19.145  0.00  0.00    +0.000 C 
BRANCH  24  25
ATOM     25  C   UNL     1      -3.676  10.707  17.713  0.00  0.00    +0.000 A 
ATOM     26  C   UNL     1      -4.308  11.347  16.616  0.00  0.00    +0.000 A 
ATOM     27  C   UNL     1      -3.896  11.080  15.310  0.00  0.00    +0.000 A 
ATOM     28  C   UNL     1      -2.850  10.178  15.071  0.00  0.00    +0.000 A 
ATOM     29  C   UNL     1      -2.226   9.557  16.136  0.00  0.00    +0.000 A 
ATOM     30  C   UNL     1      -2.633   9.823  17.445  0.00  0.00    +0.000 A 
ENDBRANCH  24  25
ENDBRANCH   2  24
BRANCH   7  31
ATOM     31  C   UNL     1       2.469  13.547  20.728  0.00  0.00    +0.000 C 
BRANCH  31  32
ATOM     32  O   UNL     1       2.425  14.220  21.989  0.00  0.00    +0.000 OA
ATOM     33  H   UNL     1       1.493  14.165  22.288  0.00  0.00    +0.000 HD
ENDBRANCH  31  32
ENDBRANCH   7  31
TORSDOF 5
ENDMDL
MODEL 7
REMARK VINA RESULT:      -6.4      1.514      1.947
REMARK  Name = 
REMARK  5 active torsions:
REMARK  status: ('A' for Active; 'I' for Inactive)
REMARK    1  A    between atoms: C_2  and  C_3
REMARK    2  A    between atoms: C_3  and  C_4
REMARK    3  A    between atoms: CA_14  and  C_15
REMARK    4  A    between atoms: C_15  and  O_16
REMARK    5  A    between atoms: C_21  and  C_22
REMARK                            x       y       z     vdW  Elec       q    Type
REMARK                         _______ _______ _______ _____ _____    ______ ____
ROOT
ATOM      1  O   UNL     1      -4.387  14.950  22.885  0.00  0.00    +0.000 OA
ATOM      2  C   UNL     1      -3.571  14.014  22.733  0.00  0.00    +0.000 C 
ATOM      3  N   UNL     1      -3.767  12.965  21.793  0.00  0.00    +0.000 N 
ATOM      4  C   UNL     1      -5.162  13.054  21.316  0.00  0.00    +0.000 C 
ATOM      5  C   UNL     1      -5.231  12.220  20.070  0.00  0.00    +0.000 C 
ATOM      6  C   UNL     1      -3.929  12.620  19.410  0.00  0.00    +0.000 C 
ATOM      7  CA  UNL     1      -3.325  11.608  18.466  0.00  0.00    +0.000 C 
ATOM      8  N   UNL     1      -2.108  12.249  17.904  0.00  0.00    +0.000 N 
ATOM      9  C   UNL     1      -1.200  12.708  18.975  0.00  0.00    +0.000 A 
ATOM     10  C   UNL     1       0.123  12.847  18.613  0.00  0.00    +0.000 A 
ATOM     11  C   UNL     1       0.937  11.777  18.925  0.00  0.00    +0.000 A 
ATOM     12  C   UNL     1       0.437  10.702  19.697  0.00  0.00    +0.000 A 
ATOM     13  C   UNL     1      -0.810  10.956  20.431  0.00  0.00    +0.000 A 
ATOM     14  C   UNL     1      -1.537  12.167  20.226  0.00  0.00    +0.000 A 
ATOM     15  C   UNL     1      -2.906  12.867  20.580  0.00  0.00    +0.000 C 
ATOM     16  H   UNL     1      -2.196  12.939  17.163  0.00  0.00    +0.000 HD
ENDROOT
BRANCH  12  17
ATOM     17  C   UNL     1       1.247   9.418  19.608  0.00  0.00    +0.000 A 
ATOM     18  C   UNL     1       1.241   8.407  20.595  0.00  0.00    +0.000 A 
ATOM     19  C   UNL     1       1.911   7.164  20.414  0.00  0.00    +0.000 A 
ATOM     20  C   UNL     1       2.589   6.887  19.235  0.00  0.00    +0.000 A 
ATOM     21  C   UNL     1       2.556   7.837  18.223  0.00  0.00    +0.000 A 
ATOM     22  F   UNL     1       3.140   7.568  17.043  0.00  0.00    +0.000 F 
ATOM     23  C   UNL     1       1.898   9.066  18.399  0.00  0.00    +0.000 A 
ENDBRANCH  12  17
BRANCH   2  24
ATOM     24  C   UNL     1      -2.423  13.862  23.698  0.00  0.00    +0.000 C 
BRANCH  24  25
ATOM     25  C   UNL     1      -1.295  14.853  23.539  0.00  0.00    +0.000 A 
ATOM     26  C   UNL     1      -1.083  15.910  24.461  0.00  0.00    +0.000 A 
ATOM     27  C   UNL     1       0.020  16.754  24.326  0.00  0.00    +0.000 A 
ATOM     28  C   UNL     1       0.932  16.561  23.279  0.00  0.00    +0.000 A 
ATOM     29  C   UNL     1       0.735  15.528  22.383  0.00  0.00    +0.000 A 
ATOM     30  C   UNL     1      -0.366  14.679  22.515  0.00  0.00    +0.000 A 
ENDBRANCH  24  25
ENDBRANCH   2  24
BRANCH   7  31
ATOM     31  C   UNL     1      -4.235  10.997  17.408  0.00  0.00    +0.000 C 
BRANCH  31  32
ATOM     32  O   UNL     1      -4.606  12.012  16.470  0.00  0.00    +0.000 OA
ATOM     33  H   UNL     1      -5.079  12.695  16.990  0.00  0.00    +0.000 HD
ENDBRANCH  31  32
ENDBRANCH   7  31
TORSDOF 5
ENDMDL
MODEL 8
REMARK VINA RESULT:      -6.4      2.122      2.632
REMARK  Name = 
REMARK  5 active torsions:
REMARK  status: ('A' for Active; 'I' for Inactive)
REMARK    1  A    between atoms: C_2  and  C_3
REMARK    2  A    between atoms: C_3  and  C_4
REMARK    3  A    between atoms: CA_14  and  C_15
REMARK    4  A    between atoms: C_15  and  O_16
REMARK    5  A    between atoms: C_21  and  C_22
REMARK                            x       y       z     vdW  Elec       q    Type
REMARK                         _______ _______ _______ _____ _____    ______ ____
ROOT
ATOM      1  O   UNL     1      -3.969  14.859  23.204  0.00  0.00    +0.000 OA
ATOM      2  C   UNL     1      -3.207  13.904  22.935  0.00  0.00    +0.000 C 
ATOM      3  N   UNL     1      -3.519  12.919  21.959  0.00  0.00    +0.000 N 
ATOM      4  C   UNL     1      -4.943  13.085  21.604  0.00  0.00    +0.000 C 
ATOM      5  C   UNL     1      -5.146  12.326  20.324  0.00  0.00    +0.000 C 
ATOM      6  C   UNL     1      -3.885  12.717  19.582  0.00  0.00    +0.000 C 
ATOM      7  CA  UNL     1      -3.401  11.739  18.538  0.00  0.00    +0.000 C 
ATOM      8  N   UNL     1      -2.207  12.367  17.913  0.00  0.00    +0.000 N 
ATOM      9  C   UNL     1      -1.198  12.732  18.929  0.00  0.00    +0.000 A 
ATOM     10  C   UNL     1       0.096  12.843  18.468  0.00  0.00    +0.000 A 
ATOM     11  C   UNL     1       0.887  11.728  18.654  0.00  0.00    +0.000 A 
ATOM     12  C   UNL     1       0.408  10.630  19.405  0.00  0.00    +0.000 A 
ATOM     13  C   UNL     1      -0.765  10.886  20.251  0.00  0.00    +0.000 A 
ATOM     14  C   UNL     1      -1.456  12.132  20.173  0.00  0.00    +0.000 A 
ATOM     15  C   UNL     1      -2.763  12.859  20.675  0.00  0.00    +0.000 C 
ATOM     16  H   UNL     1      -2.327  13.101  17.220  0.00  0.00    +0.000 HD
ENDROOT
BRANCH  12  17
ATOM     17  C   UNL     1       1.156   9.324  19.180  0.00  0.00    +0.000 A 
ATOM     18  C   UNL     1       1.986   9.069  18.066  0.00  0.00    +0.000 A 
ATOM     19  C   UNL     1       2.769   7.884  17.959  0.00  0.00    +0.000 A 
ATOM     20  C   UNL     1       2.760   6.931  18.968  0.00  0.00    +0.000 A 
ATOM     21  C   UNL     1       2.002   7.188  20.103  0.00  0.00    +0.000 A 
ATOM     22  F   UNL     1       2.030   6.320  21.127  0.00  0.00    +0.000 F 
ATOM     23  C   UNL     1       1.226   8.354  20.211  0.00  0.00    +0.000 A 
ENDBRANCH  12  17
BRANCH   2  24
ATOM     24  C   UNL     1      -1.993  13.656  23.793  0.00  0.00    +0.000 C 
BRANCH  24  25
ATOM     25  C   UNL     1      -1.341  14.885  24.382  0.00  0.00    +0.000 A 
ATOM     26  C   UNL     1      -0.514  15.743  23.613  0.00  0.00    +0.000 A 
ATOM     27  C   UNL     1       0.002  16.913  24.171  0.00  0.00    +0.000 A 
ATOM     28  C   UNL     1      -0.296  17.252  25.498  0.00  0.00    +0.000 A 
ATOM     29  C   UNL     1      -1.107  16.424  26.250  0.00  0.00    +0.000 A 
ATOM     30  C   UNL     1      -1.628  15.253  25.695  0.00  0.00    +0.000 A 
ENDBRANCH  24  25
ENDBRANCH   2  24
BRANCH   7  31
ATOM     31  C   UNL     1      -4.416  11.223  17.526  0.00  0.00    +0.000 C 
BRANCH  31  32
ATOM     32  O   UNL     1      -4.018  11.633  16.215  0.00  0.00    +0.000 OA
ATOM     33  H   UNL     1      -3.105  11.298  16.097  0.00  0.00    +0.000 HD
ENDBRANCH  31  32
ENDBRANCH   7  31
TORSDOF 5
ENDMDL
MODEL 9
REMARK VINA RESULT:      -6.3      2.806      5.794
REMARK  Name = 
REMARK  5 active torsions:
REMARK  status: ('A' for Active; 'I' for Inactive)
REMARK    1  A    between atoms: C_2  and  C_3
REMARK    2  A    between atoms: C_3  and  C_4
REMARK    3  A    between atoms: CA_14  and  C_15
REMARK    4  A    between atoms: C_15  and  O_16
REMARK    5  A    between atoms: C_21  and  C_22
REMARK                            x       y       z     vdW  Elec       q    Type
REMARK                         _______ _______ _______ _____ _____    ______ ____
ROOT
ATOM      1  O   UNL     1      -6.562  11.652  19.826  0.00  0.00    +0.000 OA
ATOM      2  C   UNL     1      -5.562  12.279  19.413  0.00  0.00    +0.000 C 
ATOM      3  N   UNL     1      -4.715  13.033  20.272  0.00  0.00    +0.000 N 
ATOM      4  C   UNL     1      -5.403  13.155  21.573  0.00  0.00    +0.000 C 
ATOM      5  C   UNL     1      -4.358  13.594  22.558  0.00  0.00    +0.000 C 
ATOM      6  C   UNL     1      -3.201  12.719  22.124  0.00  0.00    +0.000 C 
ATOM      7  CA  UNL     1      -1.820  13.244  22.434  0.00  0.00    +0.000 C 
ATOM      8  N   UNL     1      -0.871  12.194  21.978  0.00  0.00    +0.000 N 
ATOM      9  C   UNL     1      -1.094  11.850  20.559  0.00  0.00    +0.000 A 
ATOM     10  C   UNL     1      -0.013  11.297  19.905  0.00  0.00    +0.000 A 
ATOM     11  C   UNL     1       0.744  12.180  19.163  0.00  0.00    +0.000 A 
ATOM     12  C   UNL     1       0.315  13.517  18.991  0.00  0.00    +0.000 A 
ATOM     13  C   UNL     1      -1.092  13.793  19.307  0.00  0.00    +0.000 A 
ATOM     14  C   UNL     1      -1.910  12.789  19.906  0.00  0.00    +0.000 A 
ATOM     15  C   UNL     1      -3.328  12.572  20.562  0.00  0.00    +0.000 C 
ATOM     16  H   UNL     1      -0.722  11.366  22.548  0.00  0.00    +0.000 HD
ENDROOT
BRANCH  12  17
ATOM     17  C   UNL     1       1.402  14.487  18.551  0.00  0.00    +0.000 A 
ATOM     18  C   UNL     1       1.286  15.892  18.624  0.00  0.00    +0.000 A 
ATOM     19  C   UNL     1       2.374  16.760  18.324  0.00  0.00    +0.000 A 
ATOM     20  C   UNL     1       3.613  16.250  17.960  0.00  0.00    +0.000 A 
ATOM     21  C   UNL     1       3.771  14.870  17.942  0.00  0.00    +0.000 A 
ATOM     22  F   UNL     1       4.976  14.347  17.665  0.00  0.00    +0.000 F 
ATOM     23  C   UNL     1       2.700  14.011  18.235  0.00  0.00    +0.000 A 
ENDBRANCH  12  17
BRANCH   2  24
ATOM     24  C   UNL     1      -5.327  12.413  17.931  0.00  0.00    +0.000 C 
BRANCH  24  25
ATOM     25  C   UNL     1      -4.338  11.443  17.330  0.00  0.00    +0.000 A 
ATOM     26  C   UNL     1      -3.827  11.602  16.017  0.00  0.00    +0.000 A 
ATOM     27  C   UNL     1      -2.851  10.732  15.528  0.00  0.00    +0.000 A 
ATOM     28  C   UNL     1      -2.365   9.693  16.334  0.00  0.00    +0.000 A 
ATOM     29  C   UNL     1      -2.854   9.538  17.617  0.00  0.00    +0.000 A 
ATOM     30  C   UNL     1      -3.828  10.407  18.112  0.00  0.00    +0.000 A 
ENDBRANCH  24  25
ENDBRANCH   2  24
BRANCH   7  31
ATOM     31  C   UNL     1      -1.550  13.733  23.851  0.00  0.00    +0.000 C 
BRANCH  31  32
ATOM     32  O   UNL     1      -0.597  14.798  23.804  0.00  0.00    +0.000 OA
ATOM     33  H   UNL     1       0.118  14.544  24.425  0.00  0.00    +0.000 HD
ENDBRANCH  31  32
ENDBRANCH   7  31
TORSDOF 5
ENDMDL
