MODEL 1
REMARK VINA RESULT:      -6.4      0.000      0.000
REMARK  Name = 
REMARK  4 active torsions:
REMARK  status: ('A' for Active; 'I' for Inactive)
REMARK    1  A    between atoms: N_1  and  C_2
REMARK    2  A    between atoms: C_2  and  C_3
REMARK    3  A    between atoms: C_6  and  S_7
REMARK    4  A    between atoms: S_7  and  C_9
REMARK                            x       y       z     vdW  Elec       q    Type
REMARK                         _______ _______ _______ _____ _____    ______ ____
ROOT
ATOM      1  C   UNL     1       6.203   5.309  16.774  0.00  0.00    +0.000 A 
ATOM      2  C   UNL     1       5.530   6.193  15.948  0.00  0.00    +0.000 A 
ATOM      3  C   UNL     1       4.396   6.785  16.584  0.00  0.00    +0.000 A 
ATOM      4  C   UNL     1       4.232   6.305  17.864  0.00  0.00    +0.000 A 
ATOM      5  S   UNL     1       5.457   5.216  18.316  0.00  0.00    +0.000 S 
ENDROOT
BRANCH   4   6
ATOM      6  S   UNL     1       2.967   6.791  18.969  0.00  0.00    +0.000 S 
ATOM      7  O   UNL     1       1.955   7.661  18.136  0.00  0.00    +0.000 OA
BRANCH   6   8
ATOM      8  C   UNL     1       2.135   5.197  19.257  0.00  0.00    +0.000 A 
ATOM      9  C   UNL     1       1.767   4.800  20.550  0.00  0.00    +0.000 A 
ATOM     10  C   UNL     1       1.123   3.577  20.758  0.00  0.00    +0.000 A 
ATOM     11  C   UNL     1       0.822   2.751  19.676  0.00  0.00    +0.000 A 
ATOM     12  C   UNL     1       1.157   3.148  18.385  0.00  0.00    +0.000 A 
ATOM     13  C   UNL     1       1.808   4.367  18.176  0.00  0.00    +0.000 A 
ENDBRANCH   6   8
ENDBRANCH   4   6
BRANCH   1  14
ATOM     14  C   UNL     1       7.415   4.484  16.470  0.00  0.00    +0.000 C 
BRANCH  14  15
ATOM     15  N   UNL     1       8.123   4.127  17.695  0.00  0.00    +0.000 NA
ATOM     16  H   UNL     1       7.444   3.900  18.417  0.00  0.00    +0.000 HD
ATOM     17  H   UNL     1       8.634   4.944  18.028  0.00  0.00    +0.000 HD
ENDBRANCH  14  15
ENDBRANCH   1  14
TORSDOF 4
ENDMDL
MODEL 2
REMARK VINA RESULT:      -6.4      0.155      1.255
REMARK  Name = 
REMARK  4 active torsions:
REMARK  status: ('A' for Active; 'I' for Inactive)
REMARK    1  A    between atoms: N_1  and  C_2
REMARK    2  A    between atoms: C_2  and  C_3
REMARK    3  A    between atoms: C_6  and  S_7
REMARK    4  A    between atoms: S_7  and  C_9
REMARK                            x       y       z     vdW  Elec       q    Type
REMARK                         _______ _______ _______ _____ _____    ______ ____
ROOT
ATOM      1  C   UNL     1       6.149   5.270  16.872  0.00  0.00    +0.000 A 
ATOM      2  C   UNL     1       5.522   6.244  16.113  0.00  0.00    +0.000 A 
ATOM      3  C   UNL     1       4.404   6.829  16.784  0.00  0.00    +0.000 A 
ATOM      4  C   UNL     1       4.206   6.256  18.020  0.00  0.00    +0.000 A 
ATOM      5  S   UNL     1       5.381   5.085  18.395  0.00  0.00    +0.000 S 
ENDROOT
BRANCH   4   6
ATOM      6  S   UNL     1       2.947   6.703  19.149  0.00  0.00    +0.000 S 
ATOM      7  O   UNL     1       1.950   7.633  18.363  0.00  0.00    +0.000 OA
BRANCH   6   8
ATOM      8  C   UNL     1       2.089   5.109  19.352  0.00  0.00    +0.000 A 
ATOM      9  C   UNL     1       1.772   4.317  18.241  0.00  0.00    +0.000 A 
ATOM     10  C   UNL     1       1.120   3.092  18.409  0.00  0.00    +0.000 A 
ATOM     11  C   UNL     1       0.799   2.639  19.688  0.00  0.00    +0.000 A 
ATOM     12  C   UNL     1       1.135   3.405  20.801  0.00  0.00    +0.000 A 
ATOM     13  C   UNL     1       1.781   4.633  20.634  0.00  0.00    +0.000 A 
ENDBRANCH   6   8
ENDBRANCH   4   6
BRANCH   1  14
ATOM     14  C   UNL     1       7.331   4.425  16.514  0.00  0.00    +0.000 C 
BRANCH  14  15
ATOM     15  N   UNL     1       8.143   4.138  17.693  0.00  0.00    +0.000 NA
ATOM     16  H   UNL     1       8.579   3.227  17.582  0.00  0.00    +0.000 HD
ATOM     17  H   UNL     1       7.528   4.065  18.503  0.00  0.00    +0.000 HD
ENDBRANCH  14  15
ENDBRANCH   1  14
TORSDOF 4
ENDMDL
MODEL 3
REMARK VINA RESULT:      -6.2      3.142      5.782
REMARK  Name = 
REMARK  4 active torsions:
REMARK  status: ('A' for Active; 'I' for Inactive)
REMARK    1  A    between atoms: N_1  and  C_2
REMARK    2  A    between atoms: C_2  and  C_3
REMARK    3  A    between atoms: C_6  and  S_7
REMARK    4  A    between atoms: S_7  and  C_9
REMARK                            x       y       z     vdW  Elec       q    Type
REMARK                         _______ _______ _______ _____ _____    ______ ____
ROOT
ATOM      1  C   UNL     1       1.821   3.629  18.598  0.00  0.00    +0.000 A 
ATOM      2  C   UNL     1       2.052   4.977  18.386  0.00  0.00    +0.000 A 
ATOM      3  C   UNL     1       3.247   5.221  17.642  0.00  0.00    +0.000 A 
ATOM      4  C   UNL     1       3.897   4.045  17.340  0.00  0.00    +0.000 A 
ATOM      5  S   UNL     1       3.052   2.673  17.883  0.00  0.00    +0.000 S 
ENDROOT
BRANCH   4   6
ATOM      6  S   UNL     1       5.388   3.920  16.435  0.00  0.00    +0.000 S 
ATOM      7  O   UNL     1       5.098   4.522  15.010  0.00  0.00    +0.000 OA
BRANCH   6   8
ATOM      8  C   UNL     1       6.415   5.152  17.297  0.00  0.00    +0.000 A 
ATOM      9  C   UNL     1       7.037   4.844  18.515  0.00  0.00    +0.000 A 
ATOM     10  C   UNL     1       7.829   5.795  19.165  0.00  0.00    +0.000 A 
ATOM     11  C   UNL     1       8.024   7.053  18.594  0.00  0.00    +0.000 A 
ATOM     12  C   UNL     1       7.435   7.358  17.371  0.00  0.00    +0.000 A 
ATOM     13  C   UNL     1       6.637   6.411  16.724  0.00  0.00    +0.000 A 
ENDBRANCH   6   8
ENDBRANCH   4   6
BRANCH   1  14
ATOM     14  C   UNL     1       0.696   2.979  19.343  0.00  0.00    +0.000 C 
BRANCH  14  15
ATOM     15  N   UNL     1       0.960   2.966  20.778  0.00  0.00    +0.000 NA
ATOM     16  H   UNL     1       1.640   3.687  20.998  0.00  0.00    +0.000 HD
ATOM     17  H   UNL     1       1.396   2.076  21.021  0.00  0.00    +0.000 HD
ENDBRANCH  14  15
ENDBRANCH   1  14
TORSDOF 4
ENDMDL
MODEL 4
REMARK VINA RESULT:      -6.1      1.313      1.554
REMARK  Name = 
REMARK  4 active torsions:
REMARK  status: ('A' for Active; 'I' for Inactive)
REMARK    1  A    between atoms: N_1  and  C_2
REMARK    2  A    between atoms: C_2  and  C_3
REMARK    3  A    between atoms: C_6  and  S_7
REMARK    4  A    between atoms: S_7  and  C_9
REMARK                            x       y       z     vdW  Elec       q    Type
REMARK                         _______ _______ _______ _____ _____    ______ ____
ROOT
ATOM      1  C   UNL     1       6.312   4.807  16.666  0.00  0.00    +0.000 A 
ATOM      2  C   UNL     1       6.794   4.751  17.962  0.00  0.00    +0.000 A 
ATOM      3  C   UNL     1       5.860   5.254  18.919  0.00  0.00    +0.000 A 
ATOM      4  C   UNL     1       4.709   5.701  18.308  0.00  0.00    +0.000 A 
ATOM      5  S   UNL     1       4.726   5.458  16.625  0.00  0.00    +0.000 S 
ENDROOT
BRANCH   4   6
ATOM      6  S   UNL     1       3.326   6.379  19.136  0.00  0.00    +0.000 S 
ATOM      7  O   UNL     1       2.491   7.155  18.050  0.00  0.00    +0.000 OA
BRANCH   6   8
ATOM      8  C   UNL     1       2.378   4.869  19.509  0.00  0.00    +0.000 A 
ATOM      9  C   UNL     1       2.165   4.462  20.833  0.00  0.00    +0.000 A 
ATOM     10  C   UNL     1       1.430   3.306  21.108  0.00  0.00    +0.000 A 
ATOM     11  C   UNL     1       0.884   2.558  20.066  0.00  0.00    +0.000 A 
ATOM     12  C   UNL     1       1.066   2.969  18.748  0.00  0.00    +0.000 A 
ATOM     13  C   UNL     1       1.807   4.121  18.471  0.00  0.00    +0.000 A 
ENDBRANCH   6   8
ENDBRANCH   4   6
BRANCH   1  14
ATOM     14  C   UNL     1       6.992   4.396  15.397  0.00  0.00    +0.000 C 
BRANCH  14  15
ATOM     15  N   UNL     1       7.714   5.517  14.806  0.00  0.00    +0.000 NA
ATOM     16  H   UNL     1       8.123   6.078  15.548  0.00  0.00    +0.000 HD
ATOM     17  H   UNL     1       7.046   6.120  14.326  0.00  0.00    +0.000 HD
ENDBRANCH  14  15
ENDBRANCH   1  14
TORSDOF 4
ENDMDL
MODEL 5
REMARK VINA RESULT:      -5.9      1.425      2.083
REMARK  Name = 
REMARK  4 active torsions:
REMARK  status: ('A' for Active; 'I' for Inactive)
REMARK    1  A    between atoms: N_1  and  C_2
REMARK    2  A    between atoms: C_2  and  C_3
REMARK    3  A    between atoms: C_6  and  S_7
REMARK    4  A    between atoms: S_7  and  C_9
REMARK                            x       y       z     vdW  Elec       q    Type
REMARK                         _______ _______ _______ _____ _____    ______ ____
ROOT
ATOM      1  C   UNL     1       6.296   4.833  15.956  0.00  0.00    +0.000 A 
ATOM      2  C   UNL     1       6.708   4.374  17.195  0.00  0.00    +0.000 A 
ATOM      3  C   UNL     1       5.889   4.859  18.261  0.00  0.00    +0.000 A 
ATOM      4  C   UNL     1       4.899   5.694  17.792  0.00  0.00    +0.000 A 
ATOM      5  S   UNL     1       4.913   5.837  16.098  0.00  0.00    +0.000 S 
ENDROOT
BRANCH   4   6
ATOM      6  S   UNL     1       3.690   6.480  18.782  0.00  0.00    +0.000 S 
ATOM      7  O   UNL     1       2.910   7.466  17.835  0.00  0.00    +0.000 OA
BRANCH   6   8
ATOM      8  C   UNL     1       2.556   5.092  19.101  0.00  0.00    +0.000 A 
ATOM      9  C   UNL     1       2.186   4.214  18.074  0.00  0.00    +0.000 A 
ATOM     10  C   UNL     1       1.320   3.148  18.333  0.00  0.00    +0.000 A 
ATOM     11  C   UNL     1       0.833   2.937  19.622  0.00  0.00    +0.000 A 
ATOM     12  C   UNL     1       1.217   3.787  20.656  0.00  0.00    +0.000 A 
ATOM     13  C   UNL     1       2.077   4.858  20.398  0.00  0.00    +0.000 A 
ENDBRANCH   6   8
ENDBRANCH   4   6
BRANCH   1  14
ATOM     14  C   UNL     1       6.901   4.565  14.613  0.00  0.00    +0.000 C 
BRANCH  14  15
ATOM     15  N   UNL     1       7.941   5.541  14.305  0.00  0.00    +0.000 NA
ATOM     16  H   UNL     1       8.726   5.065  13.871  0.00  0.00    +0.000 HD
ATOM     17  H   UNL     1       8.291   5.932  15.180  0.00  0.00    +0.000 HD
ENDBRANCH  14  15
ENDBRANCH   1  14
TORSDOF 4
ENDMDL
MODEL 6
REMARK VINA RESULT:      -5.9      1.833      2.264
REMARK  Name = 
REMARK  4 active torsions:
REMARK  status: ('A' for Active; 'I' for Inactive)
REMARK    1  A    between atoms: N_1  and  C_2
REMARK    2  A    between atoms: C_2  and  C_3
REMARK    3  A    between atoms: C_6  and  S_7
REMARK    4  A    between atoms: S_7  and  C_9
REMARK                            x       y       z     vdW  Elec       q    Type
REMARK                         _______ _______ _______ _____ _____    ______ ____
ROOT
ATOM      1  C   UNL     1       6.491   4.762  15.875  0.00  0.00    +0.000 A 
ATOM      2  C   UNL     1       7.302   4.568  16.980  0.00  0.00    +0.000 A 
ATOM      3  C   UNL     1       6.625   4.829  18.211  0.00  0.00    +0.000 A 
ATOM      4  C   UNL     1       5.330   5.242  17.993  0.00  0.00    +0.000 A 
ATOM      5  S   UNL     1       4.915   5.250  16.344  0.00  0.00    +0.000 S 
ENDROOT
BRANCH   4   6
ATOM      6  S   UNL     1       4.176   5.649  19.243  0.00  0.00    +0.000 S 
ATOM      7  O   UNL     1       3.322   6.849  18.690  0.00  0.00    +0.000 OA
BRANCH   6   8
ATOM      8  C   UNL     1       3.085   4.192  19.188  0.00  0.00    +0.000 A 
ATOM      9  C   UNL     1       3.593   2.925  18.870  0.00  0.00    +0.000 A 
ATOM     10  C   UNL     1       2.747   1.812  18.838  0.00  0.00    +0.000 A 
ATOM     11  C   UNL     1       1.394   1.951  19.144  0.00  0.00    +0.000 A 
ATOM     12  C   UNL     1       0.886   3.200  19.491  0.00  0.00    +0.000 A 
ATOM     13  C   UNL     1       1.728   4.315  19.516  0.00  0.00    +0.000 A 
ENDBRANCH   6   8
ENDBRANCH   4   6
BRANCH   1  14
ATOM     14  C   UNL     1       6.835   4.611  14.426  0.00  0.00    +0.000 C 
BRANCH  14  15
ATOM     15  N   UNL     1       7.917   5.515  14.049  0.00  0.00    +0.000 NA
ATOM     16  H   UNL     1       7.741   5.874  13.115  0.00  0.00    +0.000 HD
ATOM     17  H   UNL     1       8.784   4.981  13.993  0.00  0.00    +0.000 HD
ENDBRANCH  14  15
ENDBRANCH   1  14
TORSDOF 4
ENDMDL
MODEL 7
REMARK VINA RESULT:      -5.8      1.858      2.001
REMARK  Name = 
REMARK  4 active torsions:
REMARK  status: ('A' for Active; 'I' for Inactive)
REMARK    1  A    between atoms: N_1  and  C_2
REMARK    2  A    between atoms: C_2  and  C_3
REMARK    3  A    between atoms: C_6  and  S_7
REMARK    4  A    between atoms: S_7  and  C_9
REMARK                            x       y       z     vdW  Elec       q    Type
REMARK                         _______ _______ _______ _____ _____    ______ ____
ROOT
ATOM      1  C   UNL     1       5.916   4.645  15.303  0.00  0.00    +0.000 A 
ATOM      2  C   UNL     1       5.696   3.611  16.196  0.00  0.00    +0.000 A 
ATOM      3  C   UNL     1       4.958   4.026  17.347  0.00  0.00    +0.000 A 
ATOM      4  C   UNL     1       4.670   5.372  17.299  0.00  0.00    +0.000 A 
ATOM      5  S   UNL     1       5.216   6.106  15.866  0.00  0.00    +0.000 S 
ENDROOT
BRANCH   4   6
ATOM      6  S   UNL     1       3.776   6.256  18.515  0.00  0.00    +0.000 S 
ATOM      7  O   UNL     1       2.908   7.320  17.745  0.00  0.00    +0.000 OA
BRANCH   6   8
ATOM      8  C   UNL     1       2.611   4.976  19.080  0.00  0.00    +0.000 A 
ATOM      9  C   UNL     1       2.433   4.718  20.446  0.00  0.00    +0.000 A 
ATOM     10  C   UNL     1       1.531   3.738  20.869  0.00  0.00    +0.000 A 
ATOM     11  C   UNL     1       0.784   3.023  19.934  0.00  0.00    +0.000 A 
ATOM     12  C   UNL     1       0.932   3.291  18.576  0.00  0.00    +0.000 A 
ATOM     13  C   UNL     1       1.839   4.265  18.151  0.00  0.00    +0.000 A 
ENDBRANCH   6   8
ENDBRANCH   4   6
BRANCH   1  14
ATOM     14  C   UNL     1       6.657   4.615  14.002  0.00  0.00    +0.000 C 
BRANCH  14  15
ATOM     15  N   UNL     1       6.318   3.420  13.237  0.00  0.00    +0.000 NA
ATOM     16  H   UNL     1       5.737   2.812  13.808  0.00  0.00    +0.000 HD
ATOM     17  H   UNL     1       7.174   2.900  13.045  0.00  0.00    +0.000 HD
ENDBRANCH  14  15
ENDBRANCH   1  14
TORSDOF 4
ENDMDL
MODEL 8
REMARK VINA RESULT:      -5.8      3.105      5.819
REMARK  Name = 
REMARK  4 active torsions:
REMARK  status: ('A' for Active; 'I' for Inactive)
REMARK    1  A    between atoms: N_1  and  C_2
REMARK    2  A    between atoms: C_2  and  C_3
REMARK    3  A    between atoms: C_6  and  S_7
REMARK    4  A    between atoms: S_7  and  C_9
REMARK                            x       y       z     vdW  Elec       q    Type
REMARK                         _______ _______ _______ _____ _____    ______ ____
ROOT
ATOM      1  C   UNL     1       2.424   3.953  19.302  0.00  0.00    +0.000 A 
ATOM      2  C   UNL     1       1.830   3.711  18.075  0.00  0.00    +0.000 A 
ATOM      3  C   UNL     1       2.778   3.637  17.009  0.00  0.00    +0.000 A 
ATOM      4  C   UNL     1       4.060   3.855  17.463  0.00  0.00    +0.000 A 
ATOM      5  S   UNL     1       4.128   4.076  19.148  0.00  0.00    +0.000 S 
ENDROOT
BRANCH   4   6
ATOM      6  S   UNL     1       5.499   3.838  16.470  0.00  0.00    +0.000 S 
ATOM      7  O   UNL     1       5.076   4.396  15.060  0.00  0.00    +0.000 OA
BRANCH   6   8
ATOM      8  C   UNL     1       6.474   5.158  17.258  0.00  0.00    +0.000 A 
ATOM      9  C   UNL     1       7.356   4.872  18.308  0.00  0.00    +0.000 A 
ATOM     10  C   UNL     1       8.105   5.893  18.901  0.00  0.00    +0.000 A 
ATOM     11  C   UNL     1       7.995   7.203  18.437  0.00  0.00    +0.000 A 
ATOM     12  C   UNL     1       7.143   7.493  17.375  0.00  0.00    +0.000 A 
ATOM     13  C   UNL     1       6.388   6.475  16.786  0.00  0.00    +0.000 A 
ENDBRANCH   6   8
ENDBRANCH   4   6
BRANCH   1  14
ATOM     14  C   UNL     1       1.773   4.114  20.640  0.00  0.00    +0.000 C 
BRANCH  14  15
ATOM     15  N   UNL     1       0.761   3.085  20.855  0.00  0.00    +0.000 NA
ATOM     16  H   UNL     1       1.196   2.276  21.289  0.00  0.00    +0.000 HD
ATOM     17  H   UNL     1       0.415   2.772  19.948  0.00  0.00    +0.000 HD
ENDBRANCH  14  15
ENDBRANCH   1  14
TORSDOF 4
ENDMDL
MODEL 9
REMARK VINA RESULT:      -5.8      1.860      2.226
REMARK  Name = 
REMARK  4 active torsions:
REMARK  status: ('A' for Active; 'I' for Inactive)
REMARK    1  A    between atoms: N_1  and  C_2
REMARK    2  A    between atoms: C_2  and  C_3
REMARK    3  A    between atoms: C_6  and  S_7
REMARK    4  A    between atoms: S_7  and  C_9
REMARK                            x       y       z     vdW  Elec       q    Type
REMARK                         _______ _______ _______ _____ _____    ______ ____
ROOT
ATOM      1  C   UNL     1       6.562   4.776  15.838  0.00  0.00    +0.000 A 
ATOM      2  C   UNL     1       7.369   4.631  16.953  0.00  0.00    +0.000 A 
ATOM      3  C   UNL     1       6.669   4.871  18.175  0.00  0.00    +0.000 A 
ATOM      4  C   UNL     1       5.357   5.220  17.940  0.00  0.00    +0.000 A 
ATOM      5  S   UNL     1       4.960   5.193  16.286  0.00  0.00    +0.000 S 
ENDROOT
BRANCH   4   6
ATOM      6  S   UNL     1       4.173   5.584  19.174  0.00  0.00    +0.000 S 
ATOM      7  O   UNL     1       3.331   6.802  18.641  0.00  0.00    +0.000 OA
BRANCH   6   8
ATOM      8  C   UNL     1       3.086   4.129  19.044  0.00  0.00    +0.000 A 
ATOM      9  C   UNL     1       1.697   4.276  18.933  0.00  0.00    +0.000 A 
ATOM     10  C   UNL     1       0.873   3.152  18.826  0.00  0.00    +0.000 A 
ATOM     11  C   UNL     1       1.430   1.874  18.808  0.00  0.00    +0.000 A 
ATOM     12  C   UNL     1       2.811   1.718  18.888  0.00  0.00    +0.000 A 
ATOM     13  C   UNL     1       3.636   2.840  19.003  0.00  0.00    +0.000 A 
ENDBRANCH   6   8
ENDBRANCH   4   6
BRANCH   1  14
ATOM     14  C   UNL     1       6.928   4.627  14.394  0.00  0.00    +0.000 C 
BRANCH  14  15
ATOM     15  N   UNL     1       8.010   5.538  14.033  0.00  0.00    +0.000 NA
ATOM     16  H   UNL     1       7.778   6.473  14.354  0.00  0.00    +0.000 HD
ATOM     17  H   UNL     1       8.068   5.589  13.017  0.00  0.00    +0.000 HD
ENDBRANCH  14  15
ENDBRANCH   1  14
TORSDOF 4
ENDMDL
