MODEL 1
REMARK VINA RESULT:      -8.0      0.000      0.000
REMARK  Name = 
REMARK  4 active torsions:
REMARK  status: ('A' for Active; 'I' for Inactive)
REMARK    1  A    between atoms: N_1  and  C_2
REMARK    2  A    between atoms: C_2  and  C_3
REMARK    3  A    between atoms: C_9  and  C_10
REMARK    4  A    between atoms: C_14  and  C_15
REMARK                            x       y       z     vdW  Elec       q    Type
REMARK                         _______ _______ _______ _____ _____    ______ ____
ROOT
ATOM      1  C   UNL     1       4.158   6.143  18.105  0.00  0.00    +0.000 A 
ATOM      2  N   UNL     1       4.299   7.336  17.496  0.00  0.00    +0.000 NA
ATOM      3  N   UNL     1       3.083   7.893  17.590  0.00  0.00    +0.000 N 
ATOM      4  C   UNL     1       2.205   7.166  18.333  0.00  0.00    +0.000 A 
ATOM      5  C   UNL     1       2.854   6.002  18.683  0.00  0.00    +0.000 A 
ATOM      6  H   UNL     1       2.924   8.781  17.127  0.00  0.00    +0.000 HD
ENDROOT
BRANCH   1  13
ATOM      7  C   UNL     1       5.702   4.677  15.772  0.00  0.00    +0.000 C 
ATOM      8  O   UNL     1       4.565   4.218  15.628  0.00  0.00    +0.000 OA
ATOM      9  N   UNL     1       6.145   5.194  16.969  0.00  0.00    +0.000 N 
ATOM     10  C   UNL     1       7.491   5.635  17.284  0.00  0.00    +0.000 C 
ATOM     11  C   UNL     1       7.656   5.297  18.753  0.00  0.00    +0.000 C 
ATOM     12  C   UNL     1       6.259   5.482  19.328  0.00  0.00    +0.000 C 
ATOM     13  C   UNL     1       5.306   5.159  18.163  0.00  0.00    +0.000 C 
BRANCH   7  14
ATOM     14  C   UNL     1       6.715   4.573  14.627  0.00  0.00    +0.000 C 
BRANCH  14  15
ATOM     15  N   UNL     1       6.283   3.506  13.705  0.00  0.00    +0.000 NA
ATOM     16  H   UNL     1       6.737   2.634  13.972  0.00  0.00    +0.000 HD
ATOM     17  H   UNL     1       6.645   3.738  12.778  0.00  0.00    +0.000 HD
ENDBRANCH  14  15
ENDBRANCH   7  14
ENDBRANCH   1  13
BRANCH   5  18
ATOM     18  C   UNL     1       2.242   4.912  19.434  0.00  0.00    +0.000 A 
ATOM     19  C   UNL     1       2.507   4.755  20.802  0.00  0.00    +0.000 A 
ATOM     20  C   UNL     1       2.038   3.642  21.508  0.00  0.00    +0.000 A 
ATOM     21  C   UNL     1       1.261   2.684  20.862  0.00  0.00    +0.000 A 
ATOM     22  C   UNL     1       0.932   2.858  19.520  0.00  0.00    +0.000 A 
ATOM     23  C   UNL     1       1.418   3.961  18.817  0.00  0.00    +0.000 A 
ATOM     24  F   UNL     1       1.080   4.071  17.523  0.00  0.00    +0.000 F 
ENDBRANCH   5  18
TORSDOF 4
ENDMDL
MODEL 2
REMARK VINA RESULT:      -7.7      1.005      1.434
REMARK  Name = 
REMARK  4 active torsions:
REMARK  status: ('A' for Active; 'I' for Inactive)
REMARK    1  A    between atoms: N_1  and  C_2
REMARK    2  A    between atoms: C_2  and  C_3
REMARK    3  A    between atoms: C_9  and  C_10
REMARK    4  A    between atoms: C_14  and  C_15
REMARK                            x       y       z     vdW  Elec       q    Type
REMARK                         _______ _______ _______ _____ _____    ______ ____
ROOT
ATOM      1  C   UNL     1       4.174   6.121  18.028  0.00  0.00    +0.000 A 
ATOM      2  N   UNL     1       4.336   7.392  17.613  0.00  0.00    +0.000 NA
ATOM      3  N   UNL     1       3.098   7.904  17.644  0.00  0.00    +0.000 N 
ATOM      4  C   UNL     1       2.170   7.061  18.173  0.00  0.00    +0.000 A 
ATOM      5  C   UNL     1       2.820   5.873  18.429  0.00  0.00    +0.000 A 
ATOM      6  H   UNL     1       2.958   8.846  17.295  0.00  0.00    +0.000 HD
ENDROOT
BRANCH   1  13
ATOM      7  C   UNL     1       5.730   4.685  15.686  0.00  0.00    +0.000 C 
ATOM      8  O   UNL     1       4.602   4.201  15.552  0.00  0.00    +0.000 OA
ATOM      9  N   UNL     1       6.171   5.214  16.878  0.00  0.00    +0.000 N 
ATOM     10  C   UNL     1       7.510   5.685  17.181  0.00  0.00    +0.000 C 
ATOM     11  C   UNL     1       7.694   5.355  18.648  0.00  0.00    +0.000 C 
ATOM     12  C   UNL     1       6.299   5.510  19.235  0.00  0.00    +0.000 C 
ATOM     13  C   UNL     1       5.343   5.164  18.079  0.00  0.00    +0.000 C 
BRANCH   7  14
ATOM     14  C   UNL     1       6.735   4.601  14.532  0.00  0.00    +0.000 C 
BRANCH  14  15
ATOM     15  N   UNL     1       6.350   3.488  13.645  0.00  0.00    +0.000 NA
ATOM     16  H   UNL     1       6.763   3.640  12.725  0.00  0.00    +0.000 HD
ATOM     17  H   UNL     1       5.338   3.540  13.510  0.00  0.00    +0.000 HD
ENDBRANCH  14  15
ENDBRANCH   7  14
ENDBRANCH   1  13
BRANCH   5  18
ATOM     18  C   UNL     1       2.170   4.674  18.945  0.00  0.00    +0.000 A 
ATOM     19  C   UNL     1       1.839   3.618  18.082  0.00  0.00    +0.000 A 
ATOM     20  C   UNL     1       1.097   2.520  18.533  0.00  0.00    +0.000 A 
ATOM     21  C   UNL     1       0.708   2.442  19.866  0.00  0.00    +0.000 A 
ATOM     22  C   UNL     1       1.085   3.448  20.752  0.00  0.00    +0.000 A 
ATOM     23  C   UNL     1       1.809   4.550  20.293  0.00  0.00    +0.000 A 
ATOM     24  F   UNL     1       2.134   5.496  21.188  0.00  0.00    +0.000 F 
ENDBRANCH   5  18
TORSDOF 4
ENDMDL
MODEL 3
REMARK VINA RESULT:      -7.4      2.267      3.980
REMARK  Name = 
REMARK  4 active torsions:
REMARK  status: ('A' for Active; 'I' for Inactive)
REMARK    1  A    between atoms: N_1  and  C_2
REMARK    2  A    between atoms: C_2  and  C_3
REMARK    3  A    between atoms: C_9  and  C_10
REMARK    4  A    between atoms: C_14  and  C_15
REMARK                            x       y       z     vdW  Elec       q    Type
REMARK                         _______ _______ _______ _____ _____    ______ ____
ROOT
ATOM      1  C   UNL     1       3.995   4.026  17.621  0.00  0.00    +0.000 A 
ATOM      2  N   UNL     1       4.059   2.700  17.398  0.00  0.00    +0.000 NA
ATOM      3  N   UNL     1       3.085   2.194  18.167  0.00  0.00    +0.000 N 
ATOM      4  C   UNL     1       2.324   3.142  18.779  0.00  0.00    +0.000 A 
ATOM      5  C   UNL     1       2.886   4.361  18.465  0.00  0.00    +0.000 A 
ATOM      6  H   UNL     1       2.989   1.186  18.223  0.00  0.00    +0.000 HD
ENDROOT
BRANCH   1  13
ATOM      7  C   UNL     1       6.610   5.349  18.798  0.00  0.00    +0.000 C 
ATOM      8  O   UNL     1       5.746   5.841  19.531  0.00  0.00    +0.000 OA
ATOM      9  N   UNL     1       6.325   4.864  17.542  0.00  0.00    +0.000 N 
ATOM     10  C   UNL     1       7.277   4.390  16.554  0.00  0.00    +0.000 C 
ATOM     11  C   UNL     1       6.655   4.777  15.227  0.00  0.00    +0.000 C 
ATOM     12  C   UNL     1       5.158   4.662  15.478  0.00  0.00    +0.000 C 
ATOM     13  C   UNL     1       4.984   4.972  16.977  0.00  0.00    +0.000 C 
BRANCH   7  14
ATOM     14  C   UNL     1       8.079   5.376  19.233  0.00  0.00    +0.000 C 
BRANCH  14  15
ATOM     15  N   UNL     1       8.141   5.353  20.705  0.00  0.00    +0.000 NA
ATOM     16  H   UNL     1       7.953   6.289  21.060  0.00  0.00    +0.000 HD
ATOM     17  H   UNL     1       9.106   5.142  20.968  0.00  0.00    +0.000 HD
ENDBRANCH  14  15
ENDBRANCH   7  14
ENDBRANCH   1  13
BRANCH   5  18
ATOM     18  C   UNL     1       2.411   5.642  18.974  0.00  0.00    +0.000 A 
ATOM     19  C   UNL     1       2.405   6.776  18.149  0.00  0.00    +0.000 A 
ATOM     20  C   UNL     1       2.080   8.039  18.656  0.00  0.00    +0.000 A 
ATOM     21  C   UNL     1       1.717   8.181  19.992  0.00  0.00    +0.000 A 
ATOM     22  C   UNL     1       1.652   7.056  20.810  0.00  0.00    +0.000 A 
ATOM     23  C   UNL     1       1.995   5.801  20.303  0.00  0.00    +0.000 A 
ATOM     24  F   UNL     1       1.927   4.754  21.139  0.00  0.00    +0.000 F 
ENDBRANCH   5  18
TORSDOF 4
ENDMDL
MODEL 4
REMARK VINA RESULT:      -7.3      2.102      3.266
REMARK  Name = 
REMARK  4 active torsions:
REMARK  status: ('A' for Active; 'I' for Inactive)
REMARK    1  A    between atoms: N_1  and  C_2
REMARK    2  A    between atoms: C_2  and  C_3
REMARK    3  A    between atoms: C_9  and  C_10
REMARK    4  A    between atoms: C_14  and  C_15
REMARK                            x       y       z     vdW  Elec       q    Type
REMARK                         _______ _______ _______ _____ _____    ______ ____
ROOT
ATOM      1  C   UNL     1       3.829   3.216  18.174  0.00  0.00    +0.000 A 
ATOM      2  N   UNL     1       3.614   1.934  17.822  0.00  0.00    +0.000 NA
ATOM      3  N   UNL     1       2.289   1.781  17.952  0.00  0.00    +0.000 N 
ATOM      4  C   UNL     1       1.631   2.933  18.253  0.00  0.00    +0.000 A 
ATOM      5  C   UNL     1       2.596   3.903  18.424  0.00  0.00    +0.000 A 
ATOM      6  H   UNL     1       1.896   0.857  17.810  0.00  0.00    +0.000 HD
ENDROOT
BRANCH   1  13
ATOM      7  C   UNL     1       5.679   4.273  15.843  0.00  0.00    +0.000 C 
ATOM      8  O   UNL     1       5.557   3.085  15.528  0.00  0.00    +0.000 OA
ATOM      9  N   UNL     1       5.503   4.718  17.134  0.00  0.00    +0.000 N 
ATOM     10  C   UNL     1       5.748   6.057  17.636  0.00  0.00    +0.000 C 
ATOM     11  C   UNL     1       6.220   5.837  19.059  0.00  0.00    +0.000 C 
ATOM     12  C   UNL     1       5.457   4.600  19.510  0.00  0.00    +0.000 C 
ATOM     13  C   UNL     1       5.230   3.785  18.223  0.00  0.00    +0.000 C 
BRANCH   7  14
ATOM     14  C   UNL     1       6.158   5.290  14.802  0.00  0.00    +0.000 C 
BRANCH  14  15
ATOM     15  N   UNL     1       7.631   5.253  14.741  0.00  0.00    +0.000 NA
ATOM     16  H   UNL     1       7.915   4.739  13.908  0.00  0.00    +0.000 HD
ATOM     17  H   UNL     1       7.957   4.700  15.536  0.00  0.00    +0.000 HD
ENDBRANCH  14  15
ENDBRANCH   7  14
ENDBRANCH   1  13
BRANCH   5  18
ATOM     18  C   UNL     1       2.319   5.278  18.822  0.00  0.00    +0.000 A 
ATOM     19  C   UNL     1       2.391   6.318  17.882  0.00  0.00    +0.000 A 
ATOM     20  C   UNL     1       2.261   7.655  18.271  0.00  0.00    +0.000 A 
ATOM     21  C   UNL     1       2.015   7.973  19.604  0.00  0.00    +0.000 A 
ATOM     22  C   UNL     1       1.873   6.951  20.539  0.00  0.00    +0.000 A 
ATOM     23  C   UNL     1       2.023   5.619  20.148  0.00  0.00    +0.000 A 
ATOM     24  F   UNL     1       1.888   4.676  21.093  0.00  0.00    +0.000 F 
ENDBRANCH   5  18
TORSDOF 4
ENDMDL
MODEL 5
REMARK VINA RESULT:      -7.2      2.383      5.891
REMARK  Name = 
REMARK  4 active torsions:
REMARK  status: ('A' for Active; 'I' for Inactive)
REMARK    1  A    between atoms: N_1  and  C_2
REMARK    2  A    between atoms: C_2  and  C_3
REMARK    3  A    between atoms: C_9  and  C_10
REMARK    4  A    between atoms: C_14  and  C_15
REMARK                            x       y       z     vdW  Elec       q    Type
REMARK                         _______ _______ _______ _____ _____    ______ ____
ROOT
ATOM      1  C   UNL     1       5.600   5.293  18.446  0.00  0.00    +0.000 A 
ATOM      2  N   UNL     1       6.095   5.522  19.678  0.00  0.00    +0.000 NA
ATOM      3  N   UNL     1       7.394   5.210  19.568  0.00  0.00    +0.000 N 
ATOM      4  C   UNL     1       7.779   4.907  18.299  0.00  0.00    +0.000 A 
ATOM      5  C   UNL     1       6.638   4.932  17.525  0.00  0.00    +0.000 A 
ATOM      6  H   UNL     1       7.966   5.234  20.405  0.00  0.00    +0.000 HD
ENDROOT
BRANCH   1  13
ATOM      7  C   UNL     1       3.078   4.101  19.926  0.00  0.00    +0.000 C 
ATOM      8  O   UNL     1       3.621   3.070  19.518  0.00  0.00    +0.000 OA
ATOM      9  N   UNL     1       3.291   5.330  19.344  0.00  0.00    +0.000 N 
ATOM     10  C   UNL     1       2.610   6.573  19.656  0.00  0.00    +0.000 C 
ATOM     11  C   UNL     1       2.548   7.303  18.329  0.00  0.00    +0.000 C 
ATOM     12  C   UNL     1       3.826   6.879  17.620  0.00  0.00    +0.000 C 
ATOM     13  C   UNL     1       4.126   5.467  18.155  0.00  0.00    +0.000 C 
BRANCH   7  14
ATOM     14  C   UNL     1       2.034   4.018  21.045  0.00  0.00    +0.000 C 
BRANCH  14  15
ATOM     15  N   UNL     1       2.457   2.994  22.017  0.00  0.00    +0.000 NA
ATOM     16  H   UNL     1       3.343   3.278  22.433  0.00  0.00    +0.000 HD
ATOM     17  H   UNL     1       2.654   2.138  21.495  0.00  0.00    +0.000 HD
ENDBRANCH  14  15
ENDBRANCH   7  14
ENDBRANCH   1  13
BRANCH   5  18
ATOM     18  C   UNL     1       6.598   4.600  16.106  0.00  0.00    +0.000 A 
ATOM     19  C   UNL     1       7.466   5.233  15.204  0.00  0.00    +0.000 A 
ATOM     20  C   UNL     1       7.353   5.027  13.824  0.00  0.00    +0.000 A 
ATOM     21  C   UNL     1       6.392   4.151  13.327  0.00  0.00    +0.000 A 
ATOM     22  C   UNL     1       5.567   3.462  14.213  0.00  0.00    +0.000 A 
ATOM     23  C   UNL     1       5.672   3.686  15.586  0.00  0.00    +0.000 A 
ATOM     24  F   UNL     1       4.843   3.005  16.392  0.00  0.00    +0.000 F 
ENDBRANCH   5  18
TORSDOF 4
ENDMDL
MODEL 6
REMARK VINA RESULT:      -7.1      2.543      5.609
REMARK  Name = 
REMARK  4 active torsions:
REMARK  status: ('A' for Active; 'I' for Inactive)
REMARK    1  A    between atoms: N_1  and  C_2
REMARK    2  A    between atoms: C_2  and  C_3
REMARK    3  A    between atoms: C_9  and  C_10
REMARK    4  A    between atoms: C_14  and  C_15
REMARK                            x       y       z     vdW  Elec       q    Type
REMARK                         _______ _______ _______ _____ _____    ______ ____
ROOT
ATOM      1  C   UNL     1       5.033   4.684  16.131  0.00  0.00    +0.000 A 
ATOM      2  N   UNL     1       4.877   3.854  15.081  0.00  0.00    +0.000 NA
ATOM      3  N   UNL     1       6.055   3.915  14.443  0.00  0.00    +0.000 N 
ATOM      4  C   UNL     1       6.995   4.649  15.099  0.00  0.00    +0.000 A 
ATOM      5  C   UNL     1       6.373   5.186  16.205  0.00  0.00    +0.000 A 
ATOM      6  H   UNL     1       6.151   3.421  13.563  0.00  0.00    +0.000 HD
ENDROOT
BRANCH   1  13
ATOM      7  C   UNL     1       3.981   2.979  18.572  0.00  0.00    +0.000 C 
ATOM      8  O   UNL     1       3.769   2.204  17.634  0.00  0.00    +0.000 OA
ATOM      9  N   UNL     1       4.092   4.339  18.397  0.00  0.00    +0.000 N 
ATOM     10  C   UNL     1       4.208   5.346  19.436  0.00  0.00    +0.000 C 
ATOM     11  C   UNL     1       3.482   6.549  18.866  0.00  0.00    +0.000 C 
ATOM     12  C   UNL     1       3.741   6.457  17.370  0.00  0.00    +0.000 C 
ATOM     13  C   UNL     1       3.891   4.951  17.086  0.00  0.00    +0.000 C 
BRANCH   7  14
ATOM     14  C   UNL     1       4.008   2.444  20.008  0.00  0.00    +0.000 C 
BRANCH  14  15
ATOM     15  N   UNL     1       5.218   1.621  20.187  0.00  0.00    +0.000 NA
ATOM     16  H   UNL     1       5.977   2.216  20.518  0.00  0.00    +0.000 HD
ATOM     17  H   UNL     1       5.503   1.289  19.264  0.00  0.00    +0.000 HD
ENDBRANCH  14  15
ENDBRANCH   7  14
ENDBRANCH   1  13
BRANCH   5  18
ATOM     18  C   UNL     1       7.013   6.095  17.149  0.00  0.00    +0.000 A 
ATOM     19  C   UNL     1       7.152   7.457  16.842  0.00  0.00    +0.000 A 
ATOM     20  C   UNL     1       7.880   8.316  17.673  0.00  0.00    +0.000 A 
ATOM     21  C   UNL     1       8.448   7.833  18.848  0.00  0.00    +0.000 A 
ATOM     22  C   UNL     1       8.264   6.499  19.202  0.00  0.00    +0.000 A 
ATOM     23  C   UNL     1       7.553   5.643  18.360  0.00  0.00    +0.000 A 
ATOM     24  F   UNL     1       7.417   4.365  18.746  0.00  0.00    +0.000 F 
ENDBRANCH   5  18
TORSDOF 4
ENDMDL
MODEL 7
REMARK VINA RESULT:      -7.0      2.312      3.324
REMARK  Name = 
REMARK  4 active torsions:
REMARK  status: ('A' for Active; 'I' for Inactive)
REMARK    1  A    between atoms: N_1  and  C_2
REMARK    2  A    between atoms: C_2  and  C_3
REMARK    3  A    between atoms: C_9  and  C_10
REMARK    4  A    between atoms: C_14  and  C_15
REMARK                            x       y       z     vdW  Elec       q    Type
REMARK                         _______ _______ _______ _____ _____    ______ ____
ROOT
ATOM      1  C   UNL     1       4.305   6.687  17.078  0.00  0.00    +0.000 A 
ATOM      2  N   UNL     1       3.941   7.983  17.120  0.00  0.00    +0.000 NA
ATOM      3  N   UNL     1       2.785   7.973  17.798  0.00  0.00    +0.000 N 
ATOM      4  C   UNL     1       2.453   6.751  18.295  0.00  0.00    +0.000 A 
ATOM      5  C   UNL     1       3.409   5.868  17.840  0.00  0.00    +0.000 A 
ATOM      6  H   UNL     1       2.275   8.845  17.892  0.00  0.00    +0.000 HD
ENDROOT
BRANCH   1  13
ATOM      7  C   UNL     1       7.234   6.171  18.139  0.00  0.00    +0.000 C 
ATOM      8  O   UNL     1       7.106   7.376  18.378  0.00  0.00    +0.000 OA
ATOM      9  N   UNL     1       6.490   5.523  17.180  0.00  0.00    +0.000 N 
ATOM     10  C   UNL     1       6.650   4.152  16.730  0.00  0.00    +0.000 C 
ATOM     11  C   UNL     1       6.276   4.200  15.262  0.00  0.00    +0.000 C 
ATOM     12  C   UNL     1       5.204   5.278  15.193  0.00  0.00    +0.000 C 
ATOM     13  C   UNL     1       5.548   6.251  16.335  0.00  0.00    +0.000 C 
BRANCH   7  14
ATOM     14  C   UNL     1       8.337   5.372  18.841  0.00  0.00    +0.000 C 
BRANCH  14  15
ATOM     15  N   UNL     1       8.117   5.431  20.297  0.00  0.00    +0.000 NA
ATOM     16  H   UNL     1       8.589   4.642  20.736  0.00  0.00    +0.000 HD
ATOM     17  H   UNL     1       7.118   5.287  20.462  0.00  0.00    +0.000 HD
ENDBRANCH  14  15
ENDBRANCH   7  14
ENDBRANCH   1  13
BRANCH   5  18
ATOM     18  C   UNL     1       3.390   4.432  18.093  0.00  0.00    +0.000 A 
ATOM     19  C   UNL     1       2.581   3.585  17.322  0.00  0.00    +0.000 A 
ATOM     20  C   UNL     1       2.448   2.228  17.635  0.00  0.00    +0.000 A 
ATOM     21  C   UNL     1       3.155   1.687  18.704  0.00  0.00    +0.000 A 
ATOM     22  C   UNL     1       4.015   2.498  19.440  0.00  0.00    +0.000 A 
ATOM     23  C   UNL     1       4.129   3.855  19.134  0.00  0.00    +0.000 A 
ATOM     24  F   UNL     1       4.963   4.592  19.884  0.00  0.00    +0.000 F 
ENDBRANCH   5  18
TORSDOF 4
ENDMDL
MODEL 8
REMARK VINA RESULT:      -7.0      1.737      2.596
REMARK  Name = 
REMARK  4 active torsions:
REMARK  status: ('A' for Active; 'I' for Inactive)
REMARK    1  A    between atoms: N_1  and  C_2
REMARK    2  A    between atoms: C_2  and  C_3
REMARK    3  A    between atoms: C_9  and  C_10
REMARK    4  A    between atoms: C_14  and  C_15
REMARK                            x       y       z     vdW  Elec       q    Type
REMARK                         _______ _______ _______ _____ _____    ______ ____
ROOT
ATOM      1  C   UNL     1       3.538   6.473  17.780  0.00  0.00    +0.000 A 
ATOM      2  N   UNL     1       3.647   7.765  17.413  0.00  0.00    +0.000 NA
ATOM      3  N   UNL     1       2.698   8.386  18.127  0.00  0.00    +0.000 N 
ATOM      4  C   UNL     1       2.068   7.576  19.021  0.00  0.00    +0.000 A 
ATOM      5  C   UNL     1       2.571   6.308  18.825  0.00  0.00    +0.000 A 
ATOM      6  H   UNL     1       2.538   9.373  17.959  0.00  0.00    +0.000 HD
ENDROOT
BRANCH   1  13
ATOM      7  C   UNL     1       6.616   5.872  18.148  0.00  0.00    +0.000 C 
ATOM      8  O   UNL     1       6.654   7.005  17.657  0.00  0.00    +0.000 OA
ATOM      9  N   UNL     1       5.541   5.029  17.983  0.00  0.00    +0.000 N 
ATOM     10  C   UNL     1       5.447   3.643  18.401  0.00  0.00    +0.000 C 
ATOM     11  C   UNL     1       4.577   2.996  17.341  0.00  0.00    +0.000 C 
ATOM     12  C   UNL     1       3.619   4.103  16.930  0.00  0.00    +0.000 C 
ATOM     13  C   UNL     1       4.406   5.409  17.147  0.00  0.00    +0.000 C 
BRANCH   7  14
ATOM     14  C   UNL     1       7.846   5.318  18.874  0.00  0.00    +0.000 C 
BRANCH  14  15
ATOM     15  N   UNL     1       7.728   5.620  20.312  0.00  0.00    +0.000 NA
ATOM     16  H   UNL     1       7.840   4.757  20.842  0.00  0.00    +0.000 HD
ATOM     17  H   UNL     1       6.770   5.932  20.482  0.00  0.00    +0.000 HD
ENDBRANCH  14  15
ENDBRANCH   7  14
ENDBRANCH   1  13
BRANCH   5  18
ATOM     18  C   UNL     1       2.115   5.122  19.541  0.00  0.00    +0.000 A 
ATOM     19  C   UNL     1       2.533   4.882  20.858  0.00  0.00    +0.000 A 
ATOM     20  C   UNL     1       2.215   3.687  21.512  0.00  0.00    +0.000 A 
ATOM     21  C   UNL     1       1.438   2.727  20.872  0.00  0.00    +0.000 A 
ATOM     22  C   UNL     1       0.958   2.977  19.589  0.00  0.00    +0.000 A 
ATOM     23  C   UNL     1       1.293   4.163  18.934  0.00  0.00    +0.000 A 
ATOM     24  F   UNL     1       0.813   4.345  17.694  0.00  0.00    +0.000 F 
ENDBRANCH   5  18
TORSDOF 4
ENDMDL
MODEL 9
REMARK VINA RESULT:      -6.9      2.271      3.880
REMARK  Name = 
REMARK  4 active torsions:
REMARK  status: ('A' for Active; 'I' for Inactive)
REMARK    1  A    between atoms: N_1  and  C_2
REMARK    2  A    between atoms: C_2  and  C_3
REMARK    3  A    between atoms: C_9  and  C_10
REMARK    4  A    between atoms: C_14  and  C_15
REMARK                            x       y       z     vdW  Elec       q    Type
REMARK                         _______ _______ _______ _____ _____    ______ ____
ROOT
ATOM      1  C   UNL     1       4.018   4.242  17.637  0.00  0.00    +0.000 A 
ATOM      2  N   UNL     1       4.017   2.935  17.311  0.00  0.00    +0.000 NA
ATOM      3  N   UNL     1       3.006   2.424  18.026  0.00  0.00    +0.000 N 
ATOM      4  C   UNL     1       2.285   3.359  18.701  0.00  0.00    +0.000 A 
ATOM      5  C   UNL     1       2.915   4.567  18.491  0.00  0.00    +0.000 A 
ATOM      6  H   UNL     1       2.857   1.420  18.000  0.00  0.00    +0.000 HD
ENDROOT
BRANCH   1  13
ATOM      7  C   UNL     1       6.677   5.331  18.949  0.00  0.00    +0.000 C 
ATOM      8  O   UNL     1       5.826   5.809  19.706  0.00  0.00    +0.000 OA
ATOM      9  N   UNL     1       6.390   4.959  17.655  0.00  0.00    +0.000 N 
ATOM     10  C   UNL     1       7.333   4.514  16.645  0.00  0.00    +0.000 C 
ATOM     11  C   UNL     1       6.755   5.034  15.345  0.00  0.00    +0.000 C 
ATOM     12  C   UNL     1       5.250   4.979  15.566  0.00  0.00    +0.000 C 
ATOM     13  C   UNL     1       5.066   5.181  17.082  0.00  0.00    +0.000 C 
BRANCH   7  14
ATOM     14  C   UNL     1       8.137   5.246  19.404  0.00  0.00    +0.000 C 
BRANCH  14  15
ATOM     15  N   UNL     1       8.180   5.267  20.877  0.00  0.00    +0.000 NA
ATOM     16  H   UNL     1       7.231   5.180  21.237  0.00  0.00    +0.000 HD
ATOM     17  H   UNL     1       8.504   6.194  21.161  0.00  0.00    +0.000 HD
ENDBRANCH  14  15
ENDBRANCH   7  14
ENDBRANCH   1  13
BRANCH   5  18
ATOM     18  C   UNL     1       2.498   5.828  19.094  0.00  0.00    +0.000 A 
ATOM     19  C   UNL     1       2.055   5.868  20.424  0.00  0.00    +0.000 A 
ATOM     20  C   UNL     1       1.527   7.040  20.977  0.00  0.00    +0.000 A 
ATOM     21  C   UNL     1       1.471   8.205  20.218  0.00  0.00    +0.000 A 
ATOM     22  C   UNL     1       1.968   8.202  18.917  0.00  0.00    +0.000 A 
ATOM     23  C   UNL     1       2.477   7.025  18.365  0.00  0.00    +0.000 A 
ATOM     24  F   UNL     1       2.931   7.077  17.104  0.00  0.00    +0.000 F 
ENDBRANCH   5  18
TORSDOF 4
ENDMDL
