MODEL 1
REMARK VINA RESULT:      -7.8      0.000      0.000
REMARK  Name = 
REMARK  10 active torsions:
REMARK  status: ('A' for Active; 'I' for Inactive)
REMARK    1  A    between atoms: C_2  and  C_3
REMARK    2  A    between atoms: C_3  and  N_4
REMARK    3  A    between atoms: C_5  and  S_6
REMARK    4  A    between atoms: S_6  and  C_7
REMARK    5  A    between atoms: C_7  and  C_8
REMARK    6  A    between atoms: N_10  and  C_11
REMARK    7  A    between atoms: C_12  and  C_13
REMARK    8  A    between atoms: N_14  and  C_15
REMARK    9  A    between atoms: N_16  and  C_17
REMARK   10  A    between atoms: C_27  and  C_28
REMARK                            x       y       z     vdW  Elec       q    Type
REMARK                         _______ _______ _______ _____ _____    ______ ____
ROOT
ATOM      1  C   UNL     1       1.748   5.023  20.826  0.00  0.00    +0.000 C 
ATOM      2  O   UNL     1       0.688   4.803  20.237  0.00  0.00    +0.000 OA
ATOM      3  N   UNL     1       2.461   6.189  20.694  0.00  0.00    +0.000 N 
ATOM      4  H   UNL     1       3.466   6.114  20.823  0.00  0.00    +0.000 HD
ENDROOT
BRANCH   3   5
ATOM      5  C   UNL     1       2.044   7.321  20.057  0.00  0.00    +0.000 A 
ATOM      6  C   UNL     1       2.390   7.923  18.908  0.00  0.00    +0.000 A 
ATOM      7  C   UNL     1       3.339   7.438  17.860  0.00  0.00    +0.000 C 
ATOM      8  N   UNL     1       1.628   9.069  18.709  0.00  0.00    +0.000 N 
ATOM      9  C   UNL     1       1.626   9.994  17.594  0.00  0.00    +0.000 C 
ATOM     10  N   UNL     1       0.606   9.114  19.688  0.00  0.00    +0.000 N 
ATOM     11  C   UNL     1       0.950   8.156  20.650  0.00  0.00    +0.000 A 
ATOM     12  O   UNL     1       0.507   7.971  21.775  0.00  0.00    +0.000 OA
BRANCH  10  13
ATOM     13  C   UNL     1       0.077  10.370  20.035  0.00  0.00    +0.000 A 
ATOM     14  C   UNL     1      -1.161  10.814  19.564  0.00  0.00    +0.000 A 
ATOM     15  C   UNL     1      -1.678  12.026  20.028  0.00  0.00    +0.000 A 
ATOM     16  C   UNL     1      -0.953  12.796  20.941  0.00  0.00    +0.000 A 
ATOM     17  C   UNL     1       0.292  12.362  21.392  0.00  0.00    +0.000 A 
ATOM     18  C   UNL     1       0.804  11.148  20.942  0.00  0.00    +0.000 A 
ENDBRANCH  10  13
ENDBRANCH   3   5
BRANCH   1  19
ATOM     19  C   UNL     1       2.406   3.918  21.641  0.00  0.00    +0.000 C 
BRANCH  19  20
ATOM     20  S   UNL     1       3.114   2.539  20.694  0.00  0.00    +0.000 S 
BRANCH  20  22
ATOM     21  N   UNL     1       4.351   3.246  18.351  0.00  0.00    +0.000 N 
ATOM     22  C   UNL     1       4.315   3.313  19.721  0.00  0.00    +0.000 A 
ATOM     23  N   UNL     1       5.290   4.074  20.149  0.00  0.00    +0.000 NA
ATOM     24  N   UNL     1       5.973   4.531  19.051  0.00  0.00    +0.000 NA
ATOM     25  C   UNL     1       5.408   4.057  17.957  0.00  0.00    +0.000 A 
BRANCH  25  26
ATOM     26  C   UNL     1       5.888   4.331  16.594  0.00  0.00    +0.000 A 
ATOM     27  C   UNL     1       5.240   3.929  15.416  0.00  0.00    +0.000 A 
ATOM     28  C   UNL     1       5.785   4.215  14.167  0.00  0.00    +0.000 A 
ATOM     29  C   UNL     1       6.967   4.929  14.113  0.00  0.00    +0.000 A 
ATOM     30  N   UNL     1       7.611   5.373  15.210  0.00  0.00    +0.000 NA
ATOM     31  C   UNL     1       7.054   5.075  16.414  0.00  0.00    +0.000 A 
ENDBRANCH  25  26
BRANCH  21  32
ATOM     32  C   UNL     1       3.530   2.394  17.511  0.00  0.00    +0.000 C 
BRANCH  32  34
ATOM     33  C   UNL     1       1.794   4.194  17.187  0.00  0.00    +0.000 C 
ATOM     34  C   UNL     1       2.126   2.908  17.367  0.00  0.00    +0.000 C 
ENDBRANCH  32  34
ENDBRANCH  21  32
ENDBRANCH  20  22
ENDBRANCH  19  20
ENDBRANCH   1  19
TORSDOF 8
ENDMDL
MODEL 2
REMARK VINA RESULT:      -7.7      7.127      8.481
REMARK  Name = 
REMARK  10 active torsions:
REMARK  status: ('A' for Active; 'I' for Inactive)
REMARK    1  A    between atoms: C_2  and  C_3
REMARK    2  A    between atoms: C_3  and  N_4
REMARK    3  A    between atoms: C_5  and  S_6
REMARK    4  A    between atoms: S_6  and  C_7
REMARK    5  A    between atoms: C_7  and  C_8
REMARK    6  A    between atoms: N_10  and  C_11
REMARK    7  A    between atoms: C_12  and  C_13
REMARK    8  A    between atoms: N_14  and  C_15
REMARK    9  A    between atoms: N_16  and  C_17
REMARK   10  A    between atoms: C_27  and  C_28
REMARK                            x       y       z     vdW  Elec       q    Type
REMARK                         _______ _______ _______ _____ _____    ______ ____
ROOT
ATOM      1  C   UNL     1       8.724   9.494  18.739  0.00  0.00    +0.000 C 
ATOM      2  O   UNL     1       8.162  10.154  17.863  0.00  0.00    +0.000 OA
ATOM      3  N   UNL     1       9.552  10.043  19.688  0.00  0.00    +0.000 N 
ATOM      4  H   UNL     1      10.285   9.437  20.045  0.00  0.00    +0.000 HD
ENDROOT
BRANCH   3   5
ATOM      5  C   UNL     1       9.741  11.374  19.919  0.00  0.00    +0.000 A 
ATOM      6  C   UNL     1       9.347  12.215  20.890  0.00  0.00    +0.000 A 
ATOM      7  C   UNL     1       8.611  11.891  22.150  0.00  0.00    +0.000 C 
ATOM      8  N   UNL     1       9.835  13.495  20.654  0.00  0.00    +0.000 N 
ATOM      9  C   UNL     1       9.703  14.695  21.453  0.00  0.00    +0.000 C 
ATOM     10  N   UNL     1      10.748  13.443  19.572  0.00  0.00    +0.000 N 
ATOM     11  C   UNL     1      10.568  12.191  18.973  0.00  0.00    +0.000 A 
ATOM     12  O   UNL     1      10.961  11.765  17.896  0.00  0.00    +0.000 OA
BRANCH  10  13
ATOM     13  C   UNL     1      10.947  14.614  18.818  0.00  0.00    +0.000 A 
ATOM     14  C   UNL     1      12.144  15.334  18.860  0.00  0.00    +0.000 A 
ATOM     15  C   UNL     1      12.317  16.429  18.010  0.00  0.00    +0.000 A 
ATOM     16  C   UNL     1      11.294  16.811  17.138  0.00  0.00    +0.000 A 
ATOM     17  C   UNL     1      10.093  16.105  17.115  0.00  0.00    +0.000 A 
ATOM     18  C   UNL     1       9.922  15.005  17.951  0.00  0.00    +0.000 A 
ENDBRANCH  10  13
ENDBRANCH   3   5
BRANCH   1  19
ATOM     19  C   UNL     1       8.635   7.974  18.720  0.00  0.00    +0.000 C 
BRANCH  19  20
ATOM     20  S   UNL     1       7.605   7.251  17.410  0.00  0.00    +0.000 S 
BRANCH  20  22
ATOM     21  N   UNL     1       5.508   5.519  17.756  0.00  0.00    +0.000 N 
ATOM     22  C   UNL     1       6.641   6.099  18.266  0.00  0.00    +0.000 A 
ATOM     23  N   UNL     1       6.884   5.616  19.458  0.00  0.00    +0.000 NA
ATOM     24  N   UNL     1       5.909   4.692  19.738  0.00  0.00    +0.000 NA
ATOM     25  C   UNL     1       5.082   4.606  18.714  0.00  0.00    +0.000 A 
BRANCH  25  26
ATOM     26  C   UNL     1       3.908   3.722  18.672  0.00  0.00    +0.000 A 
ATOM     27  C   UNL     1       3.952   2.333  18.482  0.00  0.00    +0.000 A 
ATOM     28  C   UNL     1       2.780   1.581  18.432  0.00  0.00    +0.000 A 
ATOM     29  C   UNL     1       1.574   2.231  18.602  0.00  0.00    +0.000 A 
ATOM     30  N   UNL     1       1.475   3.555  18.826  0.00  0.00    +0.000 NA
ATOM     31  C   UNL     1       2.636   4.262  18.867  0.00  0.00    +0.000 A 
ENDBRANCH  25  26
BRANCH  21  32
ATOM     32  C   UNL     1       4.832   5.888  16.526  0.00  0.00    +0.000 C 
BRANCH  32  34
ATOM     33  C   UNL     1       6.277   4.651  14.872  0.00  0.00    +0.000 C 
ATOM     34  C   UNL     1       5.080   4.907  15.416  0.00  0.00    +0.000 C 
ENDBRANCH  32  34
ENDBRANCH  21  32
ENDBRANCH  20  22
ENDBRANCH  19  20
ENDBRANCH   1  19
TORSDOF 8
ENDMDL
MODEL 3
REMARK VINA RESULT:      -7.5      6.944      8.447
REMARK  Name = 
REMARK  10 active torsions:
REMARK  status: ('A' for Active; 'I' for Inactive)
REMARK    1  A    between atoms: C_2  and  C_3
REMARK    2  A    between atoms: C_3  and  N_4
REMARK    3  A    between atoms: C_5  and  S_6
REMARK    4  A    between atoms: S_6  and  C_7
REMARK    5  A    between atoms: C_7  and  C_8
REMARK    6  A    between atoms: N_10  and  C_11
REMARK    7  A    between atoms: C_12  and  C_13
REMARK    8  A    between atoms: N_14  and  C_15
REMARK    9  A    between atoms: N_16  and  C_17
REMARK   10  A    between atoms: C_27  and  C_28
REMARK                            x       y       z     vdW  Elec       q    Type
REMARK                         _______ _______ _______ _____ _____    ______ ____
ROOT
ATOM      1  C   UNL     1       8.372   9.252  18.327  0.00  0.00    +0.000 C 
ATOM      2  O   UNL     1       7.489   9.960  17.837  0.00  0.00    +0.000 OA
ATOM      3  N   UNL     1       9.482   9.755  18.960  0.00  0.00    +0.000 N 
ATOM      4  H   UNL     1      10.318   9.179  18.918  0.00  0.00    +0.000 HD
ENDROOT
BRANCH   3   5
ATOM      5  C   UNL     1       9.696  11.059  19.295  0.00  0.00    +0.000 A 
ATOM      6  C   UNL     1       9.357  11.816  20.352  0.00  0.00    +0.000 A 
ATOM      7  C   UNL     1       8.675  11.391  21.612  0.00  0.00    +0.000 C 
ATOM      8  N   UNL     1       9.849  13.109  20.205  0.00  0.00    +0.000 N 
ATOM      9  C   UNL     1       9.766  14.236  21.109  0.00  0.00    +0.000 C 
ATOM     10  N   UNL     1      10.711  13.143  19.081  0.00  0.00    +0.000 N 
ATOM     11  C   UNL     1      10.489  11.948  18.386  0.00  0.00    +0.000 A 
ATOM     12  O   UNL     1      10.828  11.614  17.259  0.00  0.00    +0.000 OA
BRANCH  10  13
ATOM     13  C   UNL     1      10.889  14.373  18.422  0.00  0.00    +0.000 A 
ATOM     14  C   UNL     1       9.863  14.990  17.703  0.00  0.00    +0.000 A 
ATOM     15  C   UNL     1      10.072  16.259  17.159  0.00  0.00    +0.000 A 
ATOM     16  C   UNL     1      11.303  16.898  17.318  0.00  0.00    +0.000 A 
ATOM     17  C   UNL     1      12.333  16.271  18.017  0.00  0.00    +0.000 A 
ATOM     18  C   UNL     1      12.125  15.011  18.572  0.00  0.00    +0.000 A 
ENDBRANCH  10  13
ENDBRANCH   3   5
BRANCH   1  19
ATOM     19  C   UNL     1       8.337   7.745  18.119  0.00  0.00    +0.000 C 
BRANCH  19  20
ATOM     20  S   UNL     1       6.939   7.102  17.154  0.00  0.00    +0.000 S 
BRANCH  20  22
ATOM     21  N   UNL     1       4.891   5.572  18.144  0.00  0.00    +0.000 N 
ATOM     22  C   UNL     1       6.195   5.987  18.245  0.00  0.00    +0.000 A 
ATOM     23  N   UNL     1       6.773   5.382  19.251  0.00  0.00    +0.000 NA
ATOM     24  N   UNL     1       5.847   4.543  19.818  0.00  0.00    +0.000 NA
ATOM     25  C   UNL     1       4.712   4.630  19.151  0.00  0.00    +0.000 A 
BRANCH  25  26
ATOM     26  C   UNL     1       3.495   3.878  19.489  0.00  0.00    +0.000 A 
ATOM     27  C   UNL     1       2.565   4.250  20.472  0.00  0.00    +0.000 A 
ATOM     28  C   UNL     1       1.451   3.458  20.738  0.00  0.00    +0.000 A 
ATOM     29  C   UNL     1       1.267   2.310  19.993  0.00  0.00    +0.000 A 
ATOM     30  N   UNL     1       2.105   1.925  19.012  0.00  0.00    +0.000 NA
ATOM     31  C   UNL     1       3.185   2.718  18.777  0.00  0.00    +0.000 A 
ENDBRANCH  25  26
BRANCH  21  32
ATOM     32  C   UNL     1       3.884   6.111  17.251  0.00  0.00    +0.000 C 
BRANCH  32  34
ATOM     33  C   UNL     1       2.780   8.165  18.211  0.00  0.00    +0.000 C 
ATOM     34  C   UNL     1       2.796   6.844  17.984  0.00  0.00    +0.000 C 
ENDBRANCH  32  34
ENDBRANCH  21  32
ENDBRANCH  20  22
ENDBRANCH  19  20
ENDBRANCH   1  19
TORSDOF 8
ENDMDL
MODEL 4
REMARK VINA RESULT:      -7.4      6.526      9.194
REMARK  Name = 
REMARK  10 active torsions:
REMARK  status: ('A' for Active; 'I' for Inactive)
REMARK    1  A    between atoms: C_2  and  C_3
REMARK    2  A    between atoms: C_3  and  N_4
REMARK    3  A    between atoms: C_5  and  S_6
REMARK    4  A    between atoms: S_6  and  C_7
REMARK    5  A    between atoms: C_7  and  C_8
REMARK    6  A    between atoms: N_10  and  C_11
REMARK    7  A    between atoms: C_12  and  C_13
REMARK    8  A    between atoms: N_14  and  C_15
REMARK    9  A    between atoms: N_16  and  C_17
REMARK   10  A    between atoms: C_27  and  C_28
REMARK                            x       y       z     vdW  Elec       q    Type
REMARK                         _______ _______ _______ _____ _____    ______ ____
ROOT
ATOM      1  C   UNL     1       7.316   7.054  17.892  0.00  0.00    +0.000 C 
ATOM      2  O   UNL     1       7.969   6.312  18.629  0.00  0.00    +0.000 OA
ATOM      3  N   UNL     1       6.128   6.687  17.309  0.00  0.00    +0.000 N 
ATOM      4  H   UNL     1       5.911   7.131  16.421  0.00  0.00    +0.000 HD
ENDROOT
BRANCH   3   5
ATOM      5  C   UNL     1       5.414   5.556  17.577  0.00  0.00    +0.000 A 
ATOM      6  C   UNL     1       5.180   4.421  16.898  0.00  0.00    +0.000 A 
ATOM      7  C   UNL     1       5.758   3.990  15.589  0.00  0.00    +0.000 C 
ATOM      8  N   UNL     1       4.382   3.561  17.646  0.00  0.00    +0.000 N 
ATOM      9  C   UNL     1       3.923   2.223  17.336  0.00  0.00    +0.000 C 
ATOM     10  N   UNL     1       4.245   4.088  18.954  0.00  0.00    +0.000 N 
ATOM     11  C   UNL     1       4.706   5.408  18.890  0.00  0.00    +0.000 A 
ATOM     12  O   UNL     1       4.593   6.326  19.691  0.00  0.00    +0.000 OA
BRANCH  10  13
ATOM     13  C   UNL     1       3.106   3.726  19.697  0.00  0.00    +0.000 A 
ATOM     14  C   UNL     1       1.817   4.114  19.322  0.00  0.00    +0.000 A 
ATOM     15  C   UNL     1       0.720   3.636  20.042  0.00  0.00    +0.000 A 
ATOM     16  C   UNL     1       0.912   2.792  21.138  0.00  0.00    +0.000 A 
ATOM     17  C   UNL     1       2.200   2.425  21.524  0.00  0.00    +0.000 A 
ATOM     18  C   UNL     1       3.296   2.889  20.801  0.00  0.00    +0.000 A 
ENDBRANCH  10  13
ENDBRANCH   3   5
BRANCH   1  19
ATOM     19  C   UNL     1       7.887   8.400  17.471  0.00  0.00    +0.000 C 
BRANCH  19  20
ATOM     20  S   UNL     1       8.820   9.305  18.740  0.00  0.00    +0.000 S 
BRANCH  20  22
ATOM     21  N   UNL     1       9.697  11.889  18.468  0.00  0.00    +0.000 N 
ATOM     22  C   UNL     1       8.749  10.940  18.181  0.00  0.00    +0.000 A 
ATOM     23  N   UNL     1       7.832  11.455  17.403  0.00  0.00    +0.000 NA
ATOM     24  N   UNL     1       8.182  12.759  17.156  0.00  0.00    +0.000 NA
ATOM     25  C   UNL     1       9.314  13.031  17.775  0.00  0.00    +0.000 A 
BRANCH  25  26
ATOM     26  C   UNL     1       9.979  14.343  17.742  0.00  0.00    +0.000 A 
ATOM     27  C   UNL     1      11.170  14.625  17.056  0.00  0.00    +0.000 A 
ATOM     28  C   UNL     1      11.738  15.896  17.104  0.00  0.00    +0.000 A 
ATOM     29  C   UNL     1      11.088  16.880  17.821  0.00  0.00    +0.000 A 
ATOM     30  N   UNL     1       9.924  16.676  18.467  0.00  0.00    +0.000 NA
ATOM     31  C   UNL     1       9.395  15.424  18.403  0.00  0.00    +0.000 A 
ENDBRANCH  25  26
BRANCH  21  32
ATOM     32  C   UNL     1      10.794  11.752  19.408  0.00  0.00    +0.000 C 
BRANCH  32  34
ATOM     33  C   UNL     1      10.262  13.320  21.309  0.00  0.00    +0.000 C 
ATOM     34  C   UNL     1      10.390  12.080  20.817  0.00  0.00    +0.000 C 
ENDBRANCH  32  34
ENDBRANCH  21  32
ENDBRANCH  20  22
ENDBRANCH  19  20
ENDBRANCH   1  19
TORSDOF 8
ENDMDL
MODEL 5
REMARK VINA RESULT:      -7.4      2.444      3.793
REMARK  Name = 
REMARK  10 active torsions:
REMARK  status: ('A' for Active; 'I' for Inactive)
REMARK    1  A    between atoms: C_2  and  C_3
REMARK    2  A    between atoms: C_3  and  N_4
REMARK    3  A    between atoms: C_5  and  S_6
REMARK    4  A    between atoms: S_6  and  C_7
REMARK    5  A    between atoms: C_7  and  C_8
REMARK    6  A    between atoms: N_10  and  C_11
REMARK    7  A    between atoms: C_12  and  C_13
REMARK    8  A    between atoms: N_14  and  C_15
REMARK    9  A    between atoms: N_16  and  C_17
REMARK   10  A    between atoms: C_27  and  C_28
REMARK                            x       y       z     vdW  Elec       q    Type
REMARK                         _______ _______ _______ _____ _____    ______ ____
ROOT
ATOM      1  C   UNL     1       0.566   8.157  21.225  0.00  0.00    +0.000 C 
ATOM      2  O   UNL     1      -0.548   7.663  21.413  0.00  0.00    +0.000 OA
ATOM      3  N   UNL     1       0.773   9.494  20.993  0.00  0.00    +0.000 N 
ATOM      4  H   UNL     1       1.584   9.728  20.428  0.00  0.00    +0.000 HD
ENDROOT
BRANCH   3   5
ATOM      5  C   UNL     1      -0.158  10.484  21.104  0.00  0.00    +0.000 A 
ATOM      6  C   UNL     1      -0.807  11.255  20.216  0.00  0.00    +0.000 A 
ATOM      7  C   UNL     1      -0.768  11.178  18.724  0.00  0.00    +0.000 C 
ATOM      8  N   UNL     1      -1.685  12.117  20.866  0.00  0.00    +0.000 N 
ATOM      9  C   UNL     1      -2.613  13.080  20.311  0.00  0.00    +0.000 C 
ATOM     10  N   UNL     1      -1.744  11.759  22.235  0.00  0.00    +0.000 N 
ATOM     11  C   UNL     1      -0.673  10.884  22.454  0.00  0.00    +0.000 A 
ATOM     12  O   UNL     1      -0.183  10.480  23.499  0.00  0.00    +0.000 OA
BRANCH  10  13
ATOM     13  C   UNL     1      -2.102  12.754  23.163  0.00  0.00    +0.000 A 
ATOM     14  C   UNL     1      -1.267  13.834  23.458  0.00  0.00    +0.000 A 
ATOM     15  C   UNL     1      -1.723  14.843  24.310  0.00  0.00    +0.000 A 
ATOM     16  C   UNL     1      -2.998  14.762  24.876  0.00  0.00    +0.000 A 
ATOM     17  C   UNL     1      -3.820  13.672  24.598  0.00  0.00    +0.000 A 
ATOM     18  C   UNL     1      -3.374  12.671  23.739  0.00  0.00    +0.000 A 
ENDBRANCH  10  13
ENDBRANCH   3   5
BRANCH   1  19
ATOM     19  C   UNL     1       1.784   7.253  21.098  0.00  0.00    +0.000 C 
BRANCH  19  20
ATOM     20  S   UNL     1       1.635   5.870  19.930  0.00  0.00    +0.000 S 
BRANCH  20  22
ATOM     21  N   UNL     1       3.514   5.288  18.020  0.00  0.00    +0.000 N 
ATOM     22  C   UNL     1       2.832   6.238  18.738  0.00  0.00    +0.000 A 
ATOM     23  N   UNL     1       3.200   7.432  18.350  0.00  0.00    +0.000 NA
ATOM     24  N   UNL     1       4.127   7.276  17.351  0.00  0.00    +0.000 NA
ATOM     25  C   UNL     1       4.314   5.990  17.125  0.00  0.00    +0.000 A 
BRANCH  25  26
ATOM     26  C   UNL     1       5.251   5.453  16.127  0.00  0.00    +0.000 A 
ATOM     27  C   UNL     1       4.899   4.611  15.062  0.00  0.00    +0.000 A 
ATOM     28  C   UNL     1       5.865   4.133  14.180  0.00  0.00    +0.000 A 
ATOM     29  C   UNL     1       7.175   4.529  14.361  0.00  0.00    +0.000 A 
ATOM     30  N   UNL     1       7.564   5.366  15.342  0.00  0.00    +0.000 NA
ATOM     31  C   UNL     1       6.598   5.814  16.189  0.00  0.00    +0.000 A 
ENDBRANCH  25  26
BRANCH  21  32
ATOM     32  C   UNL     1       3.492   3.856  18.249  0.00  0.00    +0.000 C 
BRANCH  32  34
ATOM     33  C   UNL     1       4.375   2.414  20.119  0.00  0.00    +0.000 C 
ATOM     34  C   UNL     1       4.530   3.415  19.241  0.00  0.00    +0.000 C 
ENDBRANCH  32  34
ENDBRANCH  21  32
ENDBRANCH  20  22
ENDBRANCH  19  20
ENDBRANCH   1  19
TORSDOF 8
ENDMDL
MODEL 6
REMARK VINA RESULT:      -7.4      4.012     10.188
REMARK  Name = 
REMARK  10 active torsions:
REMARK  status: ('A' for Active; 'I' for Inactive)
REMARK    1  A    between atoms: C_2  and  C_3
REMARK    2  A    between atoms: C_3  and  N_4
REMARK    3  A    between atoms: C_5  and  S_6
REMARK    4  A    between atoms: S_6  and  C_7
REMARK    5  A    between atoms: C_7  and  C_8
REMARK    6  A    between atoms: N_10  and  C_11
REMARK    7  A    between atoms: C_12  and  C_13
REMARK    8  A    between atoms: N_14  and  C_15
REMARK    9  A    between atoms: N_16  and  C_17
REMARK   10  A    between atoms: C_27  and  C_28
REMARK                            x       y       z     vdW  Elec       q    Type
REMARK                         _______ _______ _______ _____ _____    ______ ____
ROOT
ATOM      1  C   UNL     1       0.320  10.221  21.824  0.00  0.00    +0.000 C 
ATOM      2  O   UNL     1       1.315  10.943  21.737  0.00  0.00    +0.000 OA
ATOM      3  N   UNL     1       0.105   9.127  21.023  0.00  0.00    +0.000 N 
ATOM      4  H   UNL     1      -0.867   8.887  20.847  0.00  0.00    +0.000 HD
ENDROOT
BRANCH   3   5
ATOM      5  C   UNL     1       1.002   8.575  20.156  0.00  0.00    +0.000 A 
ATOM      6  C   UNL     1       1.575   8.997  19.017  0.00  0.00    +0.000 A 
ATOM      7  C   UNL     1       1.465  10.339  18.368  0.00  0.00    +0.000 C 
ATOM      8  N   UNL     1       2.450   8.034  18.525  0.00  0.00    +0.000 N 
ATOM      9  C   UNL     1       3.311   8.077  17.362  0.00  0.00    +0.000 C 
ATOM     10  N   UNL     1       2.592   7.010  19.493  0.00  0.00    +0.000 N 
ATOM     11  C   UNL     1       1.568   7.214  20.425  0.00  0.00    +0.000 A 
ATOM     12  O   UNL     1       1.146   6.482  21.310  0.00  0.00    +0.000 OA
BRANCH  10  13
ATOM     13  C   UNL     1       2.957   5.726  19.049  0.00  0.00    +0.000 A 
ATOM     14  C   UNL     1       2.136   4.964  18.213  0.00  0.00    +0.000 A 
ATOM     15  C   UNL     1       2.601   3.741  17.723  0.00  0.00    +0.000 A 
ATOM     16  C   UNL     1       3.868   3.277  18.080  0.00  0.00    +0.000 A 
ATOM     17  C   UNL     1       4.676   4.027  18.932  0.00  0.00    +0.000 A 
ATOM     18  C   UNL     1       4.222   5.253  19.413  0.00  0.00    +0.000 A 
ENDBRANCH  10  13
ENDBRANCH   3   5
BRANCH   1  19
ATOM     19  C   UNL     1      -0.818  10.608  22.759  0.00  0.00    +0.000 C 
BRANCH  19  20
ATOM     20  S   UNL     1      -1.196  12.381  22.867  0.00  0.00    +0.000 S 
BRANCH  20  22
ATOM     21  N   UNL     1      -3.329  12.599  21.158  0.00  0.00    +0.000 N 
ATOM     22  C   UNL     1      -2.871  12.447  22.442  0.00  0.00    +0.000 A 
ATOM     23  N   UNL     1      -3.885  12.322  23.259  0.00  0.00    +0.000 NA
ATOM     24  N   UNL     1      -5.032  12.376  22.508  0.00  0.00    +0.000 NA
ATOM     25  C   UNL     1      -4.715  12.523  21.237  0.00  0.00    +0.000 A 
BRANCH  25  26
ATOM     26  C   UNL     1      -5.697  12.632  20.147  0.00  0.00    +0.000 A 
ATOM     27  C   UNL     1      -6.023  11.604  19.251  0.00  0.00    +0.000 A 
ATOM     28  C   UNL     1      -6.951  11.810  18.233  0.00  0.00    +0.000 A 
ATOM     29  C   UNL     1      -7.564  13.044  18.142  0.00  0.00    +0.000 A 
ATOM     30  N   UNL     1      -7.318  14.054  18.999  0.00  0.00    +0.000 NA
ATOM     31  C   UNL     1      -6.406  13.822  19.980  0.00  0.00    +0.000 A 
ENDBRANCH  25  26
BRANCH  21  32
ATOM     32  C   UNL     1      -2.527  12.906  19.989  0.00  0.00    +0.000 C 
BRANCH  32  34
ATOM     33  C   UNL     1      -1.891  11.733  17.850  0.00  0.00    +0.000 C 
ATOM     34  C   UNL     1      -2.263  11.697  19.137  0.00  0.00    +0.000 C 
ENDBRANCH  32  34
ENDBRANCH  21  32
ENDBRANCH  20  22
ENDBRANCH  19  20
ENDBRANCH   1  19
TORSDOF 8
ENDMDL
MODEL 7
REMARK VINA RESULT:      -7.4      6.763      7.996
REMARK  Name = 
REMARK  10 active torsions:
REMARK  status: ('A' for Active; 'I' for Inactive)
REMARK    1  A    between atoms: C_2  and  C_3
REMARK    2  A    between atoms: C_3  and  N_4
REMARK    3  A    between atoms: C_5  and  S_6
REMARK    4  A    between atoms: S_6  and  C_7
REMARK    5  A    between atoms: C_7  and  C_8
REMARK    6  A    between atoms: N_10  and  C_11
REMARK    7  A    between atoms: C_12  and  C_13
REMARK    8  A    between atoms: N_14  and  C_15
REMARK    9  A    between atoms: N_16  and  C_17
REMARK   10  A    between atoms: C_27  and  C_28
REMARK                            x       y       z     vdW  Elec       q    Type
REMARK                         _______ _______ _______ _____ _____    ______ ____
ROOT
ATOM      1  C   UNL     1       8.670   9.798  18.547  0.00  0.00    +0.000 C 
ATOM      2  O   UNL     1       8.107  10.347  17.598  0.00  0.00    +0.000 OA
ATOM      3  N   UNL     1       9.528  10.449  19.399  0.00  0.00    +0.000 N 
ATOM      4  H   UNL     1      10.254   9.878  19.823  0.00  0.00    +0.000 HD
ENDROOT
BRANCH   3   5
ATOM      5  C   UNL     1       9.753  11.793  19.444  0.00  0.00    +0.000 A 
ATOM      6  C   UNL     1      10.495  12.638  18.709  0.00  0.00    +0.000 A 
ATOM      7  C   UNL     1      11.276  12.342  17.469  0.00  0.00    +0.000 C 
ATOM      8  N   UNL     1      10.357  13.941  19.175  0.00  0.00    +0.000 N 
ATOM      9  C   UNL     1      10.928  15.169  18.664  0.00  0.00    +0.000 C 
ATOM     10  N   UNL     1       9.327  13.971  20.147  0.00  0.00    +0.000 N 
ATOM     11  C   UNL     1       9.066  12.636  20.476  0.00  0.00    +0.000 A 
ATOM     12  O   UNL     1       8.426  12.160  21.403  0.00  0.00    +0.000 OA
BRANCH  10  13
ATOM     13  C   UNL     1       9.362  14.990  21.116  0.00  0.00    +0.000 A 
ATOM     14  C   UNL     1      10.392  15.091  22.055  0.00  0.00    +0.000 A 
ATOM     15  C   UNL     1      10.425  16.184  22.924  0.00  0.00    +0.000 A 
ATOM     16  C   UNL     1       9.425  17.159  22.865  0.00  0.00    +0.000 A 
ATOM     17  C   UNL     1       8.387  17.043  21.944  0.00  0.00    +0.000 A 
ATOM     18  C   UNL     1       8.358  15.962  21.067  0.00  0.00    +0.000 A 
ENDBRANCH  10  13
ENDBRANCH   3   5
BRANCH   1  19
ATOM     19  C   UNL     1       8.544   8.293  18.736  0.00  0.00    +0.000 C 
BRANCH  19  20
ATOM     20  S   UNL     1       7.741   7.382  17.385  0.00  0.00    +0.000 S 
BRANCH  20  22
ATOM     21  N   UNL     1       5.602   5.710  17.769  0.00  0.00    +0.000 N 
ATOM     22  C   UNL     1       6.803   6.195  18.222  0.00  0.00    +0.000 A 
ATOM     23  N   UNL     1       7.127   5.595  19.338  0.00  0.00    +0.000 NA
ATOM     24  N   UNL     1       6.137   4.688  19.624  0.00  0.00    +0.000 NA
ATOM     25  C   UNL     1       5.220   4.730  18.678  0.00  0.00    +0.000 A 
BRANCH  25  26
ATOM     26  C   UNL     1       4.005   3.901  18.666  0.00  0.00    +0.000 A 
ATOM     27  C   UNL     1       3.811   2.767  17.863  0.00  0.00    +0.000 A 
ATOM     28  C   UNL     1       2.613   2.058  17.905  0.00  0.00    +0.000 A 
ATOM     29  C   UNL     1       1.629   2.482  18.776  0.00  0.00    +0.000 A 
ATOM     30  N   UNL     1       1.775   3.539  19.597  0.00  0.00    +0.000 NA
ATOM     31  C   UNL     1       2.955   4.211  19.531  0.00  0.00    +0.000 A 
ENDBRANCH  25  26
BRANCH  21  32
ATOM     32  C   UNL     1       4.839   6.217  16.644  0.00  0.00    +0.000 C 
BRANCH  32  34
ATOM     33  C   UNL     1       5.763   4.407  15.151  0.00  0.00    +0.000 C 
ATOM     34  C   UNL     1       5.304   5.653  15.331  0.00  0.00    +0.000 C 
ENDBRANCH  32  34
ENDBRANCH  21  32
ENDBRANCH  20  22
ENDBRANCH  19  20
ENDBRANCH   1  19
TORSDOF 8
ENDMDL
MODEL 8
REMARK VINA RESULT:      -7.3      1.241      2.137
REMARK  Name = 
REMARK  10 active torsions:
REMARK  status: ('A' for Active; 'I' for Inactive)
REMARK    1  A    between atoms: C_2  and  C_3
REMARK    2  A    between atoms: C_3  and  N_4
REMARK    3  A    between atoms: C_5  and  S_6
REMARK    4  A    between atoms: S_6  and  C_7
REMARK    5  A    between atoms: C_7  and  C_8
REMARK    6  A    between atoms: N_10  and  C_11
REMARK    7  A    between atoms: C_12  and  C_13
REMARK    8  A    between atoms: N_14  and  C_15
REMARK    9  A    between atoms: N_16  and  C_17
REMARK   10  A    between atoms: C_27  and  C_28
REMARK                            x       y       z     vdW  Elec       q    Type
REMARK                         _______ _______ _______ _____ _____    ______ ____
ROOT
ATOM      1  C   UNL     1       1.613   5.233  20.799  0.00  0.00    +0.000 C 
ATOM      2  O   UNL     1       0.479   5.118  20.331  0.00  0.00    +0.000 OA
ATOM      3  N   UNL     1       2.373   6.369  20.672  0.00  0.00    +0.000 N 
ATOM      4  H   UNL     1       3.380   6.234  20.667  0.00  0.00    +0.000 HD
ENDROOT
BRANCH   3   5
ATOM      5  C   UNL     1       1.950   7.571  20.185  0.00  0.00    +0.000 A 
ATOM      6  C   UNL     1       2.026   8.167  18.983  0.00  0.00    +0.000 A 
ATOM      7  C   UNL     1       2.549   7.601  17.703  0.00  0.00    +0.000 C 
ATOM      8  N   UNL     1       1.407   9.412  19.016  0.00  0.00    +0.000 N 
ATOM      9  C   UNL     1       1.209  10.372  17.951  0.00  0.00    +0.000 C 
ATOM     10  N   UNL     1       0.733   9.554  20.254  0.00  0.00    +0.000 N 
ATOM     11  C   UNL     1       1.206   8.522  21.073  0.00  0.00    +0.000 A 
ATOM     12  O   UNL     1       1.090   8.353  22.279  0.00  0.00    +0.000 OA
BRANCH  10  13
ATOM     13  C   UNL     1       0.510  10.855  20.740  0.00  0.00    +0.000 A 
ATOM     14  C   UNL     1       1.425  11.893  20.541  0.00  0.00    +0.000 A 
ATOM     15  C   UNL     1       1.098  13.185  20.958  0.00  0.00    +0.000 A 
ATOM     16  C   UNL     1      -0.126  13.435  21.583  0.00  0.00    +0.000 A 
ATOM     17  C   UNL     1      -1.026  12.394  21.801  0.00  0.00    +0.000 A 
ATOM     18  C   UNL     1      -0.710  11.106  21.376  0.00  0.00    +0.000 A 
ENDBRANCH  10  13
ENDBRANCH   3   5
BRANCH   1  19
ATOM     19  C   UNL     1       2.298   4.030  21.434  0.00  0.00    +0.000 C 
BRANCH  19  20
ATOM     20  S   UNL     1       2.290   2.498  20.458  0.00  0.00    +0.000 S 
BRANCH  20  22
ATOM     21  N   UNL     1       3.877   3.491  18.454  0.00  0.00    +0.000 N 
ATOM     22  C   UNL     1       2.641   3.056  18.859  0.00  0.00    +0.000 A 
ATOM     23  N   UNL     1       1.808   3.094  17.850  0.00  0.00    +0.000 NA
ATOM     24  N   UNL     1       2.503   3.546  16.756  0.00  0.00    +0.000 NA
ATOM     25  C   UNL     1       3.757   3.771  17.098  0.00  0.00    +0.000 A 
BRANCH  25  26
ATOM     26  C   UNL     1       4.787   4.276  16.177  0.00  0.00    +0.000 A 
ATOM     27  C   UNL     1       5.058   5.631  15.938  0.00  0.00    +0.000 A 
ATOM     28  C   UNL     1       6.039   6.014  15.027  0.00  0.00    +0.000 A 
ATOM     29  C   UNL     1       6.759   5.027  14.383  0.00  0.00    +0.000 A 
ATOM     30  N   UNL     1       6.568   3.712  14.602  0.00  0.00    +0.000 NA
ATOM     31  C   UNL     1       5.601   3.371  15.496  0.00  0.00    +0.000 A 
ENDBRANCH  25  26
BRANCH  21  32
ATOM     32  C   UNL     1       5.027   3.728  19.306  0.00  0.00    +0.000 C 
BRANCH  32  34
ATOM     33  C   UNL     1       6.728   5.589  19.288  0.00  0.00    +0.000 C 
ATOM     34  C   UNL     1       5.456   5.168  19.307  0.00  0.00    +0.000 C 
ENDBRANCH  32  34
ENDBRANCH  21  32
ENDBRANCH  20  22
ENDBRANCH  19  20
ENDBRANCH   1  19
TORSDOF 8
ENDMDL
MODEL 9
REMARK VINA RESULT:      -7.3      6.712      7.996
REMARK  Name = 
REMARK  10 active torsions:
REMARK  status: ('A' for Active; 'I' for Inactive)
REMARK    1  A    between atoms: C_2  and  C_3
REMARK    2  A    between atoms: C_3  and  N_4
REMARK    3  A    between atoms: C_5  and  S_6
REMARK    4  A    between atoms: S_6  and  C_7
REMARK    5  A    between atoms: C_7  and  C_8
REMARK    6  A    between atoms: N_10  and  C_11
REMARK    7  A    between atoms: C_12  and  C_13
REMARK    8  A    between atoms: N_14  and  C_15
REMARK    9  A    between atoms: N_16  and  C_17
REMARK   10  A    between atoms: C_27  and  C_28
REMARK                            x       y       z     vdW  Elec       q    Type
REMARK                         _______ _______ _______ _____ _____    ______ ____
ROOT
ATOM      1  C   UNL     1       8.611   9.847  18.453  0.00  0.00    +0.000 C 
ATOM      2  O   UNL     1       7.977  10.395  17.549  0.00  0.00    +0.000 OA
ATOM      3  N   UNL     1       9.505  10.506  19.259  0.00  0.00    +0.000 N 
ATOM      4  H   UNL     1      10.269   9.947  19.629  0.00  0.00    +0.000 HD
ENDROOT
BRANCH   3   5
ATOM      5  C   UNL     1       9.700  11.855  19.311  0.00  0.00    +0.000 A 
ATOM      6  C   UNL     1      10.404  12.723  18.566  0.00  0.00    +0.000 A 
ATOM      7  C   UNL     1      11.159  12.457  17.304  0.00  0.00    +0.000 C 
ATOM      8  N   UNL     1      10.249  14.019  19.047  0.00  0.00    +0.000 N 
ATOM      9  C   UNL     1      10.778  15.264  18.533  0.00  0.00    +0.000 C 
ATOM     10  N   UNL     1       9.244  14.016  20.046  0.00  0.00    +0.000 N 
ATOM     11  C   UNL     1       9.022  12.673  20.368  0.00  0.00    +0.000 A 
ATOM     12  O   UNL     1       8.417  12.174  21.308  0.00  0.00    +0.000 OA
BRANCH  10  13
ATOM     13  C   UNL     1       9.281  15.027  21.023  0.00  0.00    +0.000 A 
ATOM     14  C   UNL     1       8.284  16.001  21.129  0.00  0.00    +0.000 A 
ATOM     15  C   UNL     1       8.325  16.914  22.185  0.00  0.00    +0.000 A 
ATOM     16  C   UNL     1       9.364  16.864  23.117  0.00  0.00    +0.000 A 
ATOM     17  C   UNL     1      10.369  15.907  22.997  0.00  0.00    +0.000 A 
ATOM     18  C   UNL     1      10.325  14.987  21.953  0.00  0.00    +0.000 A 
ENDBRANCH  10  13
ENDBRANCH   3   5
BRANCH   1  19
ATOM     19  C   UNL     1       8.533   8.336  18.626  0.00  0.00    +0.000 C 
BRANCH  19  20
ATOM     20  S   UNL     1       7.538   7.441  17.397  0.00  0.00    +0.000 S 
BRANCH  20  22
ATOM     21  N   UNL     1       5.410   5.890  18.162  0.00  0.00    +0.000 N 
ATOM     22  C   UNL     1       6.719   6.255  18.352  0.00  0.00    +0.000 A 
ATOM     23  N   UNL     1       7.239   5.544  19.320  0.00  0.00    +0.000 NA
ATOM     24  N   UNL     1       6.268   4.685  19.770  0.00  0.00    +0.000 NA
ATOM     25  C   UNL     1       5.165   4.866  19.070  0.00  0.00    +0.000 A 
BRANCH  25  26
ATOM     26  C   UNL     1       3.915   4.124  19.290  0.00  0.00    +0.000 A 
ATOM     27  C   UNL     1       2.846   4.563  20.085  0.00  0.00    +0.000 A 
ATOM     28  C   UNL     1       1.709   3.777  20.254  0.00  0.00    +0.000 A 
ATOM     29  C   UNL     1       1.646   2.564  19.596  0.00  0.00    +0.000 A 
ATOM     30  N   UNL     1       2.625   2.110  18.790  0.00  0.00    +0.000 NA
ATOM     31  C   UNL     1       3.723   2.900  18.648  0.00  0.00    +0.000 A 
ENDBRANCH  25  26
BRANCH  21  32
ATOM     32  C   UNL     1       4.456   6.539  17.284  0.00  0.00    +0.000 C 
BRANCH  32  34
ATOM     33  C   UNL     1       2.332   7.774  17.847  0.00  0.00    +0.000 C 
ATOM     34  C   UNL     1       3.652   7.596  17.986  0.00  0.00    +0.000 C 
ENDBRANCH  32  34
ENDBRANCH  21  32
ENDBRANCH  20  22
ENDBRANCH  19  20
ENDBRANCH   1  19
TORSDOF 8
ENDMDL
