MODEL 1
REMARK VINA RESULT:      -8.7      0.000      0.000
REMARK  Name = 
REMARK  8 active torsions:
REMARK  status: ('A' for Active; 'I' for Inactive)
REMARK    1  A    between atoms: C_1  and  O_2
REMARK    2  A    between atoms: O_2  and  C_3
REMARK    3  A    between atoms: C_8  and  C_9
REMARK    4  A    between atoms: C_9  and  O_10
REMARK    5  A    between atoms: O_10  and  C_11
REMARK    6  A    between atoms: C_14  and  N_15
REMARK    7  A    between atoms: C_16  and  C_18
REMARK    8  A    between atoms: C_25  and  N_26
REMARK                            x       y       z     vdW  Elec       q    Type
REMARK                         _______ _______ _______ _____ _____    ______ ____
ROOT
ATOM      1  C   UNL     1       2.583   5.862  18.654  0.00  0.00    +0.000 A 
ATOM      2  C   UNL     1       2.792   7.129  18.105  0.00  0.00    +0.000 A 
ATOM      3  C   UNL     1       2.272   8.276  18.706  0.00  0.00    +0.000 A 
ATOM      4  C   UNL     1       1.533   8.202  19.883  0.00  0.00    +0.000 A 
ATOM      5  C   UNL     1       1.425   6.959  20.513  0.00  0.00    +0.000 A 
ATOM      6  C   UNL     1       1.948   5.780  19.909  0.00  0.00    +0.000 A 
ENDROOT
BRANCH   6   7
ATOM      7  N   UNL     1       1.792   4.562  20.626  0.00  0.00    +0.000 N 
ATOM      8  C   UNL     1       0.939   3.498  20.448  0.00  0.00    +0.000 A 
ATOM      9  N   UNL     1       1.179   2.580  21.357  0.00  0.00    +0.000 NA
ATOM     10  N   UNL     1       2.205   3.066  22.117  0.00  0.00    +0.000 NA
ATOM     11  N   UNL     1       2.589   4.257  21.687  0.00  0.00    +0.000 NA
ENDBRANCH   6   7
BRANCH   4  12
ATOM     12  N   UNL     1       0.892   9.330  20.450  0.00  0.00    +0.000 N 
ATOM     13  C   UNL     1      -0.082  10.077  19.795  0.00  0.00    +0.000 C 
ATOM     14  O   UNL     1      -0.543   9.825  18.685  0.00  0.00    +0.000 OA
ATOM     15  H   UNL     1       1.010   9.470  21.445  0.00  0.00    +0.000 HD
BRANCH  13  16
ATOM     16  C   UNL     1      -0.658  11.240  20.509  0.00  0.00    +0.000 A 
ATOM     17  C   UNL     1      -1.642  12.058  19.963  0.00  0.00    +0.000 A 
ATOM     18  C   UNL     1      -2.157  13.063  20.766  0.00  0.00    +0.000 A 
ATOM     19  N   UNL     1      -1.761  13.294  22.037  0.00  0.00    +0.000 NA
ATOM     20  C   UNL     1      -0.813  12.481  22.544  0.00  0.00    +0.000 A 
ATOM     21  C   UNL     1      -0.237  11.452  21.828  0.00  0.00    +0.000 A 
ENDBRANCH  13  16
ENDBRANCH   4  12
BRANCH   1  22
ATOM     22  O   UNL     1       2.968   4.725  17.988  0.00  0.00    +0.000 OA
BRANCH  22  23
ATOM     23  C   UNL     1       4.236   4.142  18.375  0.00  0.00    +0.000 C 
BRANCH  23  29
ATOM     24  C   UNL     1       6.618   4.570  17.505  0.00  0.00    +0.000 A 
ATOM     25  C   UNL     1       7.488   4.730  16.417  0.00  0.00    +0.000 A 
ATOM     26  C   UNL     1       7.009   4.698  15.107  0.00  0.00    +0.000 A 
ATOM     27  C   UNL     1       5.657   4.491  14.869  0.00  0.00    +0.000 A 
ATOM     28  C   UNL     1       4.790   4.285  15.938  0.00  0.00    +0.000 A 
ATOM     29  C   UNL     1       5.256   4.298  17.267  0.00  0.00    +0.000 A 
BRANCH  24  31
ATOM     30  C   UNL     1       7.810   5.805  19.141  0.00  0.00    +0.000 C 
ATOM     31  O   UNL     1       7.039   4.648  18.810  0.00  0.00    +0.000 OA
ENDBRANCH  24  31
ENDBRANCH  23  29
ENDBRANCH  22  23
ENDBRANCH   1  22
TORSDOF 7
ENDMDL
MODEL 2
REMARK VINA RESULT:      -8.7      1.007      1.163
REMARK  Name = 
REMARK  8 active torsions:
REMARK  status: ('A' for Active; 'I' for Inactive)
REMARK    1  A    between atoms: C_1  and  O_2
REMARK    2  A    between atoms: O_2  and  C_3
REMARK    3  A    between atoms: C_8  and  C_9
REMARK    4  A    between atoms: C_9  and  O_10
REMARK    5  A    between atoms: O_10  and  C_11
REMARK    6  A    between atoms: C_14  and  N_15
REMARK    7  A    between atoms: C_16  and  C_18
REMARK    8  A    between atoms: C_25  and  N_26
REMARK                            x       y       z     vdW  Elec       q    Type
REMARK                         _______ _______ _______ _____ _____    ______ ____
ROOT
ATOM      1  C   UNL     1       2.625   5.701  18.555  0.00  0.00    +0.000 A 
ATOM      2  C   UNL     1       2.867   6.938  17.955  0.00  0.00    +0.000 A 
ATOM      3  C   UNL     1       2.459   8.130  18.556  0.00  0.00    +0.000 A 
ATOM      4  C   UNL     1       1.804   8.131  19.783  0.00  0.00    +0.000 A 
ATOM      5  C   UNL     1       1.669   6.913  20.457  0.00  0.00    +0.000 A 
ATOM      6  C   UNL     1       2.079   5.689  19.854  0.00  0.00    +0.000 A 
ENDROOT
BRANCH   6   7
ATOM      7  N   UNL     1       1.905   4.502  20.616  0.00  0.00    +0.000 N 
ATOM      8  C   UNL     1       2.615   3.981  21.673  0.00  0.00    +0.000 A 
ATOM      9  N   UNL     1       2.061   2.856  22.068  0.00  0.00    +0.000 NA
ATOM     10  N   UNL     1       0.979   2.667  21.256  0.00  0.00    +0.000 NA
ATOM     11  N   UNL     1       0.868   3.652  20.379  0.00  0.00    +0.000 NA
ENDBRANCH   6   7
BRANCH   4  12
ATOM     12  N   UNL     1       1.272   9.309  20.359  0.00  0.00    +0.000 N 
ATOM     13  C   UNL     1       0.144   9.331  21.174  0.00  0.00    +0.000 C 
ATOM     14  O   UNL     1      -0.489   8.343  21.537  0.00  0.00    +0.000 OA
ATOM     15  H   UNL     1       1.857  10.134  20.335  0.00  0.00    +0.000 HD
BRANCH  13  16
ATOM     16  C   UNL     1      -0.306  10.642  21.698  0.00  0.00    +0.000 A 
ATOM     17  C   UNL     1      -0.064  11.847  21.047  0.00  0.00    +0.000 A 
ATOM     18  C   UNL     1      -0.610  12.995  21.598  0.00  0.00    +0.000 A 
ATOM     19  N   UNL     1      -1.356  13.011  22.725  0.00  0.00    +0.000 NA
ATOM     20  C   UNL     1      -1.582  11.829  23.331  0.00  0.00    +0.000 A 
ATOM     21  C   UNL     1      -1.084  10.631  22.863  0.00  0.00    +0.000 A 
ENDBRANCH  13  16
ENDBRANCH   4  12
BRANCH   1  22
ATOM     22  O   UNL     1       2.896   4.525  17.899  0.00  0.00    +0.000 OA
BRANCH  22  23
ATOM     23  C   UNL     1       4.145   3.870  18.226  0.00  0.00    +0.000 C 
BRANCH  23  29
ATOM     24  C   UNL     1       6.510   4.568  17.496  0.00  0.00    +0.000 A 
ATOM     25  C   UNL     1       7.411   4.857  16.462  0.00  0.00    +0.000 A 
ATOM     26  C   UNL     1       7.002   4.830  15.128  0.00  0.00    +0.000 A 
ATOM     27  C   UNL     1       5.691   4.498  14.813  0.00  0.00    +0.000 A 
ATOM     28  C   UNL     1       4.798   4.164  15.828  0.00  0.00    +0.000 A 
ATOM     29  C   UNL     1       5.196   4.171  17.179  0.00  0.00    +0.000 A 
BRANCH  24  31
ATOM     30  C   UNL     1       7.688   5.739  19.188  0.00  0.00    +0.000 C 
ATOM     31  O   UNL     1       6.857   4.635  18.824  0.00  0.00    +0.000 OA
ENDBRANCH  24  31
ENDBRANCH  23  29
ENDBRANCH  22  23
ENDBRANCH   1  22
TORSDOF 7
ENDMDL
MODEL 3
REMARK VINA RESULT:      -8.6      1.055      1.247
REMARK  Name = 
REMARK  8 active torsions:
REMARK  status: ('A' for Active; 'I' for Inactive)
REMARK    1  A    between atoms: C_1  and  O_2
REMARK    2  A    between atoms: O_2  and  C_3
REMARK    3  A    between atoms: C_8  and  C_9
REMARK    4  A    between atoms: C_9  and  O_10
REMARK    5  A    between atoms: O_10  and  C_11
REMARK    6  A    between atoms: C_14  and  N_15
REMARK    7  A    between atoms: C_16  and  C_18
REMARK    8  A    between atoms: C_25  and  N_26
REMARK                            x       y       z     vdW  Elec       q    Type
REMARK                         _______ _______ _______ _____ _____    ______ ____
ROOT
ATOM      1  C   UNL     1       2.767   5.678  18.707  0.00  0.00    +0.000 A 
ATOM      2  C   UNL     1       3.007   6.911  18.096  0.00  0.00    +0.000 A 
ATOM      3  C   UNL     1       2.435   8.087  18.585  0.00  0.00    +0.000 A 
ATOM      4  C   UNL     1       1.610   8.077  19.705  0.00  0.00    +0.000 A 
ATOM      5  C   UNL     1       1.464   6.874  20.402  0.00  0.00    +0.000 A 
ATOM      6  C   UNL     1       2.041   5.666  19.914  0.00  0.00    +0.000 A 
ENDROOT
BRANCH   6   7
ATOM      7  N   UNL     1       1.841   4.493  20.691  0.00  0.00    +0.000 N 
ATOM      8  C   UNL     1       0.959   3.446  20.558  0.00  0.00    +0.000 A 
ATOM      9  N   UNL     1       1.161   2.571  21.518  0.00  0.00    +0.000 NA
ATOM     10  N   UNL     1       2.191   3.067  22.266  0.00  0.00    +0.000 NA
ATOM     11  N   UNL     1       2.615   4.222  21.779  0.00  0.00    +0.000 NA
ENDBRANCH   6   7
BRANCH   4  12
ATOM     12  N   UNL     1       0.921   9.229  20.151  0.00  0.00    +0.000 N 
ATOM     13  C   UNL     1       0.702   9.531  21.492  0.00  0.00    +0.000 C 
ATOM     14  O   UNL     1       1.121   8.877  22.443  0.00  0.00    +0.000 OA
ATOM     15  H   UNL     1       0.758   9.958  19.468  0.00  0.00    +0.000 HD
BRANCH  13  16
ATOM     16  C   UNL     1      -0.047  10.768  21.810  0.00  0.00    +0.000 A 
ATOM     17  C   UNL     1      -0.861  10.899  22.930  0.00  0.00    +0.000 A 
ATOM     18  C   UNL     1      -1.441  12.136  23.160  0.00  0.00    +0.000 A 
ATOM     19  N   UNL     1      -1.265  13.214  22.364  0.00  0.00    +0.000 NA
ATOM     20  C   UNL     1      -0.465  13.061  21.290  0.00  0.00    +0.000 A 
ATOM     21  C   UNL     1       0.159  11.872  20.974  0.00  0.00    +0.000 A 
ENDBRANCH  13  16
ENDBRANCH   4  12
BRANCH   1  22
ATOM     22  O   UNL     1       3.210   4.506  18.144  0.00  0.00    +0.000 OA
BRANCH  22  23
ATOM     23  C   UNL     1       4.573   4.117  18.440  0.00  0.00    +0.000 C 
BRANCH  23  29
ATOM     24  C   UNL     1       6.822   4.580  17.280  0.00  0.00    +0.000 A 
ATOM     25  C   UNL     1       7.551   4.731  16.093  0.00  0.00    +0.000 A 
ATOM     26  C   UNL     1       6.921   4.650  14.850  0.00  0.00    +0.000 A 
ATOM     27  C   UNL     1       5.557   4.403  14.781  0.00  0.00    +0.000 A 
ATOM     28  C   UNL     1       4.829   4.206  15.951  0.00  0.00    +0.000 A 
ATOM     29  C   UNL     1       5.450   4.268  17.214  0.00  0.00    +0.000 A 
BRANCH  24  31
ATOM     30  C   UNL     1       7.838   6.018  18.868  0.00  0.00    +0.000 C 
ATOM     31  O   UNL     1       7.393   4.704  18.524  0.00  0.00    +0.000 OA
ENDBRANCH  24  31
ENDBRANCH  23  29
ENDBRANCH  22  23
ENDBRANCH   1  22
TORSDOF 7
ENDMDL
MODEL 4
REMARK VINA RESULT:      -8.6      0.510      1.092
REMARK  Name = 
REMARK  8 active torsions:
REMARK  status: ('A' for Active; 'I' for Inactive)
REMARK    1  A    between atoms: C_1  and  O_2
REMARK    2  A    between atoms: O_2  and  C_3
REMARK    3  A    between atoms: C_8  and  C_9
REMARK    4  A    between atoms: C_9  and  O_10
REMARK    5  A    between atoms: O_10  and  C_11
REMARK    6  A    between atoms: C_14  and  N_15
REMARK    7  A    between atoms: C_16  and  C_18
REMARK    8  A    between atoms: C_25  and  N_26
REMARK                            x       y       z     vdW  Elec       q    Type
REMARK                         _______ _______ _______ _____ _____    ______ ____
ROOT
ATOM      1  C   UNL     1       2.581   5.948  18.652  0.00  0.00    +0.000 A 
ATOM      2  C   UNL     1       2.772   7.219  18.106  0.00  0.00    +0.000 A 
ATOM      3  C   UNL     1       2.275   8.362  18.734  0.00  0.00    +0.000 A 
ATOM      4  C   UNL     1       1.577   8.280  19.935  0.00  0.00    +0.000 A 
ATOM      5  C   UNL     1       1.489   7.032  20.558  0.00  0.00    +0.000 A 
ATOM      6  C   UNL     1       1.990   5.857  19.928  0.00  0.00    +0.000 A 
ENDROOT
BRANCH   6   7
ATOM      7  N   UNL     1       1.858   4.634  20.640  0.00  0.00    +0.000 N 
ATOM      8  C   UNL     1       2.586   4.093  21.674  0.00  0.00    +0.000 A 
ATOM      9  N   UNL     1       2.071   2.935  22.022  0.00  0.00    +0.000 NA
ATOM     10  N   UNL     1       0.995   2.743  21.202  0.00  0.00    +0.000 NA
ATOM     11  N   UNL     1       0.850   3.760  20.367  0.00  0.00    +0.000 NA
ENDBRANCH   6   7
BRANCH   4  12
ATOM     12  N   UNL     1       0.958   9.403  20.532  0.00  0.00    +0.000 N 
ATOM     13  C   UNL     1      -0.080  10.119  19.944  0.00  0.00    +0.000 C 
ATOM     14  O   UNL     1      -0.619   9.840  18.876  0.00  0.00    +0.000 OA
ATOM     15  H   UNL     1       1.149   9.563  21.513  0.00  0.00    +0.000 HD
BRANCH  13  16
ATOM     16  C   UNL     1      -0.624  11.283  20.682  0.00  0.00    +0.000 A 
ATOM     17  C   UNL     1      -0.491  11.442  22.057  0.00  0.00    +0.000 A 
ATOM     18  C   UNL     1      -0.971  12.616  22.615  0.00  0.00    +0.000 A 
ATOM     19  N   UNL     1      -1.559  13.606  21.907  0.00  0.00    +0.000 NA
ATOM     20  C   UNL     1      -1.667  13.429  20.575  0.00  0.00    +0.000 A 
ATOM     21  C   UNL     1      -1.221  12.298  19.923  0.00  0.00    +0.000 A 
ENDBRANCH  13  16
ENDBRANCH   4  12
BRANCH   1  22
ATOM     22  O   UNL     1       2.942   4.815  17.965  0.00  0.00    +0.000 OA
BRANCH  22  23
ATOM     23  C   UNL     1       4.207   4.211  18.325  0.00  0.00    +0.000 C 
BRANCH  23  29
ATOM     24  C   UNL     1       6.588   4.562  17.419  0.00  0.00    +0.000 A 
ATOM     25  C   UNL     1       7.442   4.724  16.319  0.00  0.00    +0.000 A 
ATOM     26  C   UNL     1       6.936   4.763  15.019  0.00  0.00    +0.000 A 
ATOM     27  C   UNL     1       5.571   4.627  14.804  0.00  0.00    +0.000 A 
ATOM     28  C   UNL     1       4.717   4.421  15.884  0.00  0.00    +0.000 A 
ATOM     29  C   UNL     1       5.211   4.362  17.201  0.00  0.00    +0.000 A 
BRANCH  24  31
ATOM     30  C   UNL     1       7.632   5.795  19.154  0.00  0.00    +0.000 C 
ATOM     31  O   UNL     1       7.039   4.571  18.716  0.00  0.00    +0.000 OA
ENDBRANCH  24  31
ENDBRANCH  23  29
ENDBRANCH  22  23
ENDBRANCH   1  22
TORSDOF 7
ENDMDL
MODEL 5
REMARK VINA RESULT:      -8.4      1.277      1.978
REMARK  Name = 
REMARK  8 active torsions:
REMARK  status: ('A' for Active; 'I' for Inactive)
REMARK    1  A    between atoms: C_1  and  O_2
REMARK    2  A    between atoms: O_2  and  C_3
REMARK    3  A    between atoms: C_8  and  C_9
REMARK    4  A    between atoms: C_9  and  O_10
REMARK    5  A    between atoms: O_10  and  C_11
REMARK    6  A    between atoms: C_14  and  N_15
REMARK    7  A    between atoms: C_16  and  C_18
REMARK    8  A    between atoms: C_25  and  N_26
REMARK                            x       y       z     vdW  Elec       q    Type
REMARK                         _______ _______ _______ _____ _____    ______ ____
ROOT
ATOM      1  C   UNL     1       2.491   5.674  18.476  0.00  0.00    +0.000 A 
ATOM      2  C   UNL     1       2.745   6.906  17.868  0.00  0.00    +0.000 A 
ATOM      3  C   UNL     1       2.403   8.107  18.491  0.00  0.00    +0.000 A 
ATOM      4  C   UNL     1       1.805   8.124  19.746  0.00  0.00    +0.000 A 
ATOM      5  C   UNL     1       1.662   6.909  20.422  0.00  0.00    +0.000 A 
ATOM      6  C   UNL     1       2.004   5.675  19.797  0.00  0.00    +0.000 A 
ENDROOT
BRANCH   6   7
ATOM      7  N   UNL     1       1.826   4.491  20.564  0.00  0.00    +0.000 N 
ATOM      8  C   UNL     1       0.931   3.453  20.450  0.00  0.00    +0.000 A 
ATOM      9  N   UNL     1       1.165   2.560  21.386  0.00  0.00    +0.000 NA
ATOM     10  N   UNL     1       2.229   3.036  22.099  0.00  0.00    +0.000 NA
ATOM     11  N   UNL     1       2.643   4.196  21.613  0.00  0.00    +0.000 NA
ENDBRANCH   6   7
BRANCH   4  12
ATOM     12  N   UNL     1       1.338   9.316  20.349  0.00  0.00    +0.000 N 
ATOM     13  C   UNL     1       0.225   9.378  21.183  0.00  0.00    +0.000 C 
ATOM     14  O   UNL     1      -0.448   8.416  21.540  0.00  0.00    +0.000 OA
ATOM     15  H   UNL     1       1.961  10.114  20.328  0.00  0.00    +0.000 HD
BRANCH  13  16
ATOM     16  C   UNL     1      -0.154  10.700  21.734  0.00  0.00    +0.000 A 
ATOM     17  C   UNL     1       0.307  11.904  21.212  0.00  0.00    +0.000 A 
ATOM     18  C   UNL     1      -0.189  13.074  21.766  0.00  0.00    +0.000 A 
ATOM     19  N   UNL     1      -1.085  13.112  22.777  0.00  0.00    +0.000 NA
ATOM     20  C   UNL     1      -1.520  11.930  23.259  0.00  0.00    +0.000 A 
ATOM     21  C   UNL     1      -1.089  10.712  22.776  0.00  0.00    +0.000 A 
ENDBRANCH  13  16
ENDBRANCH   4  12
BRANCH   1  22
ATOM     22  O   UNL     1       2.693   4.494  17.804  0.00  0.00    +0.000 OA
BRANCH  22  23
ATOM     23  C   UNL     1       3.798   3.671  18.251  0.00  0.00    +0.000 C 
BRANCH  23  29
ATOM     24  C   UNL     1       5.831   4.469  16.893  0.00  0.00    +0.000 A 
ATOM     25  C   UNL     1       7.055   5.152  16.853  0.00  0.00    +0.000 A 
ATOM     26  C   UNL     1       7.600   5.713  18.008  0.00  0.00    +0.000 A 
ATOM     27  C   UNL     1       6.922   5.607  19.215  0.00  0.00    +0.000 A 
ATOM     28  C   UNL     1       5.684   4.970  19.261  0.00  0.00    +0.000 A 
ATOM     29  C   UNL     1       5.110   4.413  18.102  0.00  0.00    +0.000 A 
BRANCH  24  31
ATOM     30  C   UNL     1       5.747   4.340  14.527  0.00  0.00    +0.000 C 
ATOM     31  O   UNL     1       5.285   3.858  15.791  0.00  0.00    +0.000 OA
ENDBRANCH  24  31
ENDBRANCH  23  29
ENDBRANCH  22  23
ENDBRANCH   1  22
TORSDOF 7
ENDMDL
MODEL 6
REMARK VINA RESULT:      -8.4      2.821      9.131
REMARK  Name = 
REMARK  8 active torsions:
REMARK  status: ('A' for Active; 'I' for Inactive)
REMARK    1  A    between atoms: C_1  and  O_2
REMARK    2  A    between atoms: O_2  and  C_3
REMARK    3  A    between atoms: C_8  and  C_9
REMARK    4  A    between atoms: C_9  and  O_10
REMARK    5  A    between atoms: O_10  and  C_11
REMARK    6  A    between atoms: C_14  and  N_15
REMARK    7  A    between atoms: C_16  and  C_18
REMARK    8  A    between atoms: C_25  and  N_26
REMARK                            x       y       z     vdW  Elec       q    Type
REMARK                         _______ _______ _______ _____ _____    ______ ____
ROOT
ATOM      1  C   UNL     1       0.183  10.003  19.211  0.00  0.00    +0.000 A 
ATOM      2  C   UNL     1       0.467   9.753  17.866  0.00  0.00    +0.000 A 
ATOM      3  C   UNL     1       1.505   8.900  17.490  0.00  0.00    +0.000 A 
ATOM      4  C   UNL     1       2.292   8.257  18.441  0.00  0.00    +0.000 A 
ATOM      5  C   UNL     1       1.939   8.396  19.786  0.00  0.00    +0.000 A 
ATOM      6  C   UNL     1       0.883   9.265  20.185  0.00  0.00    +0.000 A 
ENDROOT
BRANCH   6   7
ATOM      7  N   UNL     1       0.596   9.338  21.575  0.00  0.00    +0.000 N 
ATOM      8  C   UNL     1      -0.574   9.168  22.278  0.00  0.00    +0.000 A 
ATOM      9  N   UNL     1      -0.345   9.317  23.564  0.00  0.00    +0.000 NA
ATOM     10  N   UNL     1       0.992   9.577  23.678  0.00  0.00    +0.000 NA
ATOM     11  N   UNL     1       1.574   9.589  22.489  0.00  0.00    +0.000 NA
ENDBRANCH   6   7
BRANCH   4  12
ATOM     12  N   UNL     1       3.425   7.484  18.093  0.00  0.00    +0.000 N 
ATOM     13  C   UNL     1       3.391   6.107  17.896  0.00  0.00    +0.000 C 
ATOM     14  O   UNL     1       2.383   5.407  17.944  0.00  0.00    +0.000 OA
ATOM     15  H   UNL     1       4.245   7.989  17.781  0.00  0.00    +0.000 HD
BRANCH  13  16
ATOM     16  C   UNL     1       4.660   5.426  17.546  0.00  0.00    +0.000 A 
ATOM     17  C   UNL     1       4.865   4.772  16.336  0.00  0.00    +0.000 A 
ATOM     18  C   UNL     1       6.125   4.248  16.096  0.00  0.00    +0.000 A 
ATOM     19  N   UNL     1       7.157   4.333  16.964  0.00  0.00    +0.000 NA
ATOM     20  C   UNL     1       6.933   4.979  18.126  0.00  0.00    +0.000 A 
ATOM     21  C   UNL     1       5.716   5.536  18.459  0.00  0.00    +0.000 A 
ENDBRANCH  13  16
ENDBRANCH   4  12
BRANCH   1  22
ATOM     22  O   UNL     1      -0.740  10.951  19.580  0.00  0.00    +0.000 OA
BRANCH  22  23
ATOM     23  C   UNL     1      -1.199  11.851  18.542  0.00  0.00    +0.000 C 
BRANCH  23  29
ATOM     24  C   UNL     1      -3.242  11.230  17.110  0.00  0.00    +0.000 A 
ATOM     25  C   UNL     1      -4.636  11.145  16.980  0.00  0.00    +0.000 A 
ATOM     26  C   UNL     1      -5.479  11.584  18.002  0.00  0.00    +0.000 A 
ATOM     27  C   UNL     1      -4.937  12.099  19.172  0.00  0.00    +0.000 A 
ATOM     28  C   UNL     1      -3.555  12.147  19.333  0.00  0.00    +0.000 A 
ATOM     29  C   UNL     1      -2.688  11.694  18.319  0.00  0.00    +0.000 A 
BRANCH  24  31
ATOM     30  C   UNL     1      -2.993  10.354  14.921  0.00  0.00    +0.000 C 
ATOM     31  O   UNL     1      -2.379  10.859  16.108  0.00  0.00    +0.000 OA
ENDBRANCH  24  31
ENDBRANCH  23  29
ENDBRANCH  22  23
ENDBRANCH   1  22
TORSDOF 7
ENDMDL
MODEL 7
REMARK VINA RESULT:      -8.3      0.958      1.776
REMARK  Name = 
REMARK  8 active torsions:
REMARK  status: ('A' for Active; 'I' for Inactive)
REMARK    1  A    between atoms: C_1  and  O_2
REMARK    2  A    between atoms: O_2  and  C_3
REMARK    3  A    between atoms: C_8  and  C_9
REMARK    4  A    between atoms: C_9  and  O_10
REMARK    5  A    between atoms: O_10  and  C_11
REMARK    6  A    between atoms: C_14  and  N_15
REMARK    7  A    between atoms: C_16  and  C_18
REMARK    8  A    between atoms: C_25  and  N_26
REMARK                            x       y       z     vdW  Elec       q    Type
REMARK                         _______ _______ _______ _____ _____    ______ ____
ROOT
ATOM      1  C   UNL     1       2.658   5.578  18.467  0.00  0.00    +0.000 A 
ATOM      2  C   UNL     1       2.911   6.793  17.828  0.00  0.00    +0.000 A 
ATOM      3  C   UNL     1       2.486   8.005  18.376  0.00  0.00    +0.000 A 
ATOM      4  C   UNL     1       1.802   8.048  19.586  0.00  0.00    +0.000 A 
ATOM      5  C   UNL     1       1.654   6.855  20.300  0.00  0.00    +0.000 A 
ATOM      6  C   UNL     1       2.081   5.612  19.752  0.00  0.00    +0.000 A 
ENDROOT
BRANCH   6   7
ATOM      7  N   UNL     1       1.892   4.453  20.552  0.00  0.00    +0.000 N 
ATOM      8  C   UNL     1       1.027   3.390  20.434  0.00  0.00    +0.000 A 
ATOM      9  N   UNL     1       1.233   2.538  21.414  0.00  0.00    +0.000 NA
ATOM     10  N   UNL     1       2.249   3.065  22.160  0.00  0.00    +0.000 NA
ATOM     11  N   UNL     1       2.661   4.216  21.651  0.00  0.00    +0.000 NA
ENDBRANCH   6   7
BRANCH   4  12
ATOM     12  N   UNL     1       1.254   9.245  20.107  0.00  0.00    +0.000 N 
ATOM     13  C   UNL     1       0.369  10.059  19.407  0.00  0.00    +0.000 C 
ATOM     14  O   UNL     1      -0.086   9.819  18.292  0.00  0.00    +0.000 OA
ATOM     15  H   UNL     1       1.360   9.402  21.101  0.00  0.00    +0.000 HD
BRANCH  13  16
ATOM     16  C   UNL     1      -0.115  11.289  20.075  0.00  0.00    +0.000 A 
ATOM     17  C   UNL     1      -0.719  12.340  19.392  0.00  0.00    +0.000 A 
ATOM     18  C   UNL     1      -1.204  13.398  20.144  0.00  0.00    +0.000 A 
ATOM     19  N   UNL     1      -1.122  13.470  21.491  0.00  0.00    +0.000 NA
ATOM     20  C   UNL     1      -0.539  12.435  22.128  0.00  0.00    +0.000 A 
ATOM     21  C   UNL     1      -0.026  11.335  21.472  0.00  0.00    +0.000 A 
ENDBRANCH  13  16
ENDBRANCH   4  12
BRANCH   1  22
ATOM     22  O   UNL     1       2.946   4.380  17.860  0.00  0.00    +0.000 OA
BRANCH  22  23
ATOM     23  C   UNL     1       4.165   3.717  18.275  0.00  0.00    +0.000 C 
BRANCH  23  29
ATOM     24  C   UNL     1       5.905   4.920  16.813  0.00  0.00    +0.000 A 
ATOM     25  C   UNL     1       7.034   5.747  16.725  0.00  0.00    +0.000 A 
ATOM     26  C   UNL     1       7.667   6.219  17.876  0.00  0.00    +0.000 A 
ATOM     27  C   UNL     1       7.170   5.880  19.127  0.00  0.00    +0.000 A 
ATOM     28  C   UNL     1       6.023   5.097  19.228  0.00  0.00    +0.000 A 
ATOM     29  C   UNL     1       5.361   4.625  18.078  0.00  0.00    +0.000 A 
BRANCH  24  31
ATOM     30  C   UNL     1       6.155   3.942  14.667  0.00  0.00    +0.000 C 
ATOM     31  O   UNL     1       5.284   4.392  15.707  0.00  0.00    +0.000 OA
ENDBRANCH  24  31
ENDBRANCH  23  29
ENDBRANCH  22  23
ENDBRANCH   1  22
TORSDOF 7
ENDMDL
MODEL 8
REMARK VINA RESULT:      -8.3      2.894      4.613
REMARK  Name = 
REMARK  8 active torsions:
REMARK  status: ('A' for Active; 'I' for Inactive)
REMARK    1  A    between atoms: C_1  and  O_2
REMARK    2  A    between atoms: O_2  and  C_3
REMARK    3  A    between atoms: C_8  and  C_9
REMARK    4  A    between atoms: C_9  and  O_10
REMARK    5  A    between atoms: O_10  and  C_11
REMARK    6  A    between atoms: C_14  and  N_15
REMARK    7  A    between atoms: C_16  and  C_18
REMARK    8  A    between atoms: C_25  and  N_26
REMARK                            x       y       z     vdW  Elec       q    Type
REMARK                         _______ _______ _______ _____ _____    ______ ____
ROOT
ATOM      1  C   UNL     1       3.583   4.051  17.530  0.00  0.00    +0.000 A 
ATOM      2  C   UNL     1       2.232   4.398  17.456  0.00  0.00    +0.000 A 
ATOM      3  C   UNL     1       1.771   5.628  17.928  0.00  0.00    +0.000 A 
ATOM      4  C   UNL     1       2.642   6.561  18.482  0.00  0.00    +0.000 A 
ATOM      5  C   UNL     1       4.012   6.282  18.446  0.00  0.00    +0.000 A 
ATOM      6  C   UNL     1       4.496   5.030  17.969  0.00  0.00    +0.000 A 
ENDROOT
BRANCH   6   7
ATOM      7  N   UNL     1       5.904   4.839  17.968  0.00  0.00    +0.000 N 
ATOM      8  C   UNL     1       6.795   4.603  16.947  0.00  0.00    +0.000 A 
ATOM      9  N   UNL     1       8.013   4.512  17.433  0.00  0.00    +0.000 NA
ATOM     10  N   UNL     1       7.893   4.701  18.781  0.00  0.00    +0.000 NA
ATOM     11  N   UNL     1       6.630   4.904  19.119  0.00  0.00    +0.000 NA
ENDBRANCH   6   7
BRANCH   4  12
ATOM     12  N   UNL     1       2.191   7.762  19.078  0.00  0.00    +0.000 N 
ATOM     13  C   UNL     1       1.915   8.924  18.364  0.00  0.00    +0.000 C 
ATOM     14  O   UNL     1       1.973   9.037  17.142  0.00  0.00    +0.000 OA
ATOM     15  H   UNL     1       1.867   7.705  20.035  0.00  0.00    +0.000 HD
BRANCH  13  16
ATOM     16  C   UNL     1       1.459  10.112  19.123  0.00  0.00    +0.000 A 
ATOM     17  C   UNL     1       1.597  11.414  18.655  0.00  0.00    +0.000 A 
ATOM     18  C   UNL     1       1.054  12.432  19.423  0.00  0.00    +0.000 A 
ATOM     19  N   UNL     1       0.406  12.234  20.593  0.00  0.00    +0.000 NA
ATOM     20  C   UNL     1       0.281  10.961  21.019  0.00  0.00    +0.000 A 
ATOM     21  C   UNL     1       0.784   9.879  20.328  0.00  0.00    +0.000 A 
ENDBRANCH  13  16
ENDBRANCH   4  12
BRANCH   1  22
ATOM     22  O   UNL     1       4.013   2.789  17.201  0.00  0.00    +0.000 OA
BRANCH  22  23
ATOM     23  C   UNL     1       3.412   1.687  17.923  0.00  0.00    +0.000 C 
BRANCH  23  29
ATOM     24  C   UNL     1       3.525   2.391  20.394  0.00  0.00    +0.000 A 
ATOM     25  C   UNL     1       2.859   2.811  21.554  0.00  0.00    +0.000 A 
ATOM     26  C   UNL     1       1.470   2.942  21.574  0.00  0.00    +0.000 A 
ATOM     27  C   UNL     1       0.732   2.669  20.430  0.00  0.00    +0.000 A 
ATOM     28  C   UNL     1       1.384   2.295  19.258  0.00  0.00    +0.000 A 
ATOM     29  C   UNL     1       2.787   2.172  19.214  0.00  0.00    +0.000 A 
BRANCH  24  31
ATOM     30  C   UNL     1       5.377   1.099  21.116  0.00  0.00    +0.000 C 
ATOM     31  O   UNL     1       4.884   2.197  20.346  0.00  0.00    +0.000 OA
ENDBRANCH  24  31
ENDBRANCH  23  29
ENDBRANCH  22  23
ENDBRANCH   1  22
TORSDOF 7
ENDMDL
MODEL 9
REMARK VINA RESULT:      -8.3      5.075      7.889
REMARK  Name = 
REMARK  8 active torsions:
REMARK  status: ('A' for Active; 'I' for Inactive)
REMARK    1  A    between atoms: C_1  and  O_2
REMARK    2  A    between atoms: O_2  and  C_3
REMARK    3  A    between atoms: C_8  and  C_9
REMARK    4  A    between atoms: C_9  and  O_10
REMARK    5  A    between atoms: O_10  and  C_11
REMARK    6  A    between atoms: C_14  and  N_15
REMARK    7  A    between atoms: C_16  and  C_18
REMARK    8  A    between atoms: C_25  and  N_26
REMARK                            x       y       z     vdW  Elec       q    Type
REMARK                         _______ _______ _______ _____ _____    ______ ____
ROOT
ATOM      1  C   UNL     1       6.020   4.619  17.595  0.00  0.00    +0.000 A 
ATOM      2  C   UNL     1       5.967   5.150  18.886  0.00  0.00    +0.000 A 
ATOM      3  C   UNL     1       6.748   6.247  19.253  0.00  0.00    +0.000 A 
ATOM      4  C   UNL     1       7.603   6.861  18.343  0.00  0.00    +0.000 A 
ATOM      5  C   UNL     1       7.572   6.423  17.015  0.00  0.00    +0.000 A 
ATOM      6  C   UNL     1       6.782   5.304  16.627  0.00  0.00    +0.000 A 
ENDROOT
BRANCH   6   7
ATOM      7  N   UNL     1       6.813   4.935  15.255  0.00  0.00    +0.000 N 
ATOM      8  C   UNL     1       6.049   4.051  14.527  0.00  0.00    +0.000 A 
ATOM      9  N   UNL     1       6.439   4.058  13.271  0.00  0.00    +0.000 NA
ATOM     10  N   UNL     1       7.458   4.965  13.201  0.00  0.00    +0.000 NA
ATOM     11  N   UNL     1       7.693   5.506  14.387  0.00  0.00    +0.000 NA
ENDBRANCH   6   7
BRANCH   4  12
ATOM     12  N   UNL     1       8.494   7.895  18.716  0.00  0.00    +0.000 N 
ATOM     13  C   UNL     1       8.373   9.213  18.288  0.00  0.00    +0.000 C 
ATOM     14  O   UNL     1       7.463   9.652  17.589  0.00  0.00    +0.000 OA
ATOM     15  H   UNL     1       9.124   7.701  19.484  0.00  0.00    +0.000 HD
BRANCH  13  16
ATOM     16  C   UNL     1       9.388  10.187  18.751  0.00  0.00    +0.000 A 
ATOM     17  C   UNL     1      10.254  10.853  17.890  0.00  0.00    +0.000 A 
ATOM     18  C   UNL     1      11.101  11.802  18.440  0.00  0.00    +0.000 A 
ATOM     19  N   UNL     1      11.135  12.114  19.754  0.00  0.00    +0.000 NA
ATOM     20  C   UNL     1      10.280  11.460  20.565  0.00  0.00    +0.000 A 
ATOM     21  C   UNL     1       9.398  10.499  20.116  0.00  0.00    +0.000 A 
ENDBRANCH  13  16
ENDBRANCH   4  12
BRANCH   1  22
ATOM     22  O   UNL     1       5.364   3.456  17.275  0.00  0.00    +0.000 OA
BRANCH  22  23
ATOM     23  C   UNL     1       3.999   3.585  16.809  0.00  0.00    +0.000 C 
BRANCH  23  29
ATOM     24  C   UNL     1       2.392   4.549  18.570  0.00  0.00    +0.000 A 
ATOM     25  C   UNL     1       1.528   4.333  19.653  0.00  0.00    +0.000 A 
ATOM     26  C   UNL     1       1.347   3.054  20.180  0.00  0.00    +0.000 A 
ATOM     27  C   UNL     1       2.017   1.974  19.621  0.00  0.00    +0.000 A 
ATOM     28  C   UNL     1       2.843   2.167  18.517  0.00  0.00    +0.000 A 
ATOM     29  C   UNL     1       3.026   3.448  17.961  0.00  0.00    +0.000 A 
BRANCH  24  31
ATOM     30  C   UNL     1       2.512   6.882  18.978  0.00  0.00    +0.000 C 
ATOM     31  O   UNL     1       2.639   5.798  18.054  0.00  0.00    +0.000 OA
ENDBRANCH  24  31
ENDBRANCH  23  29
ENDBRANCH  22  23
ENDBRANCH   1  22
TORSDOF 7
ENDMDL
