MODEL 1
REMARK VINA RESULT:      -8.0      0.000      0.000
REMARK  Name = 
REMARK  7 active torsions:
REMARK  status: ('A' for Active; 'I' for Inactive)
REMARK    1  A    between atoms: C_1  and  C_2
REMARK    2  A    between atoms: C_2  and  C_3
REMARK    3  A    between atoms: C_2  and  N_4
REMARK    4  A    between atoms: C_6  and  C_7
REMARK    5  A    between atoms: C_7  and  N_8
REMARK    6  A    between atoms: C_9  and  C_11
REMARK    7  A    between atoms: C_11  and  C_12
REMARK                            x       y       z     vdW  Elec       q    Type
REMARK                         _______ _______ _______ _____ _____    ______ ____
ROOT
ATOM      1  N   UNL     1       5.122   5.393  16.919  0.00  0.00    +0.000 N 
ATOM      2  C   UNL     1       5.006   6.724  17.246  0.00  0.00    +0.000 C 
ATOM      3  O   UNL     1       5.972   7.459  17.433  0.00  0.00    +0.000 OA
ATOM      4  H   UNL     1       4.300   4.868  16.643  0.00  0.00    +0.000 HD
ENDROOT
BRANCH   1   5
ATOM      5  C   UNL     1       6.407   4.772  16.703  0.00  0.00    +0.000 C 
BRANCH   5   8
ATOM      6  N   UNL     1       6.618   4.108  13.160  0.00  0.00    +0.000 N 
ATOM      7  C   UNL     1       6.034   3.782  14.351  0.00  0.00    +0.000 A 
ATOM      8  C   UNL     1       6.644   4.626  15.253  0.00  0.00    +0.000 A 
ATOM      9  N   UNL     1       7.565   5.396  14.607  0.00  0.00    +0.000 NA
ATOM     10  N   UNL     1       7.567   5.060  13.317  0.00  0.00    +0.000 NA
BRANCH   6  12
ATOM     11  C   UNL     1       7.242   2.406  11.481  0.00  0.00    +0.000 C 
ATOM     12  C   UNL     1       6.307   3.574  11.851  0.00  0.00    +0.000 C 
ATOM     13  C   UNL     1       4.854   3.148  11.715  0.00  0.00    +0.000 C 
ENDBRANCH   6  12
ENDBRANCH   5   8
ENDBRANCH   1   5
BRANCH   2  14
ATOM     14  C   UNL     1       3.577   7.200  17.406  0.00  0.00    +0.000 C 
BRANCH  14  15
ATOM     15  C   UNL     1       2.797   6.222  18.231  0.00  0.00    +0.000 A 
ATOM     16  C   UNL     1       2.149   5.073  17.823  0.00  0.00    +0.000 A 
ATOM     17  C   UNL     1       1.726   4.258  18.924  0.00  0.00    +0.000 A 
ATOM     18  C   UNL     1       1.095   3.001  18.959  0.00  0.00    +0.000 A 
ATOM     19  C   UNL     1       1.433   2.134  19.991  0.00  0.00    +0.000 A 
ATOM     20  C   UNL     1       1.856   2.673  21.192  0.00  0.00    +0.000 A 
ATOM     21  C   UNL     1       2.037   4.055  21.324  0.00  0.00    +0.000 A 
ATOM     22  C   UNL     1       2.123   4.806  20.142  0.00  0.00    +0.000 A 
ATOM     23  S   UNL     1       2.672   6.423  19.928  0.00  0.00    +0.000 S 
ENDBRANCH  14  15
ENDBRANCH   2  14
TORSDOF 5
ENDMDL
MODEL 2
REMARK VINA RESULT:      -7.7      1.138      1.290
REMARK  Name = 
REMARK  7 active torsions:
REMARK  status: ('A' for Active; 'I' for Inactive)
REMARK    1  A    between atoms: C_1  and  C_2
REMARK    2  A    between atoms: C_2  and  C_3
REMARK    3  A    between atoms: C_2  and  N_4
REMARK    4  A    between atoms: C_6  and  C_7
REMARK    5  A    between atoms: C_7  and  N_8
REMARK    6  A    between atoms: C_9  and  C_11
REMARK    7  A    between atoms: C_11  and  C_12
REMARK                            x       y       z     vdW  Elec       q    Type
REMARK                         _______ _______ _______ _____ _____    ______ ____
ROOT
ATOM      1  N   UNL     1       5.744   5.680  16.137  0.00  0.00    +0.000 N 
ATOM      2  C   UNL     1       5.653   6.724  17.028  0.00  0.00    +0.000 C 
ATOM      3  O   UNL     1       6.633   7.264  17.536  0.00  0.00    +0.000 OA
ATOM      4  H   UNL     1       4.917   5.363  15.645  0.00  0.00    +0.000 HD
ENDROOT
BRANCH   1   5
ATOM      5  C   UNL     1       7.019   5.180  15.679  0.00  0.00    +0.000 C 
BRANCH   5   8
ATOM      6  N   UNL     1       6.321   3.756  12.435  0.00  0.00    +0.000 N 
ATOM      7  C   UNL     1       6.022   3.763  13.767  0.00  0.00    +0.000 A 
ATOM      8  C   UNL     1       6.888   4.702  14.288  0.00  0.00    +0.000 A 
ATOM      9  N   UNL     1       7.672   5.201  13.293  0.00  0.00    +0.000 NA
ATOM     10  N   UNL     1       7.340   4.600  12.150  0.00  0.00    +0.000 NA
BRANCH   6  12
ATOM     11  C   UNL     1       6.010   1.497  11.484  0.00  0.00    +0.000 C 
ATOM     12  C   UNL     1       5.667   2.997  11.390  0.00  0.00    +0.000 C 
ATOM     13  C   UNL     1       4.160   3.191  11.370  0.00  0.00    +0.000 C 
ENDBRANCH   6  12
ENDBRANCH   5   8
ENDBRANCH   1   5
BRANCH   2  14
ATOM     14  C   UNL     1       4.233   7.125  17.368  0.00  0.00    +0.000 C 
BRANCH  14  15
ATOM     15  C   UNL     1       3.690   6.233  18.443  0.00  0.00    +0.000 A 
ATOM     16  C   UNL     1       2.396   6.144  18.918  0.00  0.00    +0.000 A 
ATOM     17  C   UNL     1       2.198   5.006  19.768  0.00  0.00    +0.000 A 
ATOM     18  C   UNL     1       1.044   4.513  20.404  0.00  0.00    +0.000 A 
ATOM     19  C   UNL     1       0.909   3.137  20.529  0.00  0.00    +0.000 A 
ATOM     20  C   UNL     1       2.056   2.366  20.595  0.00  0.00    +0.000 A 
ATOM     21  C   UNL     1       3.316   2.955  20.432  0.00  0.00    +0.000 A 
ATOM     22  C   UNL     1       3.356   4.237  19.863  0.00  0.00    +0.000 A 
ATOM     23  S   UNL     1       4.704   5.091  19.218  0.00  0.00    +0.000 S 
ENDBRANCH  14  15
ENDBRANCH   2  14
TORSDOF 5
ENDMDL
MODEL 3
REMARK VINA RESULT:      -7.7      1.301      1.553
REMARK  Name = 
REMARK  7 active torsions:
REMARK  status: ('A' for Active; 'I' for Inactive)
REMARK    1  A    between atoms: C_1  and  C_2
REMARK    2  A    between atoms: C_2  and  C_3
REMARK    3  A    between atoms: C_2  and  N_4
REMARK    4  A    between atoms: C_6  and  C_7
REMARK    5  A    between atoms: C_7  and  N_8
REMARK    6  A    between atoms: C_9  and  C_11
REMARK    7  A    between atoms: C_11  and  C_12
REMARK                            x       y       z     vdW  Elec       q    Type
REMARK                         _______ _______ _______ _____ _____    ______ ____
ROOT
ATOM      1  N   UNL     1       5.818   6.016  16.033  0.00  0.00    +0.000 N 
ATOM      2  C   UNL     1       5.747   6.965  17.026  0.00  0.00    +0.000 C 
ATOM      3  O   UNL     1       6.737   7.448  17.569  0.00  0.00    +0.000 OA
ATOM      4  H   UNL     1       4.981   5.753  15.526  0.00  0.00    +0.000 HD
ENDROOT
BRANCH   1   5
ATOM      5  C   UNL     1       7.082   5.562  15.504  0.00  0.00    +0.000 C 
BRANCH   5   8
ATOM      6  N   UNL     1       6.162   3.467  12.711  0.00  0.00    +0.000 N 
ATOM      7  C   UNL     1       5.983   3.748  14.035  0.00  0.00    +0.000 A 
ATOM      8  C   UNL     1       6.849   4.797  14.263  0.00  0.00    +0.000 A 
ATOM      9  N   UNL     1       7.519   5.093  13.114  0.00  0.00    +0.000 NA
ATOM     10  N   UNL     1       7.113   4.255  12.159  0.00  0.00    +0.000 NA
BRANCH   6  12
ATOM     11  C   UNL     1       4.316   3.137  11.101  0.00  0.00    +0.000 C 
ATOM     12  C   UNL     1       5.452   2.487  11.916  0.00  0.00    +0.000 C 
ATOM     13  C   UNL     1       6.367   1.691  11.000  0.00  0.00    +0.000 C 
ENDBRANCH   6  12
ENDBRANCH   5   8
ENDBRANCH   1   5
BRANCH   2  14
ATOM     14  C   UNL     1       4.334   7.333  17.431  0.00  0.00    +0.000 C 
BRANCH  14  15
ATOM     15  C   UNL     1       3.683   6.182  18.133  0.00  0.00    +0.000 A 
ATOM     16  C   UNL     1       2.394   5.705  17.997  0.00  0.00    +0.000 A 
ATOM     17  C   UNL     1       2.204   4.437  18.638  0.00  0.00    +0.000 A 
ATOM     18  C   UNL     1       1.087   3.584  18.695  0.00  0.00    +0.000 A 
ATOM     19  C   UNL     1       1.316   2.214  18.704  0.00  0.00    +0.000 A 
ATOM     20  C   UNL     1       2.504   1.749  19.235  0.00  0.00    +0.000 A 
ATOM     21  C   UNL     1       3.493   2.646  19.654  0.00  0.00    +0.000 A 
ATOM     22  C   UNL     1       3.390   3.971  19.201  0.00  0.00    +0.000 A 
ATOM     23  S   UNL     1       4.576   5.218  19.234  0.00  0.00    +0.000 S 
ENDBRANCH  14  15
ENDBRANCH   2  14
TORSDOF 5
ENDMDL
MODEL 4
REMARK VINA RESULT:      -7.7      1.165      1.673
REMARK  Name = 
REMARK  7 active torsions:
REMARK  status: ('A' for Active; 'I' for Inactive)
REMARK    1  A    between atoms: C_1  and  C_2
REMARK    2  A    between atoms: C_2  and  C_3
REMARK    3  A    between atoms: C_2  and  N_4
REMARK    4  A    between atoms: C_6  and  C_7
REMARK    5  A    between atoms: C_7  and  N_8
REMARK    6  A    between atoms: C_9  and  C_11
REMARK    7  A    between atoms: C_11  and  C_12
REMARK                            x       y       z     vdW  Elec       q    Type
REMARK                         _______ _______ _______ _____ _____    ______ ____
ROOT
ATOM      1  N   UNL     1       5.839   5.702  16.275  0.00  0.00    +0.000 N 
ATOM      2  C   UNL     1       5.753   6.707  17.210  0.00  0.00    +0.000 C 
ATOM      3  O   UNL     1       6.731   7.317  17.637  0.00  0.00    +0.000 OA
ATOM      4  H   UNL     1       4.995   5.328  15.858  0.00  0.00    +0.000 HD
ENDROOT
BRANCH   1   5
ATOM      5  C   UNL     1       7.097   5.332  15.671  0.00  0.00    +0.000 C 
BRANCH   5   8
ATOM      6  N   UNL     1       6.143   3.439  12.748  0.00  0.00    +0.000 N 
ATOM      7  C   UNL     1       6.005   3.605  14.096  0.00  0.00    +0.000 A 
ATOM      8  C   UNL     1       6.843   4.662  14.380  0.00  0.00    +0.000 A 
ATOM      9  N   UNL     1       7.458   5.076  13.237  0.00  0.00    +0.000 NA
ATOM     10  N   UNL     1       7.046   4.305  12.231  0.00  0.00    +0.000 NA
BRANCH   6  12
ATOM     11  C   UNL     1       4.348   3.206  11.065  0.00  0.00    +0.000 C 
ATOM     12  C   UNL     1       5.437   2.502  11.899  0.00  0.00    +0.000 C 
ATOM     13  C   UNL     1       6.364   1.710  10.992  0.00  0.00    +0.000 C 
ENDBRANCH   6  12
ENDBRANCH   5   8
ENDBRANCH   1   5
BRANCH   2  14
ATOM     14  C   UNL     1       4.347   6.971  17.708  0.00  0.00    +0.000 C 
BRANCH  14  15
ATOM     15  C   UNL     1       3.768   5.722  18.300  0.00  0.00    +0.000 A 
ATOM     16  C   UNL     1       4.353   4.832  19.180  0.00  0.00    +0.000 A 
ATOM     17  C   UNL     1       3.414   3.897  19.724  0.00  0.00    +0.000 A 
ATOM     18  C   UNL     1       3.568   2.877  20.681  0.00  0.00    +0.000 A 
ATOM     19  C   UNL     1       2.506   2.628  21.542  0.00  0.00    +0.000 A 
ATOM     20  C   UNL     1       1.225   2.907  21.104  0.00  0.00    +0.000 A 
ATOM     21  C   UNL     1       1.017   3.524  19.864  0.00  0.00    +0.000 A 
ATOM     22  C   UNL     1       2.122   4.151  19.268  0.00  0.00    +0.000 A 
ATOM     23  S   UNL     1       2.152   5.267  17.958  0.00  0.00    +0.000 S 
ENDBRANCH  14  15
ENDBRANCH   2  14
TORSDOF 5
ENDMDL
MODEL 5
REMARK VINA RESULT:      -7.7      1.046      1.109
REMARK  Name = 
REMARK  7 active torsions:
REMARK  status: ('A' for Active; 'I' for Inactive)
REMARK    1  A    between atoms: C_1  and  C_2
REMARK    2  A    between atoms: C_2  and  C_3
REMARK    3  A    between atoms: C_2  and  N_4
REMARK    4  A    between atoms: C_6  and  C_7
REMARK    5  A    between atoms: C_7  and  N_8
REMARK    6  A    between atoms: C_9  and  C_11
REMARK    7  A    between atoms: C_11  and  C_12
REMARK                            x       y       z     vdW  Elec       q    Type
REMARK                         _______ _______ _______ _____ _____    ______ ____
ROOT
ATOM      1  N   UNL     1       5.944   6.120  15.810  0.00  0.00    +0.000 N 
ATOM      2  C   UNL     1       5.221   5.700  16.902  0.00  0.00    +0.000 C 
ATOM      3  O   UNL     1       5.535   4.728  17.584  0.00  0.00    +0.000 OA
ATOM      4  H   UNL     1       5.720   7.003  15.367  0.00  0.00    +0.000 HD
ENDROOT
BRANCH   1   5
ATOM      5  C   UNL     1       7.178   5.479  15.422  0.00  0.00    +0.000 C 
BRANCH   5   8
ATOM      6  N   UNL     1       6.404   3.768  12.338  0.00  0.00    +0.000 N 
ATOM      7  C   UNL     1       6.123   3.911  13.667  0.00  0.00    +0.000 A 
ATOM      8  C   UNL     1       7.017   4.873  14.086  0.00  0.00    +0.000 A 
ATOM      9  N   UNL     1       7.801   5.255  13.038  0.00  0.00    +0.000 NA
ATOM     10  N   UNL     1       7.439   4.555  11.962  0.00  0.00    +0.000 NA
BRANCH   6  12
ATOM     11  C   UNL     1       6.159   1.456  11.500  0.00  0.00    +0.000 C 
ATOM     12  C   UNL     1       5.719   2.929  11.378  0.00  0.00    +0.000 C 
ATOM     13  C   UNL     1       4.206   3.035  11.471  0.00  0.00    +0.000 C 
ENDBRANCH   6  12
ENDBRANCH   5   8
ENDBRANCH   1   5
BRANCH   2  14
ATOM     14  C   UNL     1       3.971   6.513  17.167  0.00  0.00    +0.000 C 
BRANCH  14  15
ATOM     15  C   UNL     1       3.069   5.778  18.112  0.00  0.00    +0.000 A 
ATOM     16  C   UNL     1       2.232   4.711  17.852  0.00  0.00    +0.000 A 
ATOM     17  C   UNL     1       1.717   4.109  19.046  0.00  0.00    +0.000 A 
ATOM     18  C   UNL     1       0.893   2.985  19.239  0.00  0.00    +0.000 A 
ATOM     19  C   UNL     1       1.119   2.198  20.361  0.00  0.00    +0.000 A 
ATOM     20  C   UNL     1       1.661   2.795  21.485  0.00  0.00    +0.000 A 
ATOM     21  C   UNL     1       2.068   4.134  21.450  0.00  0.00    +0.000 A 
ATOM     22  C   UNL     1       2.236   4.721  20.186  0.00  0.00    +0.000 A 
ATOM     23  S   UNL     1       3.032   6.190  19.775  0.00  0.00    +0.000 S 
ENDBRANCH  14  15
ENDBRANCH   2  14
TORSDOF 5
ENDMDL
MODEL 6
REMARK VINA RESULT:      -7.6      1.573      1.997
REMARK  Name = 
REMARK  7 active torsions:
REMARK  status: ('A' for Active; 'I' for Inactive)
REMARK    1  A    between atoms: C_1  and  C_2
REMARK    2  A    between atoms: C_2  and  C_3
REMARK    3  A    between atoms: C_2  and  N_4
REMARK    4  A    between atoms: C_6  and  C_7
REMARK    5  A    between atoms: C_7  and  N_8
REMARK    6  A    between atoms: C_9  and  C_11
REMARK    7  A    between atoms: C_11  and  C_12
REMARK                            x       y       z     vdW  Elec       q    Type
REMARK                         _______ _______ _______ _____ _____    ______ ____
ROOT
ATOM      1  N   UNL     1       7.075   5.030  16.371  0.00  0.00    +0.000 N 
ATOM      2  C   UNL     1       6.954   5.712  17.559  0.00  0.00    +0.000 C 
ATOM      3  O   UNL     1       7.206   6.908  17.679  0.00  0.00    +0.000 OA
ATOM      4  H   UNL     1       6.725   4.082  16.296  0.00  0.00    +0.000 HD
ENDROOT
BRANCH   1   5
ATOM      5  C   UNL     1       7.448   5.697  15.146  0.00  0.00    +0.000 C 
BRANCH   5   8
ATOM      6  N   UNL     1       6.180   3.462  12.610  0.00  0.00    +0.000 N 
ATOM      7  C   UNL     1       6.113   3.867  13.912  0.00  0.00    +0.000 A 
ATOM      8  C   UNL     1       7.072   4.853  13.994  0.00  0.00    +0.000 A 
ATOM      9  N   UNL     1       7.686   4.995  12.786  0.00  0.00    +0.000 NA
ATOM     10  N   UNL     1       7.152   4.118  11.935  0.00  0.00    +0.000 NA
BRANCH   6  12
ATOM     11  C   UNL     1       4.222   3.158  11.133  0.00  0.00    +0.000 C 
ATOM     12  C   UNL     1       5.343   2.483  11.948  0.00  0.00    +0.000 C 
ATOM     13  C   UNL     1       6.131   1.528  11.067  0.00  0.00    +0.000 C 
ENDBRANCH   6  12
ENDBRANCH   5   8
ENDBRANCH   1   5
BRANCH   2  14
ATOM     14  C   UNL     1       6.527   4.848  18.728  0.00  0.00    +0.000 C 
BRANCH  14  15
ATOM     15  C   UNL     1       5.056   4.572  18.654  0.00  0.00    +0.000 A 
ATOM     16  C   UNL     1       4.402   3.548  17.997  0.00  0.00    +0.000 A 
ATOM     17  C   UNL     1       3.018   3.457  18.357  0.00  0.00    +0.000 A 
ATOM     18  C   UNL     1       2.019   2.541  17.978  0.00  0.00    +0.000 A 
ATOM     19  C   UNL     1       1.060   2.199  18.923  0.00  0.00    +0.000 A 
ATOM     20  C   UNL     1       0.745   3.120  19.905  0.00  0.00    +0.000 A 
ATOM     21  C   UNL     1       1.455   4.323  20.002  0.00  0.00    +0.000 A 
ATOM     22  C   UNL     1       2.683   4.399  19.327  0.00  0.00    +0.000 A 
ATOM     23  S   UNL     1       3.943   5.558  19.504  0.00  0.00    +0.000 S 
ENDBRANCH  14  15
ENDBRANCH   2  14
TORSDOF 5
ENDMDL
MODEL 7
REMARK VINA RESULT:      -7.6      1.192      1.634
REMARK  Name = 
REMARK  7 active torsions:
REMARK  status: ('A' for Active; 'I' for Inactive)
REMARK    1  A    between atoms: C_1  and  C_2
REMARK    2  A    between atoms: C_2  and  C_3
REMARK    3  A    between atoms: C_2  and  N_4
REMARK    4  A    between atoms: C_6  and  C_7
REMARK    5  A    between atoms: C_7  and  N_8
REMARK    6  A    between atoms: C_9  and  C_11
REMARK    7  A    between atoms: C_11  and  C_12
REMARK                            x       y       z     vdW  Elec       q    Type
REMARK                         _______ _______ _______ _____ _____    ______ ____
ROOT
ATOM      1  N   UNL     1       5.842   5.546  16.180  0.00  0.00    +0.000 N 
ATOM      2  C   UNL     1       5.685   6.628  17.015  0.00  0.00    +0.000 C 
ATOM      3  O   UNL     1       6.621   7.327  17.395  0.00  0.00    +0.000 OA
ATOM      4  H   UNL     1       5.028   5.088  15.789  0.00  0.00    +0.000 HD
ENDROOT
BRANCH   1   5
ATOM      5  C   UNL     1       7.129   5.190  15.631  0.00  0.00    +0.000 C 
BRANCH   5   8
ATOM      6  N   UNL     1       6.335   3.768  12.408  0.00  0.00    +0.000 N 
ATOM      7  C   UNL     1       6.078   3.772  13.750  0.00  0.00    +0.000 A 
ATOM      8  C   UNL     1       6.956   4.712  14.245  0.00  0.00    +0.000 A 
ATOM      9  N   UNL     1       7.708   5.215  13.226  0.00  0.00    +0.000 NA
ATOM     10  N   UNL     1       7.342   4.614  12.093  0.00  0.00    +0.000 NA
BRANCH   6  12
ATOM     11  C   UNL     1       5.985   1.505  11.478  0.00  0.00    +0.000 C 
ATOM     12  C   UNL     1       5.651   3.007  11.384  0.00  0.00    +0.000 C 
ATOM     13  C   UNL     1       4.145   3.213  11.398  0.00  0.00    +0.000 C 
ENDBRANCH   6  12
ENDBRANCH   5   8
ENDBRANCH   1   5
BRANCH   2  14
ATOM     14  C   UNL     1       4.258   6.859  17.467  0.00  0.00    +0.000 C 
BRANCH  14  15
ATOM     15  C   UNL     1       3.752   5.659  18.207  0.00  0.00    +0.000 A 
ATOM     16  C   UNL     1       3.646   5.467  19.570  0.00  0.00    +0.000 A 
ATOM     17  C   UNL     1       2.884   4.300  19.906  0.00  0.00    +0.000 A 
ATOM     18  C   UNL     1       2.489   3.775  21.150  0.00  0.00    +0.000 A 
ATOM     19  C   UNL     1       1.251   3.151  21.228  0.00  0.00    +0.000 A 
ATOM     20  C   UNL     1       0.743   2.551  20.090  0.00  0.00    +0.000 A 
ATOM     21  C   UNL     1       1.416   2.666  18.868  0.00  0.00    +0.000 A 
ATOM     22  C   UNL     1       2.390   3.672  18.764  0.00  0.00    +0.000 A 
ATOM     23  S   UNL     1       3.142   4.305  17.352  0.00  0.00    +0.000 S 
ENDBRANCH  14  15
ENDBRANCH   2  14
TORSDOF 5
ENDMDL
MODEL 8
REMARK VINA RESULT:      -7.4      2.448      3.747
REMARK  Name = 
REMARK  7 active torsions:
REMARK  status: ('A' for Active; 'I' for Inactive)
REMARK    1  A    between atoms: C_1  and  C_2
REMARK    2  A    between atoms: C_2  and  C_3
REMARK    3  A    between atoms: C_2  and  N_4
REMARK    4  A    between atoms: C_6  and  C_7
REMARK    5  A    between atoms: C_7  and  N_8
REMARK    6  A    between atoms: C_9  and  C_11
REMARK    7  A    between atoms: C_11  and  C_12
REMARK                            x       y       z     vdW  Elec       q    Type
REMARK                         _______ _______ _______ _____ _____    ______ ____
ROOT
ATOM      1  N   UNL     1       4.767   5.090  17.486  0.00  0.00    +0.000 N 
ATOM      2  C   UNL     1       4.062   4.620  18.569  0.00  0.00    +0.000 C 
ATOM      3  O   UNL     1       4.574   3.969  19.477  0.00  0.00    +0.000 OA
ATOM      4  H   UNL     1       4.329   5.735  16.840  0.00  0.00    +0.000 HD
ENDROOT
BRANCH   1   5
ATOM      5  C   UNL     1       6.195   4.905  17.370  0.00  0.00    +0.000 C 
BRANCH   5   8
ATOM      6  N   UNL     1       6.726   4.183  13.873  0.00  0.00    +0.000 N 
ATOM      7  C   UNL     1       6.069   3.846  15.022  0.00  0.00    +0.000 A 
ATOM      8  C   UNL     1       6.555   4.745  15.948  0.00  0.00    +0.000 A 
ATOM      9  N   UNL     1       7.476   5.556  15.357  0.00  0.00    +0.000 NA
ATOM     10  N   UNL     1       7.602   5.194  14.080  0.00  0.00    +0.000 NA
BRANCH   6  12
ATOM     11  C   UNL     1       5.063   3.366  12.237  0.00  0.00    +0.000 C 
ATOM     12  C   UNL     1       6.552   3.604  12.557  0.00  0.00    +0.000 C 
ATOM     13  C   UNL     1       7.202   4.427  11.457  0.00  0.00    +0.000 C 
ENDBRANCH   6  12
ENDBRANCH   5   8
ENDBRANCH   1   5
BRANCH   2  14
ATOM     14  C   UNL     1       2.580   4.934  18.527  0.00  0.00    +0.000 C 
BRANCH  14  15
ATOM     15  C   UNL     1       2.348   6.371  18.884  0.00  0.00    +0.000 A 
ATOM     16  C   UNL     1       2.373   7.480  18.062  0.00  0.00    +0.000 A 
ATOM     17  C   UNL     1       1.856   8.653  18.702  0.00  0.00    +0.000 A 
ATOM     18  C   UNL     1       1.649   9.959  18.219  0.00  0.00    +0.000 A 
ATOM     19  C   UNL     1       0.550  10.660  18.698  0.00  0.00    +0.000 A 
ATOM     20  C   UNL     1       0.079  10.363  19.963  0.00  0.00    +0.000 A 
ATOM     21  C   UNL     1       0.633   9.307  20.696  0.00  0.00    +0.000 A 
ATOM     22  C   UNL     1       1.404   8.371  19.989  0.00  0.00    +0.000 A 
ATOM     23  S   UNL     1       1.931   6.810  20.487  0.00  0.00    +0.000 S 
ENDBRANCH  14  15
ENDBRANCH   2  14
TORSDOF 5
ENDMDL
MODEL 9
REMARK VINA RESULT:      -7.3      2.648      3.811
REMARK  Name = 
REMARK  7 active torsions:
REMARK  status: ('A' for Active; 'I' for Inactive)
REMARK    1  A    between atoms: C_1  and  C_2
REMARK    2  A    between atoms: C_2  and  C_3
REMARK    3  A    between atoms: C_2  and  N_4
REMARK    4  A    between atoms: C_6  and  C_7
REMARK    5  A    between atoms: C_7  and  N_8
REMARK    6  A    between atoms: C_9  and  C_11
REMARK    7  A    between atoms: C_11  and  C_12
REMARK                            x       y       z     vdW  Elec       q    Type
REMARK                         _______ _______ _______ _____ _____    ______ ____
ROOT
ATOM      1  N   UNL     1       5.032   4.936  17.968  0.00  0.00    +0.000 N 
ATOM      2  C   UNL     1       4.305   6.049  17.615  0.00  0.00    +0.000 C 
ATOM      3  O   UNL     1       4.808   7.050  17.111  0.00  0.00    +0.000 OA
ATOM      4  H   UNL     1       4.553   4.089  18.251  0.00  0.00    +0.000 HD
ENDROOT
BRANCH   1   5
ATOM      5  C   UNL     1       6.449   4.839  17.707  0.00  0.00    +0.000 C 
BRANCH   5   8
ATOM      6  N   UNL     1       6.671   4.159  14.168  0.00  0.00    +0.000 N 
ATOM      7  C   UNL     1       6.160   3.776  15.375  0.00  0.00    +0.000 A 
ATOM      8  C   UNL     1       6.673   4.706  16.254  0.00  0.00    +0.000 A 
ATOM      9  N   UNL     1       7.469   5.582  15.579  0.00  0.00    +0.000 NA
ATOM     10  N   UNL     1       7.489   5.231  14.293  0.00  0.00    +0.000 NA
BRANCH   6  12
ATOM     11  C   UNL     1       4.901   3.602  12.536  0.00  0.00    +0.000 C 
ATOM     12  C   UNL     1       6.405   3.571  12.872  0.00  0.00    +0.000 C 
ATOM     13  C   UNL     1       7.208   4.214  11.753  0.00  0.00    +0.000 C 
ENDBRANCH   6  12
ENDBRANCH   5   8
ENDBRANCH   1   5
BRANCH   2  14
ATOM     14  C   UNL     1       2.830   5.954  17.944  0.00  0.00    +0.000 C 
BRANCH  14  15
ATOM     15  C   UNL     1       2.365   7.222  18.593  0.00  0.00    +0.000 A 
ATOM     16  C   UNL     1       2.044   8.428  18.001  0.00  0.00    +0.000 A 
ATOM     17  C   UNL     1       1.398   9.333  18.905  0.00  0.00    +0.000 A 
ATOM     18  C   UNL     1       0.862  10.618  18.707  0.00  0.00    +0.000 A 
ATOM     19  C   UNL     1      -0.275  10.965  19.426  0.00  0.00    +0.000 A 
ATOM     20  C   UNL     1      -0.487  10.365  20.653  0.00  0.00    +0.000 A 
ATOM     21  C   UNL     1       0.372   9.356  21.107  0.00  0.00    +0.000 A 
ATOM     22  C   UNL     1       1.205   8.748  20.155  0.00  0.00    +0.000 A 
ATOM     23  S   UNL     1       2.105   7.287  20.285  0.00  0.00    +0.000 S 
ENDBRANCH  14  15
ENDBRANCH   2  14
TORSDOF 5
ENDMDL
