MODEL 1
REMARK VINA RESULT:      -6.7      0.000      0.000
REMARK  Name = 
REMARK  18 active torsions:
REMARK  status: ('A' for Active; 'I' for Inactive)
REMARK    1  A    between atoms: C_1  and  C_2
REMARK    2  A    between atoms: C_3  and  C_4
REMARK    3  A    between atoms: C_4  and  C_5
REMARK    4  A    between atoms: C_5  and  O_6
REMARK    5  A    between atoms: N_9  and  C_10
REMARK    6  A    between atoms: C_10  and  C_11
REMARK    7  A    between atoms: C_11  and  C_12
REMARK    8  A    between atoms: C_12  and  C_13
REMARK    9  A    between atoms: C_13  and  C_14
REMARK   10  A    between atoms: C_17  and  C_18
REMARK   11  A    between atoms: C_18  and  C_19
REMARK   12  A    between atoms: C_19  and  C_20
REMARK   13  A    between atoms: C_20  and  C_21
REMARK   14  A    between atoms: C_21  and  N_22
REMARK   15  A    between atoms: C_25  and  C_26
REMARK   16  A    between atoms: C_26  and  C_27
REMARK   17  A    between atoms: C_27  and  O_28
REMARK   18  A    between atoms: C_29  and  C_30
REMARK                            x       y       z     vdW  Elec       q    Type
REMARK                         _______ _______ _______ _____ _____    ______ ____
ROOT
ATOM      1  C   UNL     1      -0.287  10.895  20.918  0.00  0.00    +0.000 A 
ATOM      2  C   UNL     1       0.009  10.910  19.551  0.00  0.00    +0.000 A 
ATOM      3  C   UNL     1       0.775   9.895  18.988  0.00  0.00    +0.000 A 
ATOM      4  C   UNL     1       1.287   8.867  19.790  0.00  0.00    +0.000 A 
ATOM      5  C   UNL     1       0.996   8.854  21.159  0.00  0.00    +0.000 A 
ATOM      6  C   UNL     1       0.213   9.861  21.718  0.00  0.00    +0.000 A 
ENDROOT
BRANCH   1   7
ATOM      7  C   UNL     1      -1.112  11.987  21.528  0.00  0.00    +0.000 C 
BRANCH   7   8
ATOM      8  C   UNL     1      -1.477  11.713  22.990  0.00  0.00    +0.000 C 
BRANCH   8   9
ATOM      9  C   UNL     1      -2.858  12.288  23.272  0.00  0.00    +0.000 C 
BRANCH   9  10
ATOM     10  C   UNL     1      -3.341  13.241  22.184  0.00  0.00    +0.000 C 
BRANCH  10  16
ATOM     11  C   UNL     1      -3.984  12.298  19.415  0.00  0.00    +0.000 C 
ATOM     12  C   UNL     1      -5.030  12.415  20.463  0.00  0.00    +0.000 A 
ATOM     13  C   UNL     1      -6.377  12.106  20.371  0.00  0.00    +0.000 A 
ATOM     14  S   UNL     1      -7.144  12.365  21.893  0.00  0.00    +0.000 S 
ATOM     15  C   UNL     1      -5.697  12.904  22.600  0.00  0.00    +0.000 A 
ATOM     16  N   UNL     1      -4.690  12.865  21.738  0.00  0.00    +0.000 N 
BRANCH  13  17
ATOM     17  C   UNL     1      -7.200  11.592  19.218  0.00  0.00    +0.000 C 
BRANCH  17  18
ATOM     18  C   UNL     1      -6.771  10.196  18.757  0.00  0.00    +0.000 C 
BRANCH  18  19
ATOM     19  O   UNL     1      -7.626   9.193  19.288  0.00  0.00    +0.000 OA
ATOM     20  H   UNL     1      -8.404   9.120  18.706  0.00  0.00    +0.000 HD
ENDBRANCH  18  19
ENDBRANCH  17  18
ENDBRANCH  13  17
ENDBRANCH  10  16
ENDBRANCH   9  10
ENDBRANCH   8   9
ENDBRANCH   7   8
ENDBRANCH   1   7
BRANCH   4  21
ATOM     21  C   UNL     1       2.126   7.777  19.187  0.00  0.00    +0.000 C 
BRANCH  21  22
ATOM     22  C   UNL     1       2.424   6.652  20.183  0.00  0.00    +0.000 C 
BRANCH  22  23
ATOM     23  C   UNL     1       2.089   5.311  19.548  0.00  0.00    +0.000 C 
BRANCH  23  24
ATOM     24  C   UNL     1       3.142   4.248  19.846  0.00  0.00    +0.000 C 
BRANCH  24  25
ATOM     25  N   UNL     1       4.251   4.340  18.892  0.00  0.00    +0.000 N 
ATOM     26  C   UNL     1       5.390   4.897  19.268  0.00  0.00    +0.000 A 
ATOM     27  S   UNL     1       6.519   4.922  17.998  0.00  0.00    +0.000 S 
ATOM     28  C   UNL     1       5.428   4.122  16.929  0.00  0.00    +0.000 A 
ATOM     29  C   UNL     1       4.233   3.862  17.582  0.00  0.00    +0.000 A 
ATOM     30  C   UNL     1       3.016   3.182  17.063  0.00  0.00    +0.000 C 
BRANCH  28  31
ATOM     31  C   UNL     1       5.864   3.851  15.513  0.00  0.00    +0.000 C 
BRANCH  31  32
ATOM     32  C   UNL     1       6.204   5.121  14.728  0.00  0.00    +0.000 C 
BRANCH  32  33
ATOM     33  O   UNL     1       7.610   5.327  14.653  0.00  0.00    +0.000 OA
ATOM     34  H   UNL     1       7.838   5.527  13.725  0.00  0.00    +0.000 HD
ENDBRANCH  32  33
ENDBRANCH  31  32
ENDBRANCH  28  31
ENDBRANCH  24  25
ENDBRANCH  23  24
ENDBRANCH  22  23
ENDBRANCH  21  22
ENDBRANCH   4  21
TORSDOF 16
ENDMDL
MODEL 2
REMARK VINA RESULT:      -6.7      1.723      2.635
REMARK  Name = 
REMARK  18 active torsions:
REMARK  status: ('A' for Active; 'I' for Inactive)
REMARK    1  A    between atoms: C_1  and  C_2
REMARK    2  A    between atoms: C_3  and  C_4
REMARK    3  A    between atoms: C_4  and  C_5
REMARK    4  A    between atoms: C_5  and  O_6
REMARK    5  A    between atoms: N_9  and  C_10
REMARK    6  A    between atoms: C_10  and  C_11
REMARK    7  A    between atoms: C_11  and  C_12
REMARK    8  A    between atoms: C_12  and  C_13
REMARK    9  A    between atoms: C_13  and  C_14
REMARK   10  A    between atoms: C_17  and  C_18
REMARK   11  A    between atoms: C_18  and  C_19
REMARK   12  A    between atoms: C_19  and  C_20
REMARK   13  A    between atoms: C_20  and  C_21
REMARK   14  A    between atoms: C_21  and  N_22
REMARK   15  A    between atoms: C_25  and  C_26
REMARK   16  A    between atoms: C_26  and  C_27
REMARK   17  A    between atoms: C_27  and  O_28
REMARK   18  A    between atoms: C_29  and  C_30
REMARK                            x       y       z     vdW  Elec       q    Type
REMARK                         _______ _______ _______ _____ _____    ______ ____
ROOT
ATOM      1  C   UNL     1       1.482   9.212  19.098  0.00  0.00    +0.000 A 
ATOM      2  C   UNL     1       2.151   8.194  18.409  0.00  0.00    +0.000 A 
ATOM      3  C   UNL     1       2.328   6.948  18.998  0.00  0.00    +0.000 A 
ATOM      4  C   UNL     1       1.871   6.709  20.301  0.00  0.00    +0.000 A 
ATOM      5  C   UNL     1       1.207   7.728  20.993  0.00  0.00    +0.000 A 
ATOM      6  C   UNL     1       1.014   8.971  20.394  0.00  0.00    +0.000 A 
ENDROOT
BRANCH   1   7
ATOM      7  C   UNL     1       1.290  10.557  18.466  0.00  0.00    +0.000 C 
BRANCH   7   8
ATOM      8  C   UNL     1       0.609  11.562  19.400  0.00  0.00    +0.000 C 
BRANCH   8   9
ATOM      9  C   UNL     1      -0.549  12.220  18.660  0.00  0.00    +0.000 C 
BRANCH   9  10
ATOM     10  C   UNL     1      -1.722  12.564  19.572  0.00  0.00    +0.000 C 
BRANCH  10  16
ATOM     11  C   UNL     1      -4.388  12.806  20.913  0.00  0.00    +0.000 C 
ATOM     12  C   UNL     1      -4.242  12.185  19.572  0.00  0.00    +0.000 A 
ATOM     13  C   UNL     1      -5.232  11.674  18.749  0.00  0.00    +0.000 A 
ATOM     14  S   UNL     1      -4.539  11.122  17.270  0.00  0.00    +0.000 S 
ATOM     15  C   UNL     1      -2.972  11.539  17.777  0.00  0.00    +0.000 A 
ATOM     16  N   UNL     1      -2.981  12.086  18.985  0.00  0.00    +0.000 N 
BRANCH  13  17
ATOM     17  C   UNL     1      -6.722  11.561  18.943  0.00  0.00    +0.000 C 
BRANCH  17  18
ATOM     18  C   UNL     1      -7.119  10.371  19.822  0.00  0.00    +0.000 C 
BRANCH  18  19
ATOM     19  O   UNL     1      -7.513   9.257  19.033  0.00  0.00    +0.000 OA
ATOM     20  H   UNL     1      -7.171   8.449  19.458  0.00  0.00    +0.000 HD
ENDBRANCH  18  19
ENDBRANCH  17  18
ENDBRANCH  13  17
ENDBRANCH  10  16
ENDBRANCH   9  10
ENDBRANCH   8   9
ENDBRANCH   7   8
ENDBRANCH   1   7
BRANCH   4  21
ATOM     21  C   UNL     1       2.073   5.368  20.945  0.00  0.00    +0.000 C 
BRANCH  21  22
ATOM     22  C   UNL     1       1.082   4.319  20.430  0.00  0.00    +0.000 C 
BRANCH  22  23
ATOM     23  C   UNL     1       1.835   3.252  19.650  0.00  0.00    +0.000 C 
BRANCH  23  24
ATOM     24  C   UNL     1       3.292   3.133  20.086  0.00  0.00    +0.000 C 
BRANCH  24  25
ATOM     25  N   UNL     1       4.184   3.676  19.057  0.00  0.00    +0.000 N 
ATOM     26  C   UNL     1       5.109   4.557  19.396  0.00  0.00    +0.000 A 
ATOM     27  S   UNL     1       6.003   5.069  18.045  0.00  0.00    +0.000 S 
ATOM     28  C   UNL     1       5.120   4.032  16.989  0.00  0.00    +0.000 A 
ATOM     29  C   UNL     1       4.168   3.326  17.708  0.00  0.00    +0.000 A 
ATOM     30  C   UNL     1       3.193   2.314  17.220  0.00  0.00    +0.000 C 
BRANCH  28  31
ATOM     31  C   UNL     1       5.448   4.041  15.517  0.00  0.00    +0.000 C 
BRANCH  31  32
ATOM     32  C   UNL     1       6.044   5.366  15.037  0.00  0.00    +0.000 C 
BRANCH  32  33
ATOM     33  O   UNL     1       7.434   5.241  14.757  0.00  0.00    +0.000 OA
ATOM     34  H   UNL     1       7.541   5.129  13.794  0.00  0.00    +0.000 HD
ENDBRANCH  32  33
ENDBRANCH  31  32
ENDBRANCH  28  31
ENDBRANCH  24  25
ENDBRANCH  23  24
ENDBRANCH  22  23
ENDBRANCH  21  22
ENDBRANCH   4  21
TORSDOF 16
ENDMDL
MODEL 3
REMARK VINA RESULT:      -6.5      2.659      4.149
REMARK  Name = 
REMARK  18 active torsions:
REMARK  status: ('A' for Active; 'I' for Inactive)
REMARK    1  A    between atoms: C_1  and  C_2
REMARK    2  A    between atoms: C_3  and  C_4
REMARK    3  A    between atoms: C_4  and  C_5
REMARK    4  A    between atoms: C_5  and  O_6
REMARK    5  A    between atoms: N_9  and  C_10
REMARK    6  A    between atoms: C_10  and  C_11
REMARK    7  A    between atoms: C_11  and  C_12
REMARK    8  A    between atoms: C_12  and  C_13
REMARK    9  A    between atoms: C_13  and  C_14
REMARK   10  A    between atoms: C_17  and  C_18
REMARK   11  A    between atoms: C_18  and  C_19
REMARK   12  A    between atoms: C_19  and  C_20
REMARK   13  A    between atoms: C_20  and  C_21
REMARK   14  A    between atoms: C_21  and  N_22
REMARK   15  A    between atoms: C_25  and  C_26
REMARK   16  A    between atoms: C_26  and  C_27
REMARK   17  A    between atoms: C_27  and  O_28
REMARK   18  A    between atoms: C_29  and  C_30
REMARK                            x       y       z     vdW  Elec       q    Type
REMARK                         _______ _______ _______ _____ _____    ______ ____
ROOT
ATOM      1  C   UNL     1       2.341   7.086  18.509  0.00  0.00    +0.000 A 
ATOM      2  C   UNL     1       1.974   5.953  17.775  0.00  0.00    +0.000 A 
ATOM      3  C   UNL     1       1.421   4.851  18.417  0.00  0.00    +0.000 A 
ATOM      4  C   UNL     1       1.259   4.849  19.808  0.00  0.00    +0.000 A 
ATOM      5  C   UNL     1       1.631   5.980  20.544  0.00  0.00    +0.000 A 
ATOM      6  C   UNL     1       2.168   7.090  19.898  0.00  0.00    +0.000 A 
ENDROOT
BRANCH   1   7
ATOM      7  C   UNL     1       2.937   8.276  17.820  0.00  0.00    +0.000 C 
BRANCH   7   8
ATOM      8  C   UNL     1       2.176   9.574  18.108  0.00  0.00    +0.000 C 
BRANCH   8   9
ATOM      9  C   UNL     1       0.692   9.344  17.850  0.00  0.00    +0.000 C 
BRANCH   9  10
ATOM     10  C   UNL     1      -0.197  10.394  18.508  0.00  0.00    +0.000 C 
BRANCH  10  16
ATOM     11  C   UNL     1      -2.431  12.207  19.338  0.00  0.00    +0.000 C 
ATOM     12  C   UNL     1      -2.530  11.347  18.131  0.00  0.00    +0.000 A 
ATOM     13  C   UNL     1      -3.572  11.256  17.223  0.00  0.00    +0.000 A 
ATOM     14  S   UNL     1      -3.161  10.152  15.964  0.00  0.00    +0.000 S 
ATOM     15  C   UNL     1      -1.655   9.811  16.672  0.00  0.00    +0.000 A 
ATOM     16  N   UNL     1      -1.469  10.512  17.783  0.00  0.00    +0.000 N 
BRANCH  13  17
ATOM     17  C   UNL     1      -4.909  11.952  17.174  0.00  0.00    +0.000 C 
BRANCH  17  18
ATOM     18  C   UNL     1      -5.968  11.266  18.042  0.00  0.00    +0.000 C 
BRANCH  18  19
ATOM     19  O   UNL     1      -5.562   9.955  18.410  0.00  0.00    +0.000 OA
ATOM     20  H   UNL     1      -6.218   9.325  18.059  0.00  0.00    +0.000 HD
ENDBRANCH  18  19
ENDBRANCH  17  18
ENDBRANCH  13  17
ENDBRANCH  10  16
ENDBRANCH   9  10
ENDBRANCH   8   9
ENDBRANCH   7   8
ENDBRANCH   1   7
BRANCH   4  21
ATOM     21  C   UNL     1       0.675   3.654  20.505  0.00  0.00    +0.000 C 
BRANCH  21  22
ATOM     22  C   UNL     1       1.721   2.569  20.778  0.00  0.00    +0.000 C 
BRANCH  22  23
ATOM     23  C   UNL     1       3.062   3.221  21.081  0.00  0.00    +0.000 C 
BRANCH  23  24
ATOM     24  C   UNL     1       4.213   2.555  20.333  0.00  0.00    +0.000 C 
BRANCH  24  25
ATOM     25  N   UNL     1       4.664   3.401  19.223  0.00  0.00    +0.000 N 
ATOM     26  C   UNL     1       5.345   4.505  19.480  0.00  0.00    +0.000 A 
ATOM     27  S   UNL     1       5.737   5.339  18.053  0.00  0.00    +0.000 S 
ATOM     28  C   UNL     1       4.985   4.139  17.071  0.00  0.00    +0.000 A 
ATOM     29  C   UNL     1       4.458   3.137  17.870  0.00  0.00    +0.000 A 
ATOM     30  C   UNL     1       3.738   1.901  17.462  0.00  0.00    +0.000 C 
BRANCH  28  31
ATOM     31  C   UNL     1       4.970   4.327  15.575  0.00  0.00    +0.000 C 
BRANCH  31  32
ATOM     32  C   UNL     1       5.523   5.682  15.129  0.00  0.00    +0.000 C 
BRANCH  32  33
ATOM     33  O   UNL     1       6.819   5.553  14.555  0.00  0.00    +0.000 OA
ATOM     34  H   UNL     1       6.741   5.704  13.593  0.00  0.00    +0.000 HD
ENDBRANCH  32  33
ENDBRANCH  31  32
ENDBRANCH  28  31
ENDBRANCH  24  25
ENDBRANCH  23  24
ENDBRANCH  22  23
ENDBRANCH  21  22
ENDBRANCH   4  21
TORSDOF 16
ENDMDL
MODEL 4
REMARK VINA RESULT:      -6.5      2.624      4.518
REMARK  Name = 
REMARK  18 active torsions:
REMARK  status: ('A' for Active; 'I' for Inactive)
REMARK    1  A    between atoms: C_1  and  C_2
REMARK    2  A    between atoms: C_3  and  C_4
REMARK    3  A    between atoms: C_4  and  C_5
REMARK    4  A    between atoms: C_5  and  O_6
REMARK    5  A    between atoms: N_9  and  C_10
REMARK    6  A    between atoms: C_10  and  C_11
REMARK    7  A    between atoms: C_11  and  C_12
REMARK    8  A    between atoms: C_12  and  C_13
REMARK    9  A    between atoms: C_13  and  C_14
REMARK   10  A    between atoms: C_17  and  C_18
REMARK   11  A    between atoms: C_18  and  C_19
REMARK   12  A    between atoms: C_19  and  C_20
REMARK   13  A    between atoms: C_20  and  C_21
REMARK   14  A    between atoms: C_21  and  N_22
REMARK   15  A    between atoms: C_25  and  C_26
REMARK   16  A    between atoms: C_26  and  C_27
REMARK   17  A    between atoms: C_27  and  O_28
REMARK   18  A    between atoms: C_29  and  C_30
REMARK                            x       y       z     vdW  Elec       q    Type
REMARK                         _______ _______ _______ _____ _____    ______ ____
ROOT
ATOM      1  C   UNL     1       2.246   6.817  18.366  0.00  0.00    +0.000 A 
ATOM      2  C   UNL     1       1.717   5.663  17.778  0.00  0.00    +0.000 A 
ATOM      3  C   UNL     1       1.355   4.577  18.567  0.00  0.00    +0.000 A 
ATOM      4  C   UNL     1       1.549   4.613  19.954  0.00  0.00    +0.000 A 
ATOM      5  C   UNL     1       2.084   5.765  20.542  0.00  0.00    +0.000 A 
ATOM      6  C   UNL     1       2.430   6.859  19.753  0.00  0.00    +0.000 A 
ENDROOT
BRANCH   1   7
ATOM      7  C   UNL     1       2.638   7.989  17.519  0.00  0.00    +0.000 C 
BRANCH   7   8
ATOM      8  C   UNL     1       2.416   9.332  18.221  0.00  0.00    +0.000 C 
BRANCH   8   9
ATOM      9  C   UNL     1       0.925   9.520  18.470  0.00  0.00    +0.000 C 
BRANCH   9  10
ATOM     10  C   UNL     1       0.581   9.670  19.948  0.00  0.00    +0.000 C 
BRANCH  10  16
ATOM     11  C   UNL     1      -0.574  10.449  22.599  0.00  0.00    +0.000 C 
ATOM     12  C   UNL     1      -0.827  11.246  21.372  0.00  0.00    +0.000 A 
ATOM     13  C   UNL     1      -1.556  12.417  21.242  0.00  0.00    +0.000 A 
ATOM     14  S   UNL     1      -1.491  12.973  19.611  0.00  0.00    +0.000 S 
ATOM     15  C   UNL     1      -0.544  11.646  19.133  0.00  0.00    +0.000 A 
ATOM     16  N   UNL     1      -0.275  10.845  20.156  0.00  0.00    +0.000 N 
BRANCH  13  17
ATOM     17  C   UNL     1      -2.324  13.224  22.257  0.00  0.00    +0.000 C 
BRANCH  17  18
ATOM     18  C   UNL     1      -3.669  12.591  22.626  0.00  0.00    +0.000 C 
BRANCH  18  19
ATOM     19  O   UNL     1      -3.589  11.899  23.865  0.00  0.00    +0.000 OA
ATOM     20  H   UNL     1      -4.490  11.831  24.232  0.00  0.00    +0.000 HD
ENDBRANCH  18  19
ENDBRANCH  17  18
ENDBRANCH  13  17
ENDBRANCH  10  16
ENDBRANCH   9  10
ENDBRANCH   8   9
ENDBRANCH   7   8
ENDBRANCH   1   7
BRANCH   4  21
ATOM     21  C   UNL     1       1.172   3.437  20.806  0.00  0.00    +0.000 C 
BRANCH  21  22
ATOM     22  C   UNL     1       2.356   2.501  21.067  0.00  0.00    +0.000 C 
BRANCH  22  23
ATOM     23  C   UNL     1       3.157   2.327  19.786  0.00  0.00    +0.000 C 
BRANCH  23  24
ATOM     24  C   UNL     1       4.627   2.694  19.965  0.00  0.00    +0.000 C 
BRANCH  24  25
ATOM     25  N   UNL     1       5.016   3.740  19.015  0.00  0.00    +0.000 N 
ATOM     26  C   UNL     1       5.650   4.815  19.452  0.00  0.00    +0.000 A 
ATOM     27  S   UNL     1       5.975   5.902  18.188  0.00  0.00    +0.000 S 
ATOM     28  C   UNL     1       5.260   4.855  17.019  0.00  0.00    +0.000 A 
ATOM     29  C   UNL     1       4.796   3.705  17.638  0.00  0.00    +0.000 A 
ATOM     30  C   UNL     1       4.124   2.525  17.030  0.00  0.00    +0.000 C 
BRANCH  28  31
ATOM     31  C   UNL     1       5.206   5.299  15.580  0.00  0.00    +0.000 C 
BRANCH  31  32
ATOM     32  C   UNL     1       6.321   4.701  14.718  0.00  0.00    +0.000 C 
BRANCH  32  33
ATOM     33  O   UNL     1       7.514   5.473  14.802  0.00  0.00    +0.000 OA
ATOM     34  H   UNL     1       7.591   5.814  15.713  0.00  0.00    +0.000 HD
ENDBRANCH  32  33
ENDBRANCH  31  32
ENDBRANCH  28  31
ENDBRANCH  24  25
ENDBRANCH  23  24
ENDBRANCH  22  23
ENDBRANCH  21  22
ENDBRANCH   4  21
TORSDOF 16
ENDMDL
MODEL 5
REMARK VINA RESULT:      -6.5      3.002     10.762
REMARK  Name = 
REMARK  18 active torsions:
REMARK  status: ('A' for Active; 'I' for Inactive)
REMARK    1  A    between atoms: C_1  and  C_2
REMARK    2  A    between atoms: C_3  and  C_4
REMARK    3  A    between atoms: C_4  and  C_5
REMARK    4  A    between atoms: C_5  and  O_6
REMARK    5  A    between atoms: N_9  and  C_10
REMARK    6  A    between atoms: C_10  and  C_11
REMARK    7  A    between atoms: C_11  and  C_12
REMARK    8  A    between atoms: C_12  and  C_13
REMARK    9  A    between atoms: C_13  and  C_14
REMARK   10  A    between atoms: C_17  and  C_18
REMARK   11  A    between atoms: C_18  and  C_19
REMARK   12  A    between atoms: C_19  and  C_20
REMARK   13  A    between atoms: C_20  and  C_21
REMARK   14  A    between atoms: C_21  and  N_22
REMARK   15  A    between atoms: C_25  and  C_26
REMARK   16  A    between atoms: C_26  and  C_27
REMARK   17  A    between atoms: C_27  and  O_28
REMARK   18  A    between atoms: C_29  and  C_30
REMARK                            x       y       z     vdW  Elec       q    Type
REMARK                         _______ _______ _______ _____ _____    ______ ____
ROOT
ATOM      1  C   UNL     1       2.445   5.734  19.719  0.00  0.00    +0.000 A 
ATOM      2  C   UNL     1       1.751   6.201  20.841  0.00  0.00    +0.000 A 
ATOM      3  C   UNL     1       1.336   7.525  20.908  0.00  0.00    +0.000 A 
ATOM      4  C   UNL     1       1.639   8.416  19.870  0.00  0.00    +0.000 A 
ATOM      5  C   UNL     1       2.338   7.952  18.749  0.00  0.00    +0.000 A 
ATOM      6  C   UNL     1       2.737   6.620  18.675  0.00  0.00    +0.000 A 
ENDROOT
BRANCH   1   7
ATOM      7  C   UNL     1       2.894   4.307  19.643  0.00  0.00    +0.000 C 
BRANCH   7   8
ATOM      8  C   UNL     1       2.620   3.668  18.278  0.00  0.00    +0.000 C 
BRANCH   8   9
ATOM      9  C   UNL     1       3.930   3.141  17.707  0.00  0.00    +0.000 C 
BRANCH   9  10
ATOM     10  C   UNL     1       4.500   4.027  16.605  0.00  0.00    +0.000 C 
BRANCH  10  16
ATOM     11  C   UNL     1       5.151   6.748  15.538  0.00  0.00    +0.000 C 
ATOM     12  C   UNL     1       5.898   6.156  16.677  0.00  0.00    +0.000 A 
ATOM     13  C   UNL     1       6.926   6.719  17.415  0.00  0.00    +0.000 A 
ATOM     14  S   UNL     1       7.407   5.638  18.670  0.00  0.00    +0.000 S 
ATOM     15  C   UNL     1       6.280   4.467  18.178  0.00  0.00    +0.000 A 
ATOM     16  N   UNL     1       5.567   4.884  17.139  0.00  0.00    +0.000 N 
BRANCH  13  17
ATOM     17  C   UNL     1       7.617   8.053  17.298  0.00  0.00    +0.000 C 
BRANCH  17  18
ATOM     18  C   UNL     1       8.489   8.380  18.514  0.00  0.00    +0.000 C 
BRANCH  18  19
ATOM     19  O   UNL     1       8.659   9.783  18.663  0.00  0.00    +0.000 OA
ATOM     20  H   UNL     1       7.793  10.170  18.886  0.00  0.00    +0.000 HD
ENDBRANCH  18  19
ENDBRANCH  17  18
ENDBRANCH  13  17
ENDBRANCH  10  16
ENDBRANCH   9  10
ENDBRANCH   8   9
ENDBRANCH   7   8
ENDBRANCH   1   7
BRANCH   4  21
ATOM     21  C   UNL     1       1.204   9.851  19.946  0.00  0.00    +0.000 C 
BRANCH  21  22
ATOM     22  C   UNL     1       0.444  10.162  21.240  0.00  0.00    +0.000 C 
BRANCH  22  23
ATOM     23  C   UNL     1      -0.996  10.520  20.908  0.00  0.00    +0.000 C 
BRANCH  23  24
ATOM     24  C   UNL     1      -1.093  11.671  19.911  0.00  0.00    +0.000 C 
BRANCH  24  25
ATOM     25  N   UNL     1      -2.118  11.391  18.900  0.00  0.00    +0.000 N 
ATOM     26  C   UNL     1      -3.304  11.968  18.996  0.00  0.00    +0.000 A 
ATOM     27  S   UNL     1      -4.337  11.479  17.739  0.00  0.00    +0.000 S 
ATOM     28  C   UNL     1      -3.115  10.486  17.037  0.00  0.00    +0.000 A 
ATOM     29  C   UNL     1      -1.954  10.563  17.790  0.00  0.00    +0.000 A 
ATOM     30  C   UNL     1      -0.647   9.892  17.559  0.00  0.00    +0.000 C 
BRANCH  28  31
ATOM     31  C   UNL     1      -3.444   9.693  15.798  0.00  0.00    +0.000 C 
BRANCH  31  32
ATOM     32  C   UNL     1      -3.333  10.509  14.508  0.00  0.00    +0.000 C 
BRANCH  32  33
ATOM     33  O   UNL     1      -2.537   9.840  13.536  0.00  0.00    +0.000 OA
ATOM     34  H   UNL     1      -2.240  10.501  12.881  0.00  0.00    +0.000 HD
ENDBRANCH  32  33
ENDBRANCH  31  32
ENDBRANCH  28  31
ENDBRANCH  24  25
ENDBRANCH  23  24
ENDBRANCH  22  23
ENDBRANCH  21  22
ENDBRANCH   4  21
TORSDOF 16
ENDMDL
MODEL 6
REMARK VINA RESULT:      -6.5      6.760     11.304
REMARK  Name = 
REMARK  18 active torsions:
REMARK  status: ('A' for Active; 'I' for Inactive)
REMARK    1  A    between atoms: C_1  and  C_2
REMARK    2  A    between atoms: C_3  and  C_4
REMARK    3  A    between atoms: C_4  and  C_5
REMARK    4  A    between atoms: C_5  and  O_6
REMARK    5  A    between atoms: N_9  and  C_10
REMARK    6  A    between atoms: C_10  and  C_11
REMARK    7  A    between atoms: C_11  and  C_12
REMARK    8  A    between atoms: C_12  and  C_13
REMARK    9  A    between atoms: C_13  and  C_14
REMARK   10  A    between atoms: C_17  and  C_18
REMARK   11  A    between atoms: C_18  and  C_19
REMARK   12  A    between atoms: C_19  and  C_20
REMARK   13  A    between atoms: C_20  and  C_21
REMARK   14  A    between atoms: C_21  and  N_22
REMARK   15  A    between atoms: C_25  and  C_26
REMARK   16  A    between atoms: C_26  and  C_27
REMARK   17  A    between atoms: C_27  and  O_28
REMARK   18  A    between atoms: C_29  and  C_30
REMARK                            x       y       z     vdW  Elec       q    Type
REMARK                         _______ _______ _______ _____ _____    ______ ____
ROOT
ATOM      1  C   UNL     1       7.841   7.353  18.138  0.00  0.00    +0.000 A 
ATOM      2  C   UNL     1       7.051   7.835  17.089  0.00  0.00    +0.000 A 
ATOM      3  C   UNL     1       6.253   6.964  16.356  0.00  0.00    +0.000 A 
ATOM      4  C   UNL     1       6.258   5.592  16.636  0.00  0.00    +0.000 A 
ATOM      5  C   UNL     1       7.053   5.108  17.682  0.00  0.00    +0.000 A 
ATOM      6  C   UNL     1       7.838   5.984  18.427  0.00  0.00    +0.000 A 
ENDROOT
BRANCH   1   7
ATOM      7  C   UNL     1       8.704   8.288  18.930  0.00  0.00    +0.000 C 
BRANCH   7   8
ATOM      8  C   UNL     1       8.707   9.714  18.370  0.00  0.00    +0.000 C 
BRANCH   8   9
ATOM      9  C   UNL     1       9.303  10.653  19.410  0.00  0.00    +0.000 C 
BRANCH   9  10
ATOM     10  C   UNL     1      10.514  11.424  18.896  0.00  0.00    +0.000 C 
BRANCH  10  16
ATOM     11  C   UNL     1      11.591  13.182  16.725  0.00  0.00    +0.000 C 
ATOM     12  C   UNL     1      10.665  13.701  17.763  0.00  0.00    +0.000 A 
ATOM     13  C   UNL     1      10.147  14.979  17.891  0.00  0.00    +0.000 A 
ATOM     14  S   UNL     1       9.069  15.044  19.236  0.00  0.00    +0.000 S 
ATOM     15  C   UNL     1       9.350  13.414  19.618  0.00  0.00    +0.000 A 
ATOM     16  N   UNL     1      10.192  12.850  18.761  0.00  0.00    +0.000 N 
BRANCH  13  17
ATOM     17  C   UNL     1      10.360  16.223  17.068  0.00  0.00    +0.000 C 
BRANCH  17  18
ATOM     18  C   UNL     1      10.780  17.430  17.911  0.00  0.00    +0.000 C 
BRANCH  18  19
ATOM     19  O   UNL     1       9.859  18.503  17.771  0.00  0.00    +0.000 OA
ATOM     20  H   UNL     1       9.162  18.223  17.150  0.00  0.00    +0.000 HD
ENDBRANCH  18  19
ENDBRANCH  17  18
ENDBRANCH  13  17
ENDBRANCH  10  16
ENDBRANCH   9  10
ENDBRANCH   8   9
ENDBRANCH   7   8
ENDBRANCH   1   7
BRANCH   4  21
ATOM     21  C   UNL     1       5.407   4.648  15.837  0.00  0.00    +0.000 C 
BRANCH  21  22
ATOM     22  C   UNL     1       4.862   3.494  16.685  0.00  0.00    +0.000 C 
BRANCH  22  23
ATOM     23  C   UNL     1       3.502   3.877  17.247  0.00  0.00    +0.000 C 
BRANCH  23  24
ATOM     24  C   UNL     1       3.551   4.151  18.748  0.00  0.00    +0.000 C 
BRANCH  24  25
ATOM     25  N   UNL     1       2.929   5.443  19.055  0.00  0.00    +0.000 N 
ATOM     26  C   UNL     1       3.091   6.458  18.224  0.00  0.00    +0.000 A 
ATOM     27  S   UNL     1       2.312   7.857  18.792  0.00  0.00    +0.000 S 
ATOM     28  C   UNL     1       1.716   7.035  20.186  0.00  0.00    +0.000 A 
ATOM     29  C   UNL     1       2.135   5.713  20.169  0.00  0.00    +0.000 A 
ATOM     30  C   UNL     1       1.853   4.634  21.153  0.00  0.00    +0.000 C 
BRANCH  28  31
ATOM     31  C   UNL     1       0.899   7.804  21.191  0.00  0.00    +0.000 C 
BRANCH  31  32
ATOM     32  C   UNL     1       1.400   9.233  21.415  0.00  0.00    +0.000 C 
BRANCH  32  33
ATOM     33  O   UNL     1       1.512   9.535  22.802  0.00  0.00    +0.000 OA
ATOM     34  H   UNL     1       2.060   8.844  23.220  0.00  0.00    +0.000 HD
ENDBRANCH  32  33
ENDBRANCH  31  32
ENDBRANCH  28  31
ENDBRANCH  24  25
ENDBRANCH  23  24
ENDBRANCH  22  23
ENDBRANCH  21  22
ENDBRANCH   4  21
TORSDOF 16
ENDMDL
MODEL 7
REMARK VINA RESULT:      -6.4      5.936     11.390
REMARK  Name = 
REMARK  18 active torsions:
REMARK  status: ('A' for Active; 'I' for Inactive)
REMARK    1  A    between atoms: C_1  and  C_2
REMARK    2  A    between atoms: C_3  and  C_4
REMARK    3  A    between atoms: C_4  and  C_5
REMARK    4  A    between atoms: C_5  and  O_6
REMARK    5  A    between atoms: N_9  and  C_10
REMARK    6  A    between atoms: C_10  and  C_11
REMARK    7  A    between atoms: C_11  and  C_12
REMARK    8  A    between atoms: C_12  and  C_13
REMARK    9  A    between atoms: C_13  and  C_14
REMARK   10  A    between atoms: C_17  and  C_18
REMARK   11  A    between atoms: C_18  and  C_19
REMARK   12  A    between atoms: C_19  and  C_20
REMARK   13  A    between atoms: C_20  and  C_21
REMARK   14  A    between atoms: C_21  and  N_22
REMARK   15  A    between atoms: C_25  and  C_26
REMARK   16  A    between atoms: C_26  and  C_27
REMARK   17  A    between atoms: C_27  and  O_28
REMARK   18  A    between atoms: C_29  and  C_30
REMARK                            x       y       z     vdW  Elec       q    Type
REMARK                         _______ _______ _______ _____ _____    ______ ____
ROOT
ATOM      1  C   UNL     1       6.248   6.436  17.797  0.00  0.00    +0.000 A 
ATOM      2  C   UNL     1       6.179   5.550  18.877  0.00  0.00    +0.000 A 
ATOM      3  C   UNL     1       4.955   5.028  19.279  0.00  0.00    +0.000 A 
ATOM      4  C   UNL     1       3.774   5.412  18.629  0.00  0.00    +0.000 A 
ATOM      5  C   UNL     1       3.842   6.302  17.552  0.00  0.00    +0.000 A 
ATOM      6  C   UNL     1       5.071   6.810  17.139  0.00  0.00    +0.000 A 
ENDROOT
BRANCH   1   7
ATOM      7  C   UNL     1       7.566   7.001  17.361  0.00  0.00    +0.000 C 
BRANCH   7   8
ATOM      8  C   UNL     1       8.112   8.055  18.329  0.00  0.00    +0.000 C 
BRANCH   8   9
ATOM      9  C   UNL     1       8.457   9.315  17.545  0.00  0.00    +0.000 C 
BRANCH   9  10
ATOM     10  C   UNL     1       8.257  10.594  18.351  0.00  0.00    +0.000 C 
BRANCH  10  16
ATOM     11  C   UNL     1       7.885  13.444  17.512  0.00  0.00    +0.000 C 
ATOM     12  C   UNL     1       9.235  12.862  17.724  0.00  0.00    +0.000 A 
ATOM     13  C   UNL     1      10.467  13.485  17.613  0.00  0.00    +0.000 A 
ATOM     14  S   UNL     1      11.724  12.379  18.024  0.00  0.00    +0.000 S 
ATOM     15  C   UNL     1      10.614  11.123  18.296  0.00  0.00    +0.000 A 
ATOM     16  N   UNL     1       9.364  11.528  18.108  0.00  0.00    +0.000 N 
BRANCH  13  17
ATOM     17  C   UNL     1      10.833  14.897  17.233  0.00  0.00    +0.000 C 
BRANCH  17  18
ATOM     18  C   UNL     1      10.452  15.920  18.306  0.00  0.00    +0.000 C 
BRANCH  18  19
ATOM     19  O   UNL     1      10.795  15.456  19.605  0.00  0.00    +0.000 OA
ATOM     20  H   UNL     1      10.510  14.527  19.679  0.00  0.00    +0.000 HD
ENDBRANCH  18  19
ENDBRANCH  17  18
ENDBRANCH  13  17
ENDBRANCH  10  16
ENDBRANCH   9  10
ENDBRANCH   8   9
ENDBRANCH   7   8
ENDBRANCH   1   7
BRANCH   4  21
ATOM     21  C   UNL     1       2.449   4.860  19.070  0.00  0.00    +0.000 C 
BRANCH  21  22
ATOM     22  C   UNL     1       2.134   5.197  20.531  0.00  0.00    +0.000 C 
BRANCH  22  23
ATOM     23  C   UNL     1       1.238   6.426  20.585  0.00  0.00    +0.000 C 
BRANCH  23  24
ATOM     24  C   UNL     1       2.027   7.725  20.458  0.00  0.00    +0.000 C 
BRANCH  24  25
ATOM     25  N   UNL     1       1.118   8.873  20.368  0.00  0.00    +0.000 N 
ATOM     26  C   UNL     1       0.416   9.232  21.429  0.00  0.00    +0.000 A 
ATOM     27  S   UNL     1      -0.587  10.561  21.089  0.00  0.00    +0.000 S 
ATOM     28  C   UNL     1      -0.012  10.659  19.466  0.00  0.00    +0.000 A 
ATOM     29  C   UNL     1       0.930   9.668  19.239  0.00  0.00    +0.000 A 
ATOM     30  C   UNL     1       1.699   9.380  17.998  0.00  0.00    +0.000 C 
BRANCH  28  31
ATOM     31  C   UNL     1      -0.584  11.714  18.554  0.00  0.00    +0.000 C 
BRANCH  31  32
ATOM     32  C   UNL     1      -1.850  11.261  17.822  0.00  0.00    +0.000 C 
BRANCH  32  33
ATOM     33  O   UNL     1      -1.945  11.852  16.530  0.00  0.00    +0.000 OA
ATOM     34  H   UNL     1      -1.170  12.433  16.405  0.00  0.00    +0.000 HD
ENDBRANCH  32  33
ENDBRANCH  31  32
ENDBRANCH  28  31
ENDBRANCH  24  25
ENDBRANCH  23  24
ENDBRANCH  22  23
ENDBRANCH  21  22
ENDBRANCH   4  21
TORSDOF 16
ENDMDL
MODEL 8
REMARK VINA RESULT:      -6.3      7.306     11.756
REMARK  Name = 
REMARK  18 active torsions:
REMARK  status: ('A' for Active; 'I' for Inactive)
REMARK    1  A    between atoms: C_1  and  C_2
REMARK    2  A    between atoms: C_3  and  C_4
REMARK    3  A    between atoms: C_4  and  C_5
REMARK    4  A    between atoms: C_5  and  O_6
REMARK    5  A    between atoms: N_9  and  C_10
REMARK    6  A    between atoms: C_10  and  C_11
REMARK    7  A    between atoms: C_11  and  C_12
REMARK    8  A    between atoms: C_12  and  C_13
REMARK    9  A    between atoms: C_13  and  C_14
REMARK   10  A    between atoms: C_17  and  C_18
REMARK   11  A    between atoms: C_18  and  C_19
REMARK   12  A    between atoms: C_19  and  C_20
REMARK   13  A    between atoms: C_20  and  C_21
REMARK   14  A    between atoms: C_21  and  N_22
REMARK   15  A    between atoms: C_25  and  C_26
REMARK   16  A    between atoms: C_26  and  C_27
REMARK   17  A    between atoms: C_27  and  O_28
REMARK   18  A    between atoms: C_29  and  C_30
REMARK                            x       y       z     vdW  Elec       q    Type
REMARK                         _______ _______ _______ _____ _____    ______ ____
ROOT
ATOM      1  C   UNL     1       8.890  10.071  18.407  0.00  0.00    +0.000 A 
ATOM      2  C   UNL     1       9.662  10.860  17.548  0.00  0.00    +0.000 A 
ATOM      3  C   UNL     1      10.622  11.724  18.063  0.00  0.00    +0.000 A 
ATOM      4  C   UNL     1      10.800  11.840  19.448  0.00  0.00    +0.000 A 
ATOM      5  C   UNL     1      10.024  11.055  20.308  0.00  0.00    +0.000 A 
ATOM      6  C   UNL     1       9.076  10.177  19.790  0.00  0.00    +0.000 A 
ENDROOT
BRANCH   1   7
ATOM      7  C   UNL     1       7.854   9.139  17.856  0.00  0.00    +0.000 C 
BRANCH   7   8
ATOM      8  C   UNL     1       8.039   7.695  18.331  0.00  0.00    +0.000 C 
BRANCH   8   9
ATOM      9  C   UNL     1       7.437   6.752  17.297  0.00  0.00    +0.000 C 
BRANCH   9  10
ATOM     10  C   UNL     1       5.938   6.952  17.108  0.00  0.00    +0.000 C 
BRANCH  10  16
ATOM     11  C   UNL     1       5.400   4.189  16.088  0.00  0.00    +0.000 C 
ATOM     12  C   UNL     1       4.923   4.636  17.421  0.00  0.00    +0.000 A 
ATOM     13  C   UNL     1       4.227   3.909  18.373  0.00  0.00    +0.000 A 
ATOM     14  S   UNL     1       3.966   4.876  19.776  0.00  0.00    +0.000 S 
ATOM     15  C   UNL     1       4.740   6.214  19.072  0.00  0.00    +0.000 A 
ATOM     16  N   UNL     1       5.189   5.933  17.856  0.00  0.00    +0.000 N 
BRANCH  13  17
ATOM     17  C   UNL     1       3.722   2.489  18.363  0.00  0.00    +0.000 C 
BRANCH  17  18
ATOM     18  C   UNL     1       2.354   2.349  17.688  0.00  0.00    +0.000 C 
BRANCH  18  19
ATOM     19  O   UNL     1       1.500   1.489  18.430  0.00  0.00    +0.000 OA
ATOM     20  H   UNL     1       0.864   2.043  18.918  0.00  0.00    +0.000 HD
ENDBRANCH  18  19
ENDBRANCH  17  18
ENDBRANCH  13  17
ENDBRANCH  10  16
ENDBRANCH   9  10
ENDBRANCH   8   9
ENDBRANCH   7   8
ENDBRANCH   1   7
BRANCH   4  21
ATOM     21  C   UNL     1      11.827  12.782  20.007  0.00  0.00    +0.000 C 
BRANCH  21  22
ATOM     22  C   UNL     1      11.653  14.212  19.484  0.00  0.00    +0.000 C 
BRANCH  22  23
ATOM     23  C   UNL     1      10.352  14.791  20.018  0.00  0.00    +0.000 C 
BRANCH  23  24
ATOM     24  C   UNL     1       9.407  15.224  18.900  0.00  0.00    +0.000 C 
BRANCH  24  25
ATOM     25  N   UNL     1       8.059  15.457  19.427  0.00  0.00    +0.000 N 
ATOM     26  C   UNL     1       7.901  16.211  20.502  0.00  0.00    +0.000 A 
ATOM     27  S   UNL     1       6.266  16.321  20.949  0.00  0.00    +0.000 S 
ATOM     28  C   UNL     1       5.772  15.342  19.618  0.00  0.00    +0.000 A 
ATOM     29  C   UNL     1       6.879  14.964  18.874  0.00  0.00    +0.000 A 
ATOM     30  C   UNL     1       6.933  14.135  17.640  0.00  0.00    +0.000 C 
BRANCH  28  31
ATOM     31  C   UNL     1       4.309  15.018  19.456  0.00  0.00    +0.000 C 
BRANCH  31  32
ATOM     32  C   UNL     1       3.630  15.818  18.341  0.00  0.00    +0.000 C 
BRANCH  32  33
ATOM     33  O   UNL     1       3.477  15.038  17.160  0.00  0.00    +0.000 OA
ATOM     34  H   UNL     1       4.364  14.869  16.791  0.00  0.00    +0.000 HD
ENDBRANCH  32  33
ENDBRANCH  31  32
ENDBRANCH  28  31
ENDBRANCH  24  25
ENDBRANCH  23  24
ENDBRANCH  22  23
ENDBRANCH  21  22
ENDBRANCH   4  21
TORSDOF 16
ENDMDL
MODEL 9
REMARK VINA RESULT:      -6.3      7.694     12.081
REMARK  Name = 
REMARK  18 active torsions:
REMARK  status: ('A' for Active; 'I' for Inactive)
REMARK    1  A    between atoms: C_1  and  C_2
REMARK    2  A    between atoms: C_3  and  C_4
REMARK    3  A    between atoms: C_4  and  C_5
REMARK    4  A    between atoms: C_5  and  O_6
REMARK    5  A    between atoms: N_9  and  C_10
REMARK    6  A    between atoms: C_10  and  C_11
REMARK    7  A    between atoms: C_11  and  C_12
REMARK    8  A    between atoms: C_12  and  C_13
REMARK    9  A    between atoms: C_13  and  C_14
REMARK   10  A    between atoms: C_17  and  C_18
REMARK   11  A    between atoms: C_18  and  C_19
REMARK   12  A    between atoms: C_19  and  C_20
REMARK   13  A    between atoms: C_20  and  C_21
REMARK   14  A    between atoms: C_21  and  N_22
REMARK   15  A    between atoms: C_25  and  C_26
REMARK   16  A    between atoms: C_26  and  C_27
REMARK   17  A    between atoms: C_27  and  O_28
REMARK   18  A    between atoms: C_29  and  C_30
REMARK                            x       y       z     vdW  Elec       q    Type
REMARK                         _______ _______ _______ _____ _____    ______ ____
ROOT
ATOM      1  C   UNL     1       9.356  10.678  18.656  0.00  0.00    +0.000 A 
ATOM      2  C   UNL     1      10.623  11.030  19.133  0.00  0.00    +0.000 A 
ATOM      3  C   UNL     1      11.141  12.295  18.883  0.00  0.00    +0.000 A 
ATOM      4  C   UNL     1      10.415  13.219  18.120  0.00  0.00    +0.000 A 
ATOM      5  C   UNL     1       9.149  12.867  17.638  0.00  0.00    +0.000 A 
ATOM      6  C   UNL     1       8.624  11.605  17.905  0.00  0.00    +0.000 A 
ENDROOT
BRANCH   1   7
ATOM      7  C   UNL     1       8.795   9.315  18.924  0.00  0.00    +0.000 C 
BRANCH   7   8
ATOM      8  C   UNL     1       7.992   8.759  17.744  0.00  0.00    +0.000 C 
BRANCH   8   9
ATOM      9  C   UNL     1       7.753   7.271  17.965  0.00  0.00    +0.000 C 
BRANCH   9  10
ATOM     10  C   UNL     1       6.870   6.642  16.893  0.00  0.00    +0.000 C 
BRANCH  10  16
ATOM     11  C   UNL     1       5.377   4.549  15.358  0.00  0.00    +0.000 C 
ATOM     12  C   UNL     1       5.213   4.707  16.825  0.00  0.00    +0.000 A 
ATOM     13  C   UNL     1       4.430   3.958  17.688  0.00  0.00    +0.000 A 
ATOM     14  S   UNL     1       4.643   4.514  19.306  0.00  0.00    +0.000 S 
ATOM     15  C   UNL     1       5.720   5.730  18.812  0.00  0.00    +0.000 A 
ATOM     16  N   UNL     1       5.923   5.698  17.501  0.00  0.00    +0.000 N 
BRANCH  13  17
ATOM     17  C   UNL     1       3.503   2.798  17.432  0.00  0.00    +0.000 C 
BRANCH  17  18
ATOM     18  C   UNL     1       2.118   2.995  18.055  0.00  0.00    +0.000 C 
BRANCH  18  19
ATOM     19  O   UNL     1       1.373   3.981  17.354  0.00  0.00    +0.000 OA
ATOM     20  H   UNL     1       0.691   3.526  16.826  0.00  0.00    +0.000 HD
ENDBRANCH  18  19
ENDBRANCH  17  18
ENDBRANCH  13  17
ENDBRANCH  10  16
ENDBRANCH   9  10
ENDBRANCH   8   9
ENDBRANCH   7   8
ENDBRANCH   1   7
BRANCH   4  21
ATOM     21  C   UNL     1      10.977  14.582  17.837  0.00  0.00    +0.000 C 
BRANCH  21  22
ATOM     22  C   UNL     1      11.467  15.286  19.106  0.00  0.00    +0.000 C 
BRANCH  22  23
ATOM     23  C   UNL     1      10.275  15.632  19.986  0.00  0.00    +0.000 C 
BRANCH  23  24
ATOM     24  C   UNL     1      10.470  15.181  21.431  0.00  0.00    +0.000 C 
BRANCH  24  25
ATOM     25  N   UNL     1       9.314  14.404  21.888  0.00  0.00    +0.000 N 
ATOM     26  C   UNL     1       9.387  13.084  21.920  0.00  0.00    +0.000 A 
ATOM     27  S   UNL     1       7.930  12.393  22.453  0.00  0.00    +0.000 S 
ATOM     28  C   UNL     1       7.204  13.942  22.674  0.00  0.00    +0.000 A 
ATOM     29  C   UNL     1       8.105  14.938  22.332  0.00  0.00    +0.000 A 
ATOM     30  C   UNL     1       7.924  16.414  22.376  0.00  0.00    +0.000 C 
BRANCH  28  31
ATOM     31  C   UNL     1       5.776  14.015  23.149  0.00  0.00    +0.000 C 
BRANCH  31  32
ATOM     32  C   UNL     1       4.800  14.487  22.068  0.00  0.00    +0.000 C 
BRANCH  32  33
ATOM     33  O   UNL     1       3.447  14.324  22.480  0.00  0.00    +0.000 OA
ATOM     34  H   UNL     1       3.002  13.743  21.834  0.00  0.00    +0.000 HD
ENDBRANCH  32  33
ENDBRANCH  31  32
ENDBRANCH  28  31
ENDBRANCH  24  25
ENDBRANCH  23  24
ENDBRANCH  22  23
ENDBRANCH  21  22
ENDBRANCH   4  21
TORSDOF 16
ENDMDL
