MODEL 1
REMARK VINA RESULT:      -6.0      0.000      0.000
REMARK  Name = 
REMARK  11 active torsions:
REMARK  status: ('A' for Active; 'I' for Inactive)
REMARK    1  A    between atoms: C_1  and  C_2
REMARK    2  A    between atoms: C_4  and  C_5
REMARK    3  A    between atoms: C_8  and  C_9
REMARK    4  A    between atoms: C_10  and  O_11
REMARK    5  A    between atoms: O_11  and  C_12
REMARK    6  A    between atoms: C_12  and  C_13
REMARK    7  A    between atoms: C_13  and  C_14
REMARK    8  A    between atoms: C_14  and  C_15
REMARK    9  A    between atoms: C_15  and  C_16
REMARK   10  A    between atoms: C_15  and  C_17
REMARK   11  A    between atoms: C_15  and  C_18
REMARK                            x       y       z     vdW  Elec       q    Type
REMARK                         _______ _______ _______ _____ _____    ______ ____
ROOT
ATOM      1  C   UNL     1       3.624   3.131  16.723  0.00  0.00    +0.000 C 
ATOM      2  C   UNL     1       4.824   3.963  16.352  0.00  0.00    +0.000 A 
ATOM      3  C   UNL     1       5.280   3.801  15.027  0.00  0.00    +0.000 A 
ATOM      4  C   UNL     1       6.370   4.513  14.530  0.00  0.00    +0.000 A 
ATOM      5  C   UNL     1       7.032   5.415  15.356  0.00  0.00    +0.000 A 
ATOM      6  C   UNL     1       6.605   5.610  16.677  0.00  0.00    +0.000 A 
ATOM      7  C   UNL     1       7.367   6.589  17.534  0.00  0.00    +0.000 C 
ATOM      8  C   UNL     1       5.501   4.879  17.189  0.00  0.00    +0.000 A 
ENDROOT
BRANCH   4   9
ATOM      9  C   UNL     1       6.804   4.308  13.177  0.00  0.00    +0.000 C 
ATOM     10  N   UNL     1       7.160   4.141  12.084  0.00  0.00    +0.000 NA
ENDBRANCH   4   9
BRANCH   8  11
ATOM     11  O   UNL     1       5.190   5.204  18.487  0.00  0.00    +0.000 OA
BRANCH  11  12
ATOM     12  C   UNL     1       3.986   5.918  18.734  0.00  0.00    +0.000 C 
BRANCH  12  13
ATOM     13  C   UNL     1       3.281   5.376  19.979  0.00  0.00    +0.000 C 
BRANCH  13  14
ATOM     14  C   UNL     1       2.086   4.476  19.626  0.00  0.00    +0.000 C 
BRANCH  14  15
ATOM     15  C   UNL     1       2.164   3.026  20.166  0.00  0.00    +0.000 C 
ATOM     16  C   UNL     1       1.612   2.998  21.602  0.00  0.00    +0.000 C 
ATOM     17  C   UNL     1       1.344   2.051  19.307  0.00  0.00    +0.000 C 
BRANCH  15  18
ATOM     18  C   UNL     1       3.576   2.580  20.204  0.00  0.00    +0.000 C 
ATOM     19  N   UNL     1       4.681   2.239  20.227  0.00  0.00    +0.000 NA
ENDBRANCH  15  18
ENDBRANCH  14  15
ENDBRANCH  13  14
ENDBRANCH  12  13
ENDBRANCH  11  12
ENDBRANCH   8  11
TORSDOF 7
ENDMDL
MODEL 2
REMARK VINA RESULT:      -5.9      2.989      6.217
REMARK  Name = 
REMARK  11 active torsions:
REMARK  status: ('A' for Active; 'I' for Inactive)
REMARK    1  A    between atoms: C_1  and  C_2
REMARK    2  A    between atoms: C_4  and  C_5
REMARK    3  A    between atoms: C_8  and  C_9
REMARK    4  A    between atoms: C_10  and  O_11
REMARK    5  A    between atoms: O_11  and  C_12
REMARK    6  A    between atoms: C_12  and  C_13
REMARK    7  A    between atoms: C_13  and  C_14
REMARK    8  A    between atoms: C_14  and  C_15
REMARK    9  A    between atoms: C_15  and  C_16
REMARK   10  A    between atoms: C_15  and  C_17
REMARK   11  A    between atoms: C_15  and  C_18
REMARK                            x       y       z     vdW  Elec       q    Type
REMARK                         _______ _______ _______ _____ _____    ______ ____
ROOT
ATOM      1  C   UNL     1       2.598   3.606  16.870  0.00  0.00    +0.000 C 
ATOM      2  C   UNL     1       2.299   4.268  18.190  0.00  0.00    +0.000 A 
ATOM      3  C   UNL     1       2.045   3.384  19.260  0.00  0.00    +0.000 A 
ATOM      4  C   UNL     1       1.769   3.845  20.546  0.00  0.00    +0.000 A 
ATOM      5  C   UNL     1       1.744   5.214  20.793  0.00  0.00    +0.000 A 
ATOM      6  C   UNL     1       1.999   6.124  19.757  0.00  0.00    +0.000 A 
ATOM      7  C   UNL     1       1.945   7.597  20.075  0.00  0.00    +0.000 C 
ATOM      8  C   UNL     1       2.271   5.658  18.444  0.00  0.00    +0.000 A 
ENDROOT
BRANCH   4   9
ATOM      9  C   UNL     1       1.507   2.909  21.602  0.00  0.00    +0.000 C 
ATOM     10  N   UNL     1       1.299   2.149  22.456  0.00  0.00    +0.000 NA
ENDBRANCH   4   9
BRANCH   8  11
ATOM     11  O   UNL     1       2.527   6.671  17.552  0.00  0.00    +0.000 OA
BRANCH  11  12
ATOM     12  C   UNL     1       3.766   7.360  17.651  0.00  0.00    +0.000 C 
BRANCH  12  13
ATOM     13  C   UNL     1       4.917   6.477  17.164  0.00  0.00    +0.000 C 
BRANCH  13  14
ATOM     14  C   UNL     1       5.635   5.765  18.321  0.00  0.00    +0.000 C 
BRANCH  14  15
ATOM     15  C   UNL     1       7.183   5.766  18.243  0.00  0.00    +0.000 C 
ATOM     16  C   UNL     1       7.635   4.637  17.300  0.00  0.00    +0.000 C 
ATOM     17  C   UNL     1       7.727   7.099  17.708  0.00  0.00    +0.000 C 
BRANCH  15  18
ATOM     18  C   UNL     1       7.753   5.504  19.586  0.00  0.00    +0.000 C 
ATOM     19  N   UNL     1       8.188   5.295  20.636  0.00  0.00    +0.000 NA
ENDBRANCH  15  18
ENDBRANCH  14  15
ENDBRANCH  13  14
ENDBRANCH  12  13
ENDBRANCH  11  12
ENDBRANCH   8  11
TORSDOF 7
ENDMDL
MODEL 3
REMARK VINA RESULT:      -5.8      1.275      1.562
REMARK  Name = 
REMARK  11 active torsions:
REMARK  status: ('A' for Active; 'I' for Inactive)
REMARK    1  A    between atoms: C_1  and  C_2
REMARK    2  A    between atoms: C_4  and  C_5
REMARK    3  A    between atoms: C_8  and  C_9
REMARK    4  A    between atoms: C_10  and  O_11
REMARK    5  A    between atoms: O_11  and  C_12
REMARK    6  A    between atoms: C_12  and  C_13
REMARK    7  A    between atoms: C_13  and  C_14
REMARK    8  A    between atoms: C_14  and  C_15
REMARK    9  A    between atoms: C_15  and  C_16
REMARK   10  A    between atoms: C_15  and  C_17
REMARK   11  A    between atoms: C_15  and  C_18
REMARK                            x       y       z     vdW  Elec       q    Type
REMARK                         _______ _______ _______ _____ _____    ______ ____
ROOT
ATOM      1  C   UNL     1       3.297   3.813  16.718  0.00  0.00    +0.000 C 
ATOM      2  C   UNL     1       4.616   4.395  16.281  0.00  0.00    +0.000 A 
ATOM      3  C   UNL     1       5.052   4.000  14.999  0.00  0.00    +0.000 A 
ATOM      4  C   UNL     1       6.245   4.468  14.450  0.00  0.00    +0.000 A 
ATOM      5  C   UNL     1       7.034   5.351  15.178  0.00  0.00    +0.000 A 
ATOM      6  C   UNL     1       6.632   5.773  16.454  0.00  0.00    +0.000 A 
ATOM      7  C   UNL     1       7.532   6.720  17.206  0.00  0.00    +0.000 C 
ATOM      8  C   UNL     1       5.423   5.291  17.020  0.00  0.00    +0.000 A 
ENDROOT
BRANCH   4   9
ATOM      9  C   UNL     1       6.652   4.032  13.144  0.00  0.00    +0.000 C 
ATOM     10  N   UNL     1       6.985   3.681  12.088  0.00  0.00    +0.000 NA
ENDBRANCH   4   9
BRANCH   8  11
ATOM     11  O   UNL     1       5.157   5.819  18.259  0.00  0.00    +0.000 OA
BRANCH  11  12
ATOM     12  C   UNL     1       5.104   4.935  19.372  0.00  0.00    +0.000 C 
BRANCH  12  13
ATOM     13  C   UNL     1       3.701   4.921  19.985  0.00  0.00    +0.000 C 
BRANCH  13  14
ATOM     14  C   UNL     1       3.146   3.496  20.136  0.00  0.00    +0.000 C 
BRANCH  14  15
ATOM     15  C   UNL     1       1.625   3.403  20.419  0.00  0.00    +0.000 C 
ATOM     16  C   UNL     1       1.408   2.618  21.725  0.00  0.00    +0.000 C 
ATOM     17  C   UNL     1       0.986   4.791  20.571  0.00  0.00    +0.000 C 
BRANCH  15  18
ATOM     18  C   UNL     1       0.954   2.669  19.321  0.00  0.00    +0.000 C 
ATOM     19  N   UNL     1       0.422   2.103  18.464  0.00  0.00    +0.000 NA
ENDBRANCH  15  18
ENDBRANCH  14  15
ENDBRANCH  13  14
ENDBRANCH  12  13
ENDBRANCH  11  12
ENDBRANCH   8  11
TORSDOF 7
ENDMDL
MODEL 4
REMARK VINA RESULT:      -5.8      0.639      2.086
REMARK  Name = 
REMARK  11 active torsions:
REMARK  status: ('A' for Active; 'I' for Inactive)
REMARK    1  A    between atoms: C_1  and  C_2
REMARK    2  A    between atoms: C_4  and  C_5
REMARK    3  A    between atoms: C_8  and  C_9
REMARK    4  A    between atoms: C_10  and  O_11
REMARK    5  A    between atoms: O_11  and  C_12
REMARK    6  A    between atoms: C_12  and  C_13
REMARK    7  A    between atoms: C_13  and  C_14
REMARK    8  A    between atoms: C_14  and  C_15
REMARK    9  A    between atoms: C_15  and  C_16
REMARK   10  A    between atoms: C_15  and  C_17
REMARK   11  A    between atoms: C_15  and  C_18
REMARK                            x       y       z     vdW  Elec       q    Type
REMARK                         _______ _______ _______ _____ _____    ______ ____
ROOT
ATOM      1  C   UNL     1       7.523   6.374  18.501  0.00  0.00    +0.000 C 
ATOM      2  C   UNL     1       6.719   5.649  17.453  0.00  0.00    +0.000 A 
ATOM      3  C   UNL     1       7.273   5.663  16.156  0.00  0.00    +0.000 A 
ATOM      4  C   UNL     1       6.653   5.022  15.084  0.00  0.00    +0.000 A 
ATOM      5  C   UNL     1       5.456   4.345  15.289  0.00  0.00    +0.000 A 
ATOM      6  C   UNL     1       4.878   4.303  16.566  0.00  0.00    +0.000 A 
ATOM      7  C   UNL     1       3.572   3.568  16.731  0.00  0.00    +0.000 C 
ATOM      8  C   UNL     1       5.500   4.963  17.658  0.00  0.00    +0.000 A 
ENDROOT
BRANCH   4   9
ATOM      9  C   UNL     1       7.250   5.071  13.779  0.00  0.00    +0.000 C 
ATOM     10  N   UNL     1       7.729   5.112  12.721  0.00  0.00    +0.000 NA
ENDBRANCH   4   9
BRANCH   8  11
ATOM     11  O   UNL     1       4.826   4.804  18.843  0.00  0.00    +0.000 OA
BRANCH  11  12
ATOM     12  C   UNL     1       3.958   5.846  19.271  0.00  0.00    +0.000 C 
BRANCH  12  13
ATOM     13  C   UNL     1       2.907   5.309  20.246  0.00  0.00    +0.000 C 
BRANCH  13  14
ATOM     14  C   UNL     1       1.976   4.279  19.588  0.00  0.00    +0.000 C 
BRANCH  14  15
ATOM     15  C   UNL     1       2.057   2.844  20.168  0.00  0.00    +0.000 C 
ATOM     16  C   UNL     1       1.421   2.836  21.569  0.00  0.00    +0.000 C 
ATOM     17  C   UNL     1       1.313   1.829  19.287  0.00  0.00    +0.000 C 
BRANCH  15  18
ATOM     18  C   UNL     1       3.475   2.436  20.300  0.00  0.00    +0.000 C 
ATOM     19  N   UNL     1       4.584   2.127  20.409  0.00  0.00    +0.000 NA
ENDBRANCH  15  18
ENDBRANCH  14  15
ENDBRANCH  13  14
ENDBRANCH  12  13
ENDBRANCH  11  12
ENDBRANCH   8  11
TORSDOF 7
ENDMDL
MODEL 5
REMARK VINA RESULT:      -5.7      1.958      6.459
REMARK  Name = 
REMARK  11 active torsions:
REMARK  status: ('A' for Active; 'I' for Inactive)
REMARK    1  A    between atoms: C_1  and  C_2
REMARK    2  A    between atoms: C_4  and  C_5
REMARK    3  A    between atoms: C_8  and  C_9
REMARK    4  A    between atoms: C_10  and  O_11
REMARK    5  A    between atoms: O_11  and  C_12
REMARK    6  A    between atoms: C_12  and  C_13
REMARK    7  A    between atoms: C_13  and  C_14
REMARK    8  A    between atoms: C_14  and  C_15
REMARK    9  A    between atoms: C_15  and  C_16
REMARK   10  A    between atoms: C_15  and  C_17
REMARK   11  A    between atoms: C_15  and  C_18
REMARK                            x       y       z     vdW  Elec       q    Type
REMARK                         _______ _______ _______ _____ _____    ______ ____
ROOT
ATOM      1  C   UNL     1       2.196   7.273  19.579  0.00  0.00    +0.000 C 
ATOM      2  C   UNL     1       2.446   5.792  19.462  0.00  0.00    +0.000 A 
ATOM      3  C   UNL     1       1.920   5.010  20.512  0.00  0.00    +0.000 A 
ATOM      4  C   UNL     1       2.055   3.623  20.537  0.00  0.00    +0.000 A 
ATOM      5  C   UNL     1       2.724   2.981  19.500  0.00  0.00    +0.000 A 
ATOM      6  C   UNL     1       3.255   3.723  18.435  0.00  0.00    +0.000 A 
ATOM      7  C   UNL     1       3.984   2.980  17.344  0.00  0.00    +0.000 C 
ATOM      8  C   UNL     1       3.128   5.137  18.411  0.00  0.00    +0.000 A 
ENDROOT
BRANCH   4   9
ATOM      9  C   UNL     1       1.511   2.869  21.630  0.00  0.00    +0.000 C 
ATOM     10  N   UNL     1       1.067   2.263  22.517  0.00  0.00    +0.000 NA
ENDBRANCH   4   9
BRANCH   8  11
ATOM     11  O   UNL     1       3.674   5.711  17.290  0.00  0.00    +0.000 OA
BRANCH  11  12
ATOM     12  C   UNL     1       4.414   6.916  17.442  0.00  0.00    +0.000 C 
BRANCH  12  13
ATOM     13  C   UNL     1       5.706   6.864  16.623  0.00  0.00    +0.000 C 
BRANCH  13  14
ATOM     14  C   UNL     1       5.513   6.152  15.275  0.00  0.00    +0.000 C 
BRANCH  14  15
ATOM     15  C   UNL     1       6.452   4.946  15.020  0.00  0.00    +0.000 C 
ATOM     16  C   UNL     1       5.599   3.717  14.658  0.00  0.00    +0.000 C 
ATOM     17  C   UNL     1       7.432   5.218  13.869  0.00  0.00    +0.000 C 
BRANCH  15  18
ATOM     18  C   UNL     1       7.214   4.634  16.252  0.00  0.00    +0.000 C 
ATOM     19  N   UNL     1       7.810   4.401  17.215  0.00  0.00    +0.000 NA
ENDBRANCH  15  18
ENDBRANCH  14  15
ENDBRANCH  13  14
ENDBRANCH  12  13
ENDBRANCH  11  12
ENDBRANCH   8  11
TORSDOF 7
ENDMDL
MODEL 6
REMARK VINA RESULT:      -5.6      3.831      7.375
REMARK  Name = 
REMARK  11 active torsions:
REMARK  status: ('A' for Active; 'I' for Inactive)
REMARK    1  A    between atoms: C_1  and  C_2
REMARK    2  A    between atoms: C_4  and  C_5
REMARK    3  A    between atoms: C_8  and  C_9
REMARK    4  A    between atoms: C_10  and  O_11
REMARK    5  A    between atoms: O_11  and  C_12
REMARK    6  A    between atoms: C_12  and  C_13
REMARK    7  A    between atoms: C_13  and  C_14
REMARK    8  A    between atoms: C_14  and  C_15
REMARK    9  A    between atoms: C_15  and  C_16
REMARK   10  A    between atoms: C_15  and  C_17
REMARK   11  A    between atoms: C_15  and  C_18
REMARK                            x       y       z     vdW  Elec       q    Type
REMARK                         _______ _______ _______ _____ _____    ______ ____
ROOT
ATOM      1  C   UNL     1       2.251   5.559  20.271  0.00  0.00    +0.000 C 
ATOM      2  C   UNL     1       1.863   7.008  20.126  0.00  0.00    +0.000 A 
ATOM      3  C   UNL     1       1.315   7.601  21.283  0.00  0.00    +0.000 A 
ATOM      4  C   UNL     1       0.923   8.938  21.309  0.00  0.00    +0.000 A 
ATOM      5  C   UNL     1       1.074   9.719  20.169  0.00  0.00    +0.000 A 
ATOM      6  C   UNL     1       1.621   9.168  19.001  0.00  0.00    +0.000 A 
ATOM      7  C   UNL     1       1.750  10.054  17.788  0.00  0.00    +0.000 C 
ATOM      8  C   UNL     1       2.013   7.803  18.967  0.00  0.00    +0.000 A 
ENDROOT
BRANCH   4   9
ATOM      9  C   UNL     1       0.362   9.496  22.507  0.00  0.00    +0.000 C 
ATOM     10  N   UNL     1      -0.090   9.952  23.476  0.00  0.00    +0.000 NA
ENDBRANCH   4   9
BRANCH   8  11
ATOM     11  O   UNL     1       2.555   7.425  17.764  0.00  0.00    +0.000 OA
BRANCH  11  12
ATOM     12  C   UNL     1       3.962   7.233  17.688  0.00  0.00    +0.000 C 
BRANCH  12  13
ATOM     13  C   UNL     1       4.289   5.888  17.034  0.00  0.00    +0.000 C 
BRANCH  13  14
ATOM     14  C   UNL     1       5.326   6.026  15.908  0.00  0.00    +0.000 C 
BRANCH  14  15
ATOM     15  C   UNL     1       6.167   4.756  15.620  0.00  0.00    +0.000 C 
ATOM     16  C   UNL     1       5.243   3.526  15.660  0.00  0.00    +0.000 C 
ATOM     17  C   UNL     1       6.841   4.818  14.241  0.00  0.00    +0.000 C 
BRANCH  15  18
ATOM     18  C   UNL     1       7.202   4.592  16.667  0.00  0.00    +0.000 C 
ATOM     19  N   UNL     1       8.018   4.462  17.476  0.00  0.00    +0.000 NA
ENDBRANCH  15  18
ENDBRANCH  14  15
ENDBRANCH  13  14
ENDBRANCH  12  13
ENDBRANCH  11  12
ENDBRANCH   8  11
TORSDOF 7
ENDMDL
MODEL 7
REMARK VINA RESULT:      -5.6      2.162      3.284
REMARK  Name = 
REMARK  11 active torsions:
REMARK  status: ('A' for Active; 'I' for Inactive)
REMARK    1  A    between atoms: C_1  and  C_2
REMARK    2  A    between atoms: C_4  and  C_5
REMARK    3  A    between atoms: C_8  and  C_9
REMARK    4  A    between atoms: C_10  and  O_11
REMARK    5  A    between atoms: O_11  and  C_12
REMARK    6  A    between atoms: C_12  and  C_13
REMARK    7  A    between atoms: C_13  and  C_14
REMARK    8  A    between atoms: C_14  and  C_15
REMARK    9  A    between atoms: C_15  and  C_16
REMARK   10  A    between atoms: C_15  and  C_17
REMARK   11  A    between atoms: C_15  and  C_18
REMARK                            x       y       z     vdW  Elec       q    Type
REMARK                         _______ _______ _______ _____ _____    ______ ____
ROOT
ATOM      1  C   UNL     1       2.707   6.716  18.143  0.00  0.00    +0.000 C 
ATOM      2  C   UNL     1       4.041   6.297  17.581  0.00  0.00    +0.000 A 
ATOM      3  C   UNL     1       5.092   7.216  17.783  0.00  0.00    +0.000 A 
ATOM      4  C   UNL     1       6.388   6.962  17.336  0.00  0.00    +0.000 A 
ATOM      5  C   UNL     1       6.663   5.772  16.672  0.00  0.00    +0.000 A 
ATOM      6  C   UNL     1       5.646   4.830  16.458  0.00  0.00    +0.000 A 
ATOM      7  C   UNL     1       5.995   3.562  15.721  0.00  0.00    +0.000 C 
ATOM      8  C   UNL     1       4.323   5.089  16.904  0.00  0.00    +0.000 A 
ENDROOT
BRANCH   4   9
ATOM      9  C   UNL     1       7.424   7.931  17.556  0.00  0.00    +0.000 C 
ATOM     10  N   UNL     1       8.263   8.716  17.730  0.00  0.00    +0.000 NA
ENDBRANCH   4   9
BRANCH   8  11
ATOM     11  O   UNL     1       3.453   4.059  16.644  0.00  0.00    +0.000 OA
BRANCH  11  12
ATOM     12  C   UNL     1       2.201   4.047  17.319  0.00  0.00    +0.000 C 
BRANCH  12  13
ATOM     13  C   UNL     1       2.012   2.736  18.085  0.00  0.00    +0.000 C 
BRANCH  13  14
ATOM     14  C   UNL     1       1.266   2.940  19.413  0.00  0.00    +0.000 C 
BRANCH  14  15
ATOM     15  C   UNL     1       2.168   3.149  20.656  0.00  0.00    +0.000 C 
ATOM     16  C   UNL     1       2.240   4.653  20.972  0.00  0.00    +0.000 C 
ATOM     17  C   UNL     1       1.621   2.415  21.889  0.00  0.00    +0.000 C 
BRANCH  15  18
ATOM     18  C   UNL     1       3.540   2.670  20.367  0.00  0.00    +0.000 C 
ATOM     19  N   UNL     1       4.615   2.305  20.147  0.00  0.00    +0.000 NA
ENDBRANCH  15  18
ENDBRANCH  14  15
ENDBRANCH  13  14
ENDBRANCH  12  13
ENDBRANCH  11  12
ENDBRANCH   8  11
TORSDOF 7
ENDMDL
MODEL 8
REMARK VINA RESULT:      -5.5      3.320      7.242
REMARK  Name = 
REMARK  11 active torsions:
REMARK  status: ('A' for Active; 'I' for Inactive)
REMARK    1  A    between atoms: C_1  and  C_2
REMARK    2  A    between atoms: C_4  and  C_5
REMARK    3  A    between atoms: C_8  and  C_9
REMARK    4  A    between atoms: C_10  and  O_11
REMARK    5  A    between atoms: O_11  and  C_12
REMARK    6  A    between atoms: C_12  and  C_13
REMARK    7  A    between atoms: C_13  and  C_14
REMARK    8  A    between atoms: C_14  and  C_15
REMARK    9  A    between atoms: C_15  and  C_16
REMARK   10  A    between atoms: C_15  and  C_17
REMARK   11  A    between atoms: C_15  and  C_18
REMARK                            x       y       z     vdW  Elec       q    Type
REMARK                         _______ _______ _______ _____ _____    ______ ____
ROOT
ATOM      1  C   UNL     1       2.140   4.870  20.791  0.00  0.00    +0.000 C 
ATOM      2  C   UNL     1       1.931   6.312  20.408  0.00  0.00    +0.000 A 
ATOM      3  C   UNL     1       1.403   7.133  21.426  0.00  0.00    +0.000 A 
ATOM      4  C   UNL     1       1.169   8.493  21.229  0.00  0.00    +0.000 A 
ATOM      5  C   UNL     1       1.464   9.067  19.997  0.00  0.00    +0.000 A 
ATOM      6  C   UNL     1       1.996   8.285  18.961  0.00  0.00    +0.000 A 
ATOM      7  C   UNL     1       2.283   8.954  17.641  0.00  0.00    +0.000 C 
ATOM      8  C   UNL     1       2.226   6.898  19.156  0.00  0.00    +0.000 A 
ENDROOT
BRANCH   4   9
ATOM      9  C   UNL     1       0.622   9.287  22.292  0.00  0.00    +0.000 C 
ATOM     10  N   UNL     1       0.177   9.927  23.154  0.00  0.00    +0.000 NA
ENDBRANCH   4   9
BRANCH   8  11
ATOM     11  O   UNL     1       2.776   6.281  18.059  0.00  0.00    +0.000 OA
BRANCH  11  12
ATOM     12  C   UNL     1       4.053   5.672  18.196  0.00  0.00    +0.000 C 
BRANCH  12  13
ATOM     13  C   UNL     1       5.109   6.443  17.400  0.00  0.00    +0.000 C 
BRANCH  13  14
ATOM     14  C   UNL     1       5.239   5.929  15.957  0.00  0.00    +0.000 C 
BRANCH  14  15
ATOM     15  C   UNL     1       6.307   4.827  15.738  0.00  0.00    +0.000 C 
ATOM     16  C   UNL     1       7.182   4.724  17.000  0.00  0.00    +0.000 C 
ATOM     17  C   UNL     1       5.667   3.457  15.472  0.00  0.00    +0.000 C 
BRANCH  15  18
ATOM     18  C   UNL     1       7.179   5.193  14.598  0.00  0.00    +0.000 C 
ATOM     19  N   UNL     1       7.860   5.468  13.705  0.00  0.00    +0.000 NA
ENDBRANCH  15  18
ENDBRANCH  14  15
ENDBRANCH  13  14
ENDBRANCH  12  13
ENDBRANCH  11  12
ENDBRANCH   8  11
TORSDOF 7
ENDMDL
MODEL 9
REMARK VINA RESULT:      -5.5      1.479      2.101
REMARK  Name = 
REMARK  11 active torsions:
REMARK  status: ('A' for Active; 'I' for Inactive)
REMARK    1  A    between atoms: C_1  and  C_2
REMARK    2  A    between atoms: C_4  and  C_5
REMARK    3  A    between atoms: C_8  and  C_9
REMARK    4  A    between atoms: C_10  and  O_11
REMARK    5  A    between atoms: O_11  and  C_12
REMARK    6  A    between atoms: C_12  and  C_13
REMARK    7  A    between atoms: C_13  and  C_14
REMARK    8  A    between atoms: C_14  and  C_15
REMARK    9  A    between atoms: C_15  and  C_16
REMARK   10  A    between atoms: C_15  and  C_17
REMARK   11  A    between atoms: C_15  and  C_18
REMARK                            x       y       z     vdW  Elec       q    Type
REMARK                         _______ _______ _______ _____ _____    ______ ____
ROOT
ATOM      1  C   UNL     1       4.029   2.369  17.261  0.00  0.00    +0.000 C 
ATOM      2  C   UNL     1       4.402   3.791  16.932  0.00  0.00    +0.000 A 
ATOM      3  C   UNL     1       5.478   3.937  16.031  0.00  0.00    +0.000 A 
ATOM      4  C   UNL     1       5.928   5.190  15.618  0.00  0.00    +0.000 A 
ATOM      5  C   UNL     1       5.305   6.335  16.101  0.00  0.00    +0.000 A 
ATOM      6  C   UNL     1       4.228   6.232  16.993  0.00  0.00    +0.000 A 
ATOM      7  C   UNL     1       3.597   7.505  17.497  0.00  0.00    +0.000 C 
ATOM      8  C   UNL     1       3.772   4.958  17.423  0.00  0.00    +0.000 A 
ENDROOT
BRANCH   4   9
ATOM      9  C   UNL     1       7.033   5.289  14.707  0.00  0.00    +0.000 C 
ATOM     10  N   UNL     1       7.930   5.369  13.972  0.00  0.00    +0.000 NA
ENDBRANCH   4   9
BRANCH   8  11
ATOM     11  O   UNL     1       2.694   5.026  18.271  0.00  0.00    +0.000 OA
BRANCH  11  12
ATOM     12  C   UNL     1       1.473   4.425  17.859  0.00  0.00    +0.000 C 
BRANCH  12  13
ATOM     13  C   UNL     1       0.755   3.788  19.051  0.00  0.00    +0.000 C 
BRANCH  13  14
ATOM     14  C   UNL     1       1.543   2.609  19.643  0.00  0.00    +0.000 C 
BRANCH  14  15
ATOM     15  C   UNL     1       2.256   2.895  20.989  0.00  0.00    +0.000 C 
ATOM     16  C   UNL     1       2.269   4.414  21.233  0.00  0.00    +0.000 C 
ATOM     17  C   UNL     1       1.545   2.215  22.169  0.00  0.00    +0.000 C 
BRANCH  15  18
ATOM     18  C   UNL     1       3.659   2.425  20.923  0.00  0.00    +0.000 C 
ATOM     19  N   UNL     1       4.751   2.047  20.873  0.00  0.00    +0.000 NA
ENDBRANCH  15  18
ENDBRANCH  14  15
ENDBRANCH  13  14
ENDBRANCH  12  13
ENDBRANCH  11  12
ENDBRANCH   8  11
TORSDOF 7
ENDMDL
