MODEL 1
REMARK VINA RESULT:      -6.8      0.000      0.000
REMARK  Name = 
REMARK  6 active torsions:
REMARK  status: ('A' for Active; 'I' for Inactive)
REMARK    1  A    between atoms: C_1  and  N_2
REMARK    2  A    between atoms: N_2  and  C_3
REMARK    3  A    between atoms: N_2  and  C_4
REMARK    4  A    between atoms: N_7  and  C_8
REMARK    5  A    between atoms: C_8  and  C_9
REMARK    6  A    between atoms: C_9  and  C_10
REMARK                            x       y       z     vdW  Elec       q    Type
REMARK                         _______ _______ _______ _____ _____    ______ ____
ROOT
ATOM      1  C   UNL     1       6.535   4.894  14.911  0.00  0.00    +0.000 A 
ATOM      2  C   UNL     1       5.428   5.855  15.195  0.00  0.00    +0.000 A 
ATOM      3  N   UNL     1       4.976   6.207  16.352  0.00  0.00    +0.000 NA
ATOM      4  N   UNL     1       5.562   5.640  17.457  0.00  0.00    +0.000 N 
ATOM      5  C   UNL     1       6.676   4.820  17.385  0.00  0.00    +0.000 A 
ATOM      6  O   UNL     1       7.294   4.385  18.353  0.00  0.00    +0.000 OA
ATOM      7  C   UNL     1       7.115   4.434  16.027  0.00  0.00    +0.000 A 
ENDROOT
BRANCH   1   9
ATOM      8  C   UNL     1       7.956   5.252  12.881  0.00  0.00    +0.000 C 
ATOM      9  N   UNL     1       6.873   4.566  13.589  0.00  0.00    +0.000 N 
ATOM     10  C   UNL     1       6.152   3.556  12.812  0.00  0.00    +0.000 C 
ENDBRANCH   1   9
BRANCH   4  11
ATOM     11  C   UNL     1       5.040   6.052  18.760  0.00  0.00    +0.000 C 
BRANCH  11  12
ATOM     12  C   UNL     1       3.562   6.452  18.707  0.00  0.00    +0.000 C 
BRANCH  12  13
ATOM     13  C   UNL     1       2.628   5.286  18.912  0.00  0.00    +0.000 A 
ATOM     14  C   UNL     1       2.103   5.018  20.185  0.00  0.00    +0.000 A 
ATOM     15  C   UNL     1       1.219   3.955  20.370  0.00  0.00    +0.000 A 
ATOM     16  C   UNL     1       0.868   3.161  19.288  0.00  0.00    +0.000 A 
ATOM     17  F   UNL     1       0.012   2.145  19.466  0.00  0.00    +0.000 F 
ATOM     18  C   UNL     1       1.386   3.404  18.021  0.00  0.00    +0.000 A 
ATOM     19  C   UNL     1       2.270   4.466  17.832  0.00  0.00    +0.000 A 
ENDBRANCH  12  13
ENDBRANCH  11  12
ENDBRANCH   4  11
TORSDOF 4
ENDMDL
MODEL 2
REMARK VINA RESULT:      -6.7      1.639      1.909
REMARK  Name = 
REMARK  6 active torsions:
REMARK  status: ('A' for Active; 'I' for Inactive)
REMARK    1  A    between atoms: C_1  and  N_2
REMARK    2  A    between atoms: N_2  and  C_3
REMARK    3  A    between atoms: N_2  and  C_4
REMARK    4  A    between atoms: N_7  and  C_8
REMARK    5  A    between atoms: C_8  and  C_9
REMARK    6  A    between atoms: C_9  and  C_10
REMARK                            x       y       z     vdW  Elec       q    Type
REMARK                         _______ _______ _______ _____ _____    ______ ____
ROOT
ATOM      1  C   UNL     1       6.322   4.262  14.187  0.00  0.00    +0.000 A 
ATOM      2  C   UNL     1       5.386   3.555  15.110  0.00  0.00    +0.000 A 
ATOM      3  N   UNL     1       5.246   3.747  16.380  0.00  0.00    +0.000 NA
ATOM      4  N   UNL     1       6.043   4.698  16.966  0.00  0.00    +0.000 N 
ATOM      5  C   UNL     1       6.884   5.529  16.243  0.00  0.00    +0.000 A 
ATOM      6  O   UNL     1       7.528   6.463  16.715  0.00  0.00    +0.000 OA
ATOM      7  C   UNL     1       7.018   5.228  14.801  0.00  0.00    +0.000 A 
ENDROOT
BRANCH   1   9
ATOM      8  C   UNL     1       7.475   4.389  11.969  0.00  0.00    +0.000 C 
ATOM      9  N   UNL     1       6.402   3.897  12.835  0.00  0.00    +0.000 N 
ATOM     10  C   UNL     1       5.408   3.042  12.183  0.00  0.00    +0.000 C 
ENDBRANCH   1   9
BRANCH   4  11
ATOM     11  C   UNL     1       5.870   4.905  18.404  0.00  0.00    +0.000 C 
BRANCH  11  12
ATOM     12  C   UNL     1       4.588   5.673  18.742  0.00  0.00    +0.000 C 
BRANCH  12  13
ATOM     13  C   UNL     1       3.596   4.850  19.523  0.00  0.00    +0.000 A 
ATOM     14  C   UNL     1       3.845   3.491  19.769  0.00  0.00    +0.000 A 
ATOM     15  C   UNL     1       2.939   2.735  20.512  0.00  0.00    +0.000 A 
ATOM     16  C   UNL     1       1.788   3.334  21.003  0.00  0.00    +0.000 A 
ATOM     17  F   UNL     1       0.923   2.609  21.724  0.00  0.00    +0.000 F 
ATOM     18  C   UNL     1       1.518   4.677  20.760  0.00  0.00    +0.000 A 
ATOM     19  C   UNL     1       2.421   5.435  20.016  0.00  0.00    +0.000 A 
ENDBRANCH  12  13
ENDBRANCH  11  12
ENDBRANCH   4  11
TORSDOF 4
ENDMDL
MODEL 3
REMARK VINA RESULT:      -6.6      1.389      1.985
REMARK  Name = 
REMARK  6 active torsions:
REMARK  status: ('A' for Active; 'I' for Inactive)
REMARK    1  A    between atoms: C_1  and  N_2
REMARK    2  A    between atoms: N_2  and  C_3
REMARK    3  A    between atoms: N_2  and  C_4
REMARK    4  A    between atoms: N_7  and  C_8
REMARK    5  A    between atoms: C_8  and  C_9
REMARK    6  A    between atoms: C_9  and  C_10
REMARK                            x       y       z     vdW  Elec       q    Type
REMARK                         _______ _______ _______ _____ _____    ______ ____
ROOT
ATOM      1  C   UNL     1       6.070   4.618  14.489  0.00  0.00    +0.000 A 
ATOM      2  C   UNL     1       5.923   6.027  14.960  0.00  0.00    +0.000 A 
ATOM      3  N   UNL     1       5.325   6.436  16.029  0.00  0.00    +0.000 NA
ATOM      4  N   UNL     1       4.749   5.483  16.833  0.00  0.00    +0.000 N 
ATOM      5  C   UNL     1       4.889   4.122  16.612  0.00  0.00    +0.000 A 
ATOM      6  O   UNL     1       4.485   3.240  17.366  0.00  0.00    +0.000 OA
ATOM      7  C   UNL     1       5.555   3.731  15.350  0.00  0.00    +0.000 A 
ENDROOT
BRANCH   1   9
ATOM      8  C   UNL     1       6.286   3.204  12.434  0.00  0.00    +0.000 C 
ATOM      9  N   UNL     1       6.698   4.337  13.266  0.00  0.00    +0.000 N 
ATOM     10  C   UNL     1       7.826   5.117  12.754  0.00  0.00    +0.000 C 
ENDBRANCH   1   9
BRANCH   4  11
ATOM     11  C   UNL     1       4.079   5.962  18.042  0.00  0.00    +0.000 C 
BRANCH  11  12
ATOM     12  C   UNL     1       2.572   5.689  18.032  0.00  0.00    +0.000 C 
BRANCH  12  13
ATOM     13  C   UNL     1       2.130   4.780  19.150  0.00  0.00    +0.000 A 
ATOM     14  C   UNL     1       1.230   3.734  18.896  0.00  0.00    +0.000 A 
ATOM     15  C   UNL     1       0.840   2.878  19.925  0.00  0.00    +0.000 A 
ATOM     16  C   UNL     1       1.342   3.071  21.203  0.00  0.00    +0.000 A 
ATOM     17  F   UNL     1       0.973   2.243  22.190  0.00  0.00    +0.000 F 
ATOM     18  C   UNL     1       2.226   4.109  21.479  0.00  0.00    +0.000 A 
ATOM     19  C   UNL     1       2.618   4.967  20.452  0.00  0.00    +0.000 A 
ENDBRANCH  12  13
ENDBRANCH  11  12
ENDBRANCH   4  11
TORSDOF 4
ENDMDL
MODEL 4
REMARK VINA RESULT:      -6.6      0.444      1.192
REMARK  Name = 
REMARK  6 active torsions:
REMARK  status: ('A' for Active; 'I' for Inactive)
REMARK    1  A    between atoms: C_1  and  N_2
REMARK    2  A    between atoms: N_2  and  C_3
REMARK    3  A    between atoms: N_2  and  C_4
REMARK    4  A    between atoms: N_7  and  C_8
REMARK    5  A    between atoms: C_8  and  C_9
REMARK    6  A    between atoms: C_9  and  C_10
REMARK                            x       y       z     vdW  Elec       q    Type
REMARK                         _______ _______ _______ _____ _____    ______ ____
ROOT
ATOM      1  C   UNL     1       6.306   4.976  15.165  0.00  0.00    +0.000 A 
ATOM      2  C   UNL     1       5.370   6.119  15.376  0.00  0.00    +0.000 A 
ATOM      3  N   UNL     1       4.864   6.521  16.495  0.00  0.00    +0.000 NA
ATOM      4  N   UNL     1       5.209   5.826  17.627  0.00  0.00    +0.000 N 
ATOM      5  C   UNL     1       6.155   4.814  17.635  0.00  0.00    +0.000 A 
ATOM      6  O   UNL     1       6.572   4.245  18.641  0.00  0.00    +0.000 OA
ATOM      7  C   UNL     1       6.664   4.386  16.313  0.00  0.00    +0.000 A 
ENDROOT
BRANCH   1   9
ATOM      8  C   UNL     1       7.873   5.268  13.235  0.00  0.00    +0.000 C 
ATOM      9  N   UNL     1       6.723   4.624  13.873  0.00  0.00    +0.000 N 
ATOM     10  C   UNL     1       6.024   3.630  13.055  0.00  0.00    +0.000 C 
ENDBRANCH   1   9
BRANCH   4  11
ATOM     11  C   UNL     1       4.630   6.295  18.886  0.00  0.00    +0.000 C 
BRANCH  11  12
ATOM     12  C   UNL     1       3.116   6.510  18.798  0.00  0.00    +0.000 C 
BRANCH  12  13
ATOM     13  C   UNL     1       2.332   5.226  18.872  0.00  0.00    +0.000 A 
ATOM     14  C   UNL     1       2.165   4.433  17.726  0.00  0.00    +0.000 A 
ATOM     15  C   UNL     1       1.461   3.232  17.799  0.00  0.00    +0.000 A 
ATOM     16  C   UNL     1       0.921   2.829  19.012  0.00  0.00    +0.000 A 
ATOM     17  F   UNL     1       0.251   1.670  19.083  0.00  0.00    +0.000 F 
ATOM     18  C   UNL     1       1.065   3.605  20.156  0.00  0.00    +0.000 A 
ATOM     19  C   UNL     1       1.768   4.807  20.086  0.00  0.00    +0.000 A 
ENDBRANCH  12  13
ENDBRANCH  11  12
ENDBRANCH   4  11
TORSDOF 4
ENDMDL
MODEL 5
REMARK VINA RESULT:      -6.6      0.907      1.453
REMARK  Name = 
REMARK  6 active torsions:
REMARK  status: ('A' for Active; 'I' for Inactive)
REMARK    1  A    between atoms: C_1  and  N_2
REMARK    2  A    between atoms: N_2  and  C_3
REMARK    3  A    between atoms: N_2  and  C_4
REMARK    4  A    between atoms: N_7  and  C_8
REMARK    5  A    between atoms: C_8  and  C_9
REMARK    6  A    between atoms: C_9  and  C_10
REMARK                            x       y       z     vdW  Elec       q    Type
REMARK                         _______ _______ _______ _____ _____    ______ ____
ROOT
ATOM      1  C   UNL     1       6.524   4.878  14.808  0.00  0.00    +0.000 A 
ATOM      2  C   UNL     1       5.351   5.782  15.002  0.00  0.00    +0.000 A 
ATOM      3  N   UNL     1       4.772   6.084  16.116  0.00  0.00    +0.000 NA
ATOM      4  N   UNL     1       5.273   5.515  17.261  0.00  0.00    +0.000 N 
ATOM      5  C   UNL     1       6.426   4.747  17.282  0.00  0.00    +0.000 A 
ATOM      6  O   UNL     1       6.967   4.314  18.297  0.00  0.00    +0.000 OA
ATOM      7  C   UNL     1       7.013   4.415  15.965  0.00  0.00    +0.000 A 
ENDROOT
BRANCH   1   9
ATOM      8  C   UNL     1       8.123   5.346  12.938  0.00  0.00    +0.000 C 
ATOM      9  N   UNL     1       7.004   4.600  13.519  0.00  0.00    +0.000 N 
ATOM     10  C   UNL     1       6.405   3.584  12.650  0.00  0.00    +0.000 C 
ENDBRANCH   1   9
BRANCH   4  11
ATOM     11  C   UNL     1       4.608   5.869  18.515  0.00  0.00    +0.000 C 
BRANCH  11  12
ATOM     12  C   UNL     1       3.081   5.826  18.408  0.00  0.00    +0.000 C 
BRANCH  12  13
ATOM     13  C   UNL     1       2.449   4.865  19.383  0.00  0.00    +0.000 A 
ATOM     14  C   UNL     1       1.467   3.962  18.947  0.00  0.00    +0.000 A 
ATOM     15  C   UNL     1       0.899   3.056  19.842  0.00  0.00    +0.000 A 
ATOM     16  C   UNL     1       1.308   3.058  21.168  0.00  0.00    +0.000 A 
ATOM     17  F   UNL     1       0.768   2.182  22.026  0.00  0.00    +0.000 F 
ATOM     18  C   UNL     1       2.271   3.952  21.622  0.00  0.00    +0.000 A 
ATOM     19  C   UNL     1       2.840   4.860  20.729  0.00  0.00    +0.000 A 
ENDBRANCH  12  13
ENDBRANCH  11  12
ENDBRANCH   4  11
TORSDOF 4
ENDMDL
MODEL 6
REMARK VINA RESULT:      -6.6      1.514      2.029
REMARK  Name = 
REMARK  6 active torsions:
REMARK  status: ('A' for Active; 'I' for Inactive)
REMARK    1  A    between atoms: C_1  and  N_2
REMARK    2  A    between atoms: N_2  and  C_3
REMARK    3  A    between atoms: N_2  and  C_4
REMARK    4  A    between atoms: N_7  and  C_8
REMARK    5  A    between atoms: C_8  and  C_9
REMARK    6  A    between atoms: C_9  and  C_10
REMARK                            x       y       z     vdW  Elec       q    Type
REMARK                         _______ _______ _______ _____ _____    ______ ____
ROOT
ATOM      1  C   UNL     1       6.402   4.903  14.756  0.00  0.00    +0.000 A 
ATOM      2  C   UNL     1       6.964   4.170  15.929  0.00  0.00    +0.000 A 
ATOM      3  N   UNL     1       6.687   4.360  17.176  0.00  0.00    +0.000 NA
ATOM      4  N   UNL     1       5.780   5.346  17.477  0.00  0.00    +0.000 N 
ATOM      5  C   UNL     1       5.074   6.044  16.511  0.00  0.00    +0.000 A 
ATOM      6  O   UNL     1       4.177   6.853  16.739  0.00  0.00    +0.000 OA
ATOM      7  C   UNL     1       5.470   5.798  15.107  0.00  0.00    +0.000 A 
ENDROOT
BRANCH   1   9
ATOM      8  C   UNL     1       6.254   3.551  12.653  0.00  0.00    +0.000 C 
ATOM      9  N   UNL     1       6.851   4.620  13.457  0.00  0.00    +0.000 N 
ATOM     10  C   UNL     1       7.964   5.335  12.828  0.00  0.00    +0.000 C 
ENDBRANCH   1   9
BRANCH   4  11
ATOM     11  C   UNL     1       5.475   5.546  18.893  0.00  0.00    +0.000 C 
BRANCH  11  12
ATOM     12  C   UNL     1       5.208   4.232  19.633  0.00  0.00    +0.000 C 
BRANCH  12  13
ATOM     13  C   UNL     1       3.839   3.666  19.356  0.00  0.00    +0.000 A 
ATOM     14  C   UNL     1       2.727   4.119  20.083  0.00  0.00    +0.000 A 
ATOM     15  C   UNL     1       1.456   3.615  19.810  0.00  0.00    +0.000 A 
ATOM     16  C   UNL     1       1.299   2.657  18.819  0.00  0.00    +0.000 A 
ATOM     17  F   UNL     1       0.077   2.178  18.552  0.00  0.00    +0.000 F 
ATOM     18  C   UNL     1       2.389   2.187  18.095  0.00  0.00    +0.000 A 
ATOM     19  C   UNL     1       3.662   2.689  18.366  0.00  0.00    +0.000 A 
ENDBRANCH  12  13
ENDBRANCH  11  12
ENDBRANCH   4  11
TORSDOF 4
ENDMDL
MODEL 7
REMARK VINA RESULT:      -6.6      1.446      1.816
REMARK  Name = 
REMARK  6 active torsions:
REMARK  status: ('A' for Active; 'I' for Inactive)
REMARK    1  A    between atoms: C_1  and  N_2
REMARK    2  A    between atoms: N_2  and  C_3
REMARK    3  A    between atoms: N_2  and  C_4
REMARK    4  A    between atoms: N_7  and  C_8
REMARK    5  A    between atoms: C_8  and  C_9
REMARK    6  A    between atoms: C_9  and  C_10
REMARK                            x       y       z     vdW  Elec       q    Type
REMARK                         _______ _______ _______ _____ _____    ______ ____
ROOT
ATOM      1  C   UNL     1       6.235   4.201  14.196  0.00  0.00    +0.000 A 
ATOM      2  C   UNL     1       5.459   3.401  15.189  0.00  0.00    +0.000 A 
ATOM      3  N   UNL     1       5.426   3.563  16.470  0.00  0.00    +0.000 NA
ATOM      4  N   UNL     1       6.189   4.576  16.996  0.00  0.00    +0.000 N 
ATOM      5  C   UNL     1       6.878   5.489  16.214  0.00  0.00    +0.000 A 
ATOM      6  O   UNL     1       7.479   6.472  16.642  0.00  0.00    +0.000 OA
ATOM      7  C   UNL     1       6.898   5.218  14.760  0.00  0.00    +0.000 A 
ENDROOT
BRANCH   1   9
ATOM      8  C   UNL     1       5.062   3.195  12.226  0.00  0.00    +0.000 C 
ATOM      9  N   UNL     1       6.216   3.861  12.835  0.00  0.00    +0.000 N 
ATOM     10  C   UNL     1       7.348   4.103  11.938  0.00  0.00    +0.000 C 
ENDBRANCH   1   9
BRANCH   4  11
ATOM     11  C   UNL     1       6.138   4.749  18.448  0.00  0.00    +0.000 C 
BRANCH  11  12
ATOM     12  C   UNL     1       4.861   5.454  18.917  0.00  0.00    +0.000 C 
BRANCH  12  13
ATOM     13  C   UNL     1       3.635   4.583  18.815  0.00  0.00    +0.000 A 
ATOM     14  C   UNL     1       3.515   3.437  19.617  0.00  0.00    +0.000 A 
ATOM     15  C   UNL     1       2.370   2.645  19.541  0.00  0.00    +0.000 A 
ATOM     16  C   UNL     1       1.353   2.993  18.664  0.00  0.00    +0.000 A 
ATOM     17  F   UNL     1       0.251   2.235  18.598  0.00  0.00    +0.000 F 
ATOM     18  C   UNL     1       1.458   4.118  17.853  0.00  0.00    +0.000 A 
ATOM     19  C   UNL     1       2.602   4.912  17.925  0.00  0.00    +0.000 A 
ENDBRANCH  12  13
ENDBRANCH  11  12
ENDBRANCH   4  11
TORSDOF 4
ENDMDL
MODEL 8
REMARK VINA RESULT:      -6.6      1.660      1.779
REMARK  Name = 
REMARK  6 active torsions:
REMARK  status: ('A' for Active; 'I' for Inactive)
REMARK    1  A    between atoms: C_1  and  N_2
REMARK    2  A    between atoms: N_2  and  C_3
REMARK    3  A    between atoms: N_2  and  C_4
REMARK    4  A    between atoms: N_7  and  C_8
REMARK    5  A    between atoms: C_8  and  C_9
REMARK    6  A    between atoms: C_9  and  C_10
REMARK                            x       y       z     vdW  Elec       q    Type
REMARK                         _______ _______ _______ _____ _____    ______ ____
ROOT
ATOM      1  C   UNL     1       6.344   4.383  14.189  0.00  0.00    +0.000 A 
ATOM      2  C   UNL     1       5.296   3.787  15.070  0.00  0.00    +0.000 A 
ATOM      3  N   UNL     1       5.110   4.014  16.328  0.00  0.00    +0.000 NA
ATOM      4  N   UNL     1       5.966   4.893  16.943  0.00  0.00    +0.000 N 
ATOM      5  C   UNL     1       6.921   5.626  16.256  0.00  0.00    +0.000 A 
ATOM      6  O   UNL     1       7.628   6.501  16.749  0.00  0.00    +0.000 OA
ATOM      7  C   UNL     1       7.099   5.287  14.827  0.00  0.00    +0.000 A 
ENDROOT
BRANCH   1   9
ATOM      8  C   UNL     1       7.471   4.563  11.961  0.00  0.00    +0.000 C 
ATOM      9  N   UNL     1       6.457   3.988  12.848  0.00  0.00    +0.000 N 
ATOM     10  C   UNL     1       5.556   3.016  12.227  0.00  0.00    +0.000 C 
ENDBRANCH   1   9
BRANCH   4  11
ATOM     11  C   UNL     1       5.740   5.141  18.367  0.00  0.00    +0.000 C 
BRANCH  11  12
ATOM     12  C   UNL     1       4.354   5.727  18.653  0.00  0.00    +0.000 C 
BRANCH  12  13
ATOM     13  C   UNL     1       3.518   4.853  19.552  0.00  0.00    +0.000 A 
ATOM     14  C   UNL     1       2.399   5.384  20.213  0.00  0.00    +0.000 A 
ATOM     15  C   UNL     1       1.611   4.570  21.025  0.00  0.00    +0.000 A 
ATOM     16  C   UNL     1       1.943   3.232  21.181  0.00  0.00    +0.000 A 
ATOM     17  F   UNL     1       1.181   2.449  21.955  0.00  0.00    +0.000 F 
ATOM     18  C   UNL     1       3.054   2.689  20.544  0.00  0.00    +0.000 A 
ATOM     19  C   UNL     1       3.844   3.501  19.731  0.00  0.00    +0.000 A 
ENDBRANCH  12  13
ENDBRANCH  11  12
ENDBRANCH   4  11
TORSDOF 4
ENDMDL
MODEL 9
REMARK VINA RESULT:      -6.5      6.001      7.862
REMARK  Name = 
REMARK  6 active torsions:
REMARK  status: ('A' for Active; 'I' for Inactive)
REMARK    1  A    between atoms: C_1  and  N_2
REMARK    2  A    between atoms: N_2  and  C_3
REMARK    3  A    between atoms: N_2  and  C_4
REMARK    4  A    between atoms: N_7  and  C_8
REMARK    5  A    between atoms: C_8  and  C_9
REMARK    6  A    between atoms: C_9  and  C_10
REMARK                            x       y       z     vdW  Elec       q    Type
REMARK                         _______ _______ _______ _____ _____    ______ ____
ROOT
ATOM      1  C   UNL     1       6.176   5.045  17.018  0.00  0.00    +0.000 A 
ATOM      2  C   UNL     1       6.448   6.408  16.474  0.00  0.00    +0.000 A 
ATOM      3  N   UNL     1       7.166   7.336  17.013  0.00  0.00    +0.000 NA
ATOM      4  N   UNL     1       7.749   7.059  18.224  0.00  0.00    +0.000 N 
ATOM      5  C   UNL     1       7.700   5.808  18.818  0.00  0.00    +0.000 A 
ATOM      6  O   UNL     1       8.299   5.490  19.843  0.00  0.00    +0.000 OA
ATOM      7  C   UNL     1       6.831   4.807  18.162  0.00  0.00    +0.000 A 
ENDROOT
BRANCH   1   9
ATOM      8  C   UNL     1       4.152   3.571  16.997  0.00  0.00    +0.000 C 
ATOM      9  N   UNL     1       5.319   4.164  16.340  0.00  0.00    +0.000 N 
ATOM     10  C   UNL     1       5.545   3.743  14.956  0.00  0.00    +0.000 C 
ENDBRANCH   1   9
BRANCH   4  11
ATOM     11  C   UNL     1       8.562   8.119  18.819  0.00  0.00    +0.000 C 
BRANCH  11  12
ATOM     12  C   UNL     1       8.433   9.452  18.076  0.00  0.00    +0.000 C 
BRANCH  12  13
ATOM     13  C   UNL     1       9.251  10.556  18.697  0.00  0.00    +0.000 A 
ATOM     14  C   UNL     1       9.795  11.569  17.893  0.00  0.00    +0.000 A 
ATOM     15  C   UNL     1      10.531  12.604  18.470  0.00  0.00    +0.000 A 
ATOM     16  C   UNL     1      10.725  12.622  19.843  0.00  0.00    +0.000 A 
ATOM     17  F   UNL     1      11.425  13.621  20.397  0.00  0.00    +0.000 F 
ATOM     18  C   UNL     1      10.204  11.621  20.656  0.00  0.00    +0.000 A 
ATOM     19  C   UNL     1       9.468  10.585  20.082  0.00  0.00    +0.000 A 
ENDBRANCH  12  13
ENDBRANCH  11  12
ENDBRANCH   4  11
TORSDOF 4
ENDMDL
