MODEL 1
REMARK VINA RESULT:      -6.9      0.000      0.000
REMARK  Name = 
REMARK  6 active torsions:
REMARK  status: ('A' for Active; 'I' for Inactive)
REMARK    1  A    between atoms: C_1  and  C_2
REMARK    2  A    between atoms: C_2  and  O_3
REMARK    3  A    between atoms: O_3  and  C_4
REMARK    4  A    between atoms: C_9  and  N_10
REMARK    5  A    between atoms: N_13  and  C_14
REMARK    6  A    between atoms: C_14  and  C_15
REMARK                            x       y       z     vdW  Elec       q    Type
REMARK                         _______ _______ _______ _____ _____    ______ ____
ROOT
ATOM      1  N   UNL     1      -0.204  10.071  19.632  0.00  0.00    +0.000 N 
ATOM      2  C   UNL     1       0.330  10.084  18.294  0.00  0.00    +0.000 C 
ATOM      3  C   UNL     1       1.868   9.900  18.212  0.00  0.00    +0.000 C 
ATOM      4  N   UNL     1       2.407   8.665  18.783  0.00  0.00    +0.000 NA
ATOM      5  C   UNL     1       1.969   8.664  20.133  0.00  0.00    +0.000 C 
ATOM      6  C   UNL     1       0.221   8.913  20.338  0.00  0.00    +0.000 C 
ENDROOT
BRANCH   1  12
ATOM      7  C   UNL     1      -1.841  11.890  19.753  0.00  0.00    +0.000 A 
ATOM      8  C   UNL     1      -2.481  12.819  20.555  0.00  0.00    +0.000 A 
ATOM      9  C   UNL     1      -1.980  13.084  21.823  0.00  0.00    +0.000 A 
ATOM     10  C   UNL     1      -1.034  12.268  22.398  0.00  0.00    +0.000 A 
ATOM     11  C   UNL     1      -0.438  11.315  21.608  0.00  0.00    +0.000 A 
ATOM     12  C   UNL     1      -0.830  11.088  20.296  0.00  0.00    +0.000 A 
BRANCH   7  13
ATOM     13  O   UNL     1      -2.206  11.902  18.433  0.00  0.00    +0.000 OA
BRANCH  13  15
ATOM     14  C   UNL     1      -3.335   9.911  17.599  0.00  0.00    +0.000 C 
ATOM     15  C   UNL     1      -3.462  11.337  18.179  0.00  0.00    +0.000 C 
ENDBRANCH  13  15
ENDBRANCH   7  13
ENDBRANCH   1  12
BRANCH   4  16
ATOM     16  C   UNL     1       1.776   7.496  18.193  0.00  0.00    +0.000 C 
BRANCH  16  17
ATOM     17  C   UNL     1       2.781   6.422  17.844  0.00  0.00    +0.000 A 
ATOM     18  C   UNL     1       4.011   6.792  17.329  0.00  0.00    +0.000 A 
ATOM     19  C   UNL     1       4.801   5.808  16.778  0.00  0.00    +0.000 A 
ATOM     20  C   UNL     1       4.548   4.485  16.997  0.00  0.00    +0.000 A 
ATOM     21  C   UNL     1       3.388   4.122  17.554  0.00  0.00    +0.000 A 
ATOM     22  C   UNL     1       3.129   2.801  17.603  0.00  0.00    +0.000 A 
ATOM     23  C   UNL     1       1.926   2.528  18.189  0.00  0.00    +0.000 A 
ATOM     24  C   UNL     1       0.846   2.235  18.719  0.00  0.00    +0.000 A 
ATOM     25  C   UNL     1       1.326   3.973  18.475  0.00  0.00    +0.000 A 
ATOM     26  C   UNL     1       2.459   4.985  17.968  0.00  0.00    +0.000 A 
ENDBRANCH  16  17
ENDBRANCH   4  16
TORSDOF 5
ENDMDL
MODEL 2
REMARK VINA RESULT:      -6.8      2.251      3.125
REMARK  Name = 
REMARK  6 active torsions:
REMARK  status: ('A' for Active; 'I' for Inactive)
REMARK    1  A    between atoms: C_1  and  C_2
REMARK    2  A    between atoms: C_2  and  O_3
REMARK    3  A    between atoms: O_3  and  C_4
REMARK    4  A    between atoms: C_9  and  N_10
REMARK    5  A    between atoms: N_13  and  C_14
REMARK    6  A    between atoms: C_14  and  C_15
REMARK                            x       y       z     vdW  Elec       q    Type
REMARK                         _______ _______ _______ _____ _____    ______ ____
ROOT
ATOM      1  N   UNL     1      -0.773  10.600  22.136  0.00  0.00    +0.000 N 
ATOM      2  C   UNL     1      -0.464  10.324  20.756  0.00  0.00    +0.000 C 
ATOM      3  C   UNL     1       1.049  10.165  20.453  0.00  0.00    +0.000 C 
ATOM      4  N   UNL     1       1.748   9.104  21.178  0.00  0.00    +0.000 NA
ATOM      5  C   UNL     1       1.535   9.396  22.551  0.00  0.00    +0.000 C 
ATOM      6  C   UNL     1      -0.168   9.642  22.993  0.00  0.00    +0.000 C 
ENDROOT
BRANCH   1  12
ATOM      7  C   UNL     1      -0.803  13.012  22.567  0.00  0.00    +0.000 A 
ATOM      8  C   UNL     1      -1.526  14.095  23.038  0.00  0.00    +0.000 A 
ATOM      9  C   UNL     1      -2.683  13.872  23.774  0.00  0.00    +0.000 A 
ATOM     10  C   UNL     1      -3.266  12.627  23.821  0.00  0.00    +0.000 A 
ATOM     11  C   UNL     1      -2.563  11.565  23.307  0.00  0.00    +0.000 A 
ATOM     12  C   UNL     1      -1.346  11.725  22.659  0.00  0.00    +0.000 A 
BRANCH   7  13
ATOM     13  O   UNL     1       0.459  13.299  22.119  0.00  0.00    +0.000 OA
BRANCH  13  15
ATOM     14  C   UNL     1       1.947  14.123  20.375  0.00  0.00    +0.000 C 
ATOM     15  C   UNL     1       0.497  13.921  20.865  0.00  0.00    +0.000 C 
ENDBRANCH  13  15
ENDBRANCH   7  13
ENDBRANCH   1  12
BRANCH   4  16
ATOM     16  C   UNL     1       1.104   7.816  20.974  0.00  0.00    +0.000 C 
BRANCH  16  17
ATOM     17  C   UNL     1       1.869   6.944  20.006  0.00  0.00    +0.000 A 
ATOM     18  C   UNL     1       2.445   7.522  18.889  0.00  0.00    +0.000 A 
ATOM     19  C   UNL     1       2.904   6.687  17.895  0.00  0.00    +0.000 A 
ATOM     20  C   UNL     1       3.082   5.352  18.113  0.00  0.00    +0.000 A 
ATOM     21  C   UNL     1       2.585   4.795  19.222  0.00  0.00    +0.000 A 
ATOM     22  C   UNL     1       2.654   3.453  19.308  0.00  0.00    +0.000 A 
ATOM     23  C   UNL     1       2.125   2.978  20.474  0.00  0.00    +0.000 A 
ATOM     24  C   UNL     1       1.660   2.505  21.520  0.00  0.00    +0.000 A 
ATOM     25  C   UNL     1       1.568   4.290  21.181  0.00  0.00    +0.000 A 
ATOM     26  C   UNL     1       1.956   5.479  20.180  0.00  0.00    +0.000 A 
ENDBRANCH  16  17
ENDBRANCH   4  16
TORSDOF 5
ENDMDL
MODEL 3
REMARK VINA RESULT:      -6.8      1.744      2.855
REMARK  Name = 
REMARK  6 active torsions:
REMARK  status: ('A' for Active; 'I' for Inactive)
REMARK    1  A    between atoms: C_1  and  C_2
REMARK    2  A    between atoms: C_2  and  O_3
REMARK    3  A    between atoms: O_3  and  C_4
REMARK    4  A    between atoms: C_9  and  N_10
REMARK    5  A    between atoms: N_13  and  C_14
REMARK    6  A    between atoms: C_14  and  C_15
REMARK                            x       y       z     vdW  Elec       q    Type
REMARK                         _______ _______ _______ _____ _____    ______ ____
ROOT
ATOM      1  N   UNL     1       0.634   9.878  19.019  0.00  0.00    +0.000 N 
ATOM      2  C   UNL     1       1.188   8.936  18.081  0.00  0.00    +0.000 C 
ATOM      3  C   UNL     1       2.448   8.187  18.586  0.00  0.00    +0.000 C 
ATOM      4  N   UNL     1       2.289   7.397  19.808  0.00  0.00    +0.000 NA
ATOM      5  C   UNL     1       1.823   8.319  20.782  0.00  0.00    +0.000 C 
ATOM      6  C   UNL     1       0.404   9.263  20.280  0.00  0.00    +0.000 C 
ENDROOT
BRANCH   1  12
ATOM      7  C   UNL     1      -0.667  11.942  18.796  0.00  0.00    +0.000 A 
ATOM      8  C   UNL     1      -0.647  13.327  18.779  0.00  0.00    +0.000 A 
ATOM      9  C   UNL     1       0.568  13.988  18.650  0.00  0.00    +0.000 A 
ATOM     10  C   UNL     1       1.760  13.320  18.803  0.00  0.00    +0.000 A 
ATOM     11  C   UNL     1       1.728  11.949  18.869  0.00  0.00    +0.000 A 
ATOM     12  C   UNL     1       0.537  11.235  18.889  0.00  0.00    +0.000 A 
BRANCH   7  13
ATOM     13  O   UNL     1      -1.900  11.371  18.626  0.00  0.00    +0.000 OA
BRANCH  13  15
ATOM     14  C   UNL     1      -2.252   9.937  16.687  0.00  0.00    +0.000 C 
ATOM     15  C   UNL     1      -2.347  11.352  17.299  0.00  0.00    +0.000 C 
ENDBRANCH  13  15
ENDBRANCH   7  13
ENDBRANCH   1  12
BRANCH   4  16
ATOM     16  C   UNL     1       1.209   6.433  19.672  0.00  0.00    +0.000 C 
BRANCH  16  17
ATOM     17  C   UNL     1       1.709   5.008  19.720  0.00  0.00    +0.000 A 
ATOM     18  C   UNL     1       1.255   4.169  20.722  0.00  0.00    +0.000 A 
ATOM     19  C   UNL     1       1.910   2.972  20.907  0.00  0.00    +0.000 A 
ATOM     20  C   UNL     1       2.762   2.474  19.965  0.00  0.00    +0.000 A 
ATOM     21  C   UNL     1       3.156   3.257  18.955  0.00  0.00    +0.000 A 
ATOM     22  C   UNL     1       4.114   2.765  18.148  0.00  0.00    +0.000 A 
ATOM     23  C   UNL     1       4.449   3.634  17.148  0.00  0.00    +0.000 A 
ATOM     24  C   UNL     1       4.779   4.388  16.222  0.00  0.00    +0.000 A 
ATOM     25  C   UNL     1       3.569   4.918  17.474  0.00  0.00    +0.000 A 
ATOM     26  C   UNL     1       2.725   4.506  18.772  0.00  0.00    +0.000 A 
ENDBRANCH  16  17
ENDBRANCH   4  16
TORSDOF 5
ENDMDL
MODEL 4
REMARK VINA RESULT:      -6.7      1.552      2.395
REMARK  Name = 
REMARK  6 active torsions:
REMARK  status: ('A' for Active; 'I' for Inactive)
REMARK    1  A    between atoms: C_1  and  C_2
REMARK    2  A    between atoms: C_2  and  O_3
REMARK    3  A    between atoms: O_3  and  C_4
REMARK    4  A    between atoms: C_9  and  N_10
REMARK    5  A    between atoms: N_13  and  C_14
REMARK    6  A    between atoms: C_14  and  C_15
REMARK                            x       y       z     vdW  Elec       q    Type
REMARK                         _______ _______ _______ _____ _____    ______ ____
ROOT
ATOM      1  N   UNL     1       0.371  11.182  19.588  0.00  0.00    +0.000 N 
ATOM      2  C   UNL     1      -0.269   9.962  19.168  0.00  0.00    +0.000 C 
ATOM      3  C   UNL     1       0.184   9.439  17.780  0.00  0.00    +0.000 C 
ATOM      4  N   UNL     1       1.610   9.145  17.631  0.00  0.00    +0.000 NA
ATOM      5  C   UNL     1       2.271  10.359  17.955  0.00  0.00    +0.000 C 
ATOM      6  C   UNL     1       1.785  11.065  19.512  0.00  0.00    +0.000 C 
ENDROOT
BRANCH   1  12
ATOM      7  C   UNL     1      -1.116  12.676  20.836  0.00  0.00    +0.000 A 
ATOM      8  C   UNL     1      -1.552  13.976  21.031  0.00  0.00    +0.000 A 
ATOM      9  C   UNL     1      -1.243  14.948  20.087  0.00  0.00    +0.000 A 
ATOM     10  C   UNL     1      -0.303  14.715  19.111  0.00  0.00    +0.000 A 
ATOM     11  C   UNL     1       0.162  13.432  18.955  0.00  0.00    +0.000 A 
ATOM     12  C   UNL     1      -0.207  12.400  19.809  0.00  0.00    +0.000 A 
BRANCH   7  13
ATOM     13  O   UNL     1      -1.703  11.734  21.637  0.00  0.00    +0.000 OA
BRANCH  13  15
ATOM     14  C   UNL     1      -0.624  10.096  23.082  0.00  0.00    +0.000 C 
ATOM     15  C   UNL     1      -1.073  11.558  22.875  0.00  0.00    +0.000 C 
ENDBRANCH  13  15
ENDBRANCH   7  13
ENDBRANCH   1  12
BRANCH   4  16
ATOM     16  C   UNL     1       2.060   8.203  18.642  0.00  0.00    +0.000 C 
BRANCH  16  17
ATOM     17  C   UNL     1       2.956   7.132  18.064  0.00  0.00    +0.000 A 
ATOM     18  C   UNL     1       4.127   7.506  17.427  0.00  0.00    +0.000 A 
ATOM     19  C   UNL     1       4.790   6.553  16.686  0.00  0.00    +0.000 A 
ATOM     20  C   UNL     1       4.502   5.225  16.812  0.00  0.00    +0.000 A 
ATOM     21  C   UNL     1       3.407   4.852  17.482  0.00  0.00    +0.000 A 
ATOM     22  C   UNL     1       3.091   3.543  17.440  0.00  0.00    +0.000 A 
ATOM     23  C   UNL     1       1.961   3.258  18.153  0.00  0.00    +0.000 A 
ATOM     24  C   UNL     1       0.945   2.953  18.792  0.00  0.00    +0.000 A 
ATOM     25  C   UNL     1       1.475   4.688  18.651  0.00  0.00    +0.000 A 
ATOM     26  C   UNL     1       2.583   5.703  18.094  0.00  0.00    +0.000 A 
ENDBRANCH  16  17
ENDBRANCH   4  16
TORSDOF 5
ENDMDL
MODEL 5
REMARK VINA RESULT:      -6.7      1.865      2.696
REMARK  Name = 
REMARK  6 active torsions:
REMARK  status: ('A' for Active; 'I' for Inactive)
REMARK    1  A    between atoms: C_1  and  C_2
REMARK    2  A    between atoms: C_2  and  O_3
REMARK    3  A    between atoms: O_3  and  C_4
REMARK    4  A    between atoms: C_9  and  N_10
REMARK    5  A    between atoms: N_13  and  C_14
REMARK    6  A    between atoms: C_14  and  C_15
REMARK                            x       y       z     vdW  Elec       q    Type
REMARK                         _______ _______ _______ _____ _____    ______ ____
ROOT
ATOM      1  N   UNL     1       0.153  11.644  19.701  0.00  0.00    +0.000 N 
ATOM      2  C   UNL     1      -0.548  10.450  19.302  0.00  0.00    +0.000 C 
ATOM      3  C   UNL     1      -0.039   9.815  17.982  0.00  0.00    +0.000 C 
ATOM      4  N   UNL     1       1.367   9.410  17.954  0.00  0.00    +0.000 NA
ATOM      5  C   UNL     1       2.094  10.591  18.261  0.00  0.00    +0.000 C 
ATOM      6  C   UNL     1       1.556  11.422  19.737  0.00  0.00    +0.000 C 
ENDROOT
BRANCH   1  12
ATOM      7  C   UNL     1      -1.257  13.328  20.787  0.00  0.00    +0.000 A 
ATOM      8  C   UNL     1      -1.607  14.665  20.871  0.00  0.00    +0.000 A 
ATOM      9  C   UNL     1      -1.208  15.538  19.866  0.00  0.00    +0.000 A 
ATOM     10  C   UNL     1      -0.263  15.167  18.938  0.00  0.00    +0.000 A 
ATOM     11  C   UNL     1       0.115  13.847  18.893  0.00  0.00    +0.000 A 
ATOM     12  C   UNL     1      -0.344  12.912  19.811  0.00  0.00    +0.000 A 
BRANCH   7  13
ATOM     13  O   UNL     1      -1.927  12.491  21.639  0.00  0.00    +0.000 OA
BRANCH  13  15
ATOM     14  C   UNL     1      -1.020  10.737  23.065  0.00  0.00    +0.000 C 
ATOM     15  C   UNL     1      -1.262  12.246  22.847  0.00  0.00    +0.000 C 
ENDBRANCH  13  15
ENDBRANCH   7  13
ENDBRANCH   1  12
BRANCH   4  16
ATOM     16  C   UNL     1       1.672   8.500  19.046  0.00  0.00    +0.000 C 
BRANCH  16  17
ATOM     17  C   UNL     1       2.571   7.367  18.608  0.00  0.00    +0.000 A 
ATOM     18  C   UNL     1       3.501   7.593  17.609  0.00  0.00    +0.000 A 
ATOM     19  C   UNL     1       4.121   6.500  17.046  0.00  0.00    +0.000 A 
ATOM     20  C   UNL     1       4.073   5.271  17.638  0.00  0.00    +0.000 A 
ATOM     21  C   UNL     1       3.223   5.061  18.648  0.00  0.00    +0.000 A 
ATOM     22  C   UNL     1       3.108   3.793  19.087  0.00  0.00    +0.000 A 
ATOM     23  C   UNL     1       2.220   3.678  20.119  0.00  0.00    +0.000 A 
ATOM     24  C   UNL     1       1.428   3.529  21.060  0.00  0.00    +0.000 A 
ATOM     25  C   UNL     1       1.644   5.153  20.268  0.00  0.00    +0.000 A 
ATOM     26  C   UNL     1       2.434   6.005  19.165  0.00  0.00    +0.000 A 
ENDBRANCH  16  17
ENDBRANCH   4  16
TORSDOF 5
ENDMDL
MODEL 6
REMARK VINA RESULT:      -6.7      2.963      8.725
REMARK  Name = 
REMARK  6 active torsions:
REMARK  status: ('A' for Active; 'I' for Inactive)
REMARK    1  A    between atoms: C_1  and  C_2
REMARK    2  A    between atoms: C_2  and  O_3
REMARK    3  A    between atoms: O_3  and  C_4
REMARK    4  A    between atoms: C_9  and  N_10
REMARK    5  A    between atoms: N_13  and  C_14
REMARK    6  A    between atoms: C_14  and  C_15
REMARK                            x       y       z     vdW  Elec       q    Type
REMARK                         _______ _______ _______ _____ _____    ______ ____
ROOT
ATOM      1  N   UNL     1       4.362   6.320  17.984  0.00  0.00    +0.000 N 
ATOM      2  C   UNL     1       3.719   7.597  17.810  0.00  0.00    +0.000 C 
ATOM      3  C   UNL     1       2.177   7.571  17.969  0.00  0.00    +0.000 C 
ATOM      4  N   UNL     1       1.664   7.104  19.257  0.00  0.00    +0.000 NA
ATOM      5  C   UNL     1       2.212   5.804  19.420  0.00  0.00    +0.000 C 
ATOM      6  C   UNL     1       3.975   5.719  19.212  0.00  0.00    +0.000 C 
ENDROOT
BRANCH   1  12
ATOM      7  C   UNL     1       6.272   5.998  16.485  0.00  0.00    +0.000 A 
ATOM      8  C   UNL     1       6.947   5.134  15.637  0.00  0.00    +0.000 A 
ATOM      9  C   UNL     1       6.317   3.972  15.209  0.00  0.00    +0.000 A 
ATOM     10  C   UNL     1       5.159   3.530  15.804  0.00  0.00    +0.000 A 
ATOM     11  C   UNL     1       4.522   4.374  16.682  0.00  0.00    +0.000 A 
ATOM     12  C   UNL     1       5.059   5.598  17.057  0.00  0.00    +0.000 A 
BRANCH   7  13
ATOM     13  O   UNL     1       6.830   7.241  16.620  0.00  0.00    +0.000 OA
BRANCH  13  15
ATOM     14  C   UNL     1       8.167   8.829  17.895  0.00  0.00    +0.000 C 
ATOM     15  C   UNL     1       7.680   7.374  17.725  0.00  0.00    +0.000 C 
ENDBRANCH  13  15
ENDBRANCH   7  13
ENDBRANCH   1  12
BRANCH   4  16
ATOM     16  C   UNL     1       2.222   7.875  20.355  0.00  0.00    +0.000 C 
BRANCH  16  17
ATOM     17  C   UNL     1       1.208   8.816  20.963  0.00  0.00    +0.000 A 
ATOM     18  C   UNL     1       0.516   8.421  22.095  0.00  0.00    +0.000 A 
ATOM     19  C   UNL     1      -0.576   9.168  22.476  0.00  0.00    +0.000 A 
ATOM     20  C   UNL     1      -0.798  10.415  21.969  0.00  0.00    +0.000 A 
ATOM     21  C   UNL     1      -0.088  10.832  20.915  0.00  0.00    +0.000 A 
ATOM     22  C   UNL     1      -0.458  12.003  20.363  0.00  0.00    +0.000 A 
ATOM     23  C   UNL     1       0.325  12.345  19.297  0.00  0.00    +0.000 A 
ATOM     24  C   UNL     1       1.013  12.697  18.329  0.00  0.00    +0.000 A 
ATOM     25  C   UNL     1       1.298  11.096  19.145  0.00  0.00    +0.000 A 
ATOM     26  C   UNL     1       0.881  10.116  20.342  0.00  0.00    +0.000 A 
ENDBRANCH  16  17
ENDBRANCH   4  16
TORSDOF 5
ENDMDL
MODEL 7
REMARK VINA RESULT:      -6.7      1.619      2.811
REMARK  Name = 
REMARK  6 active torsions:
REMARK  status: ('A' for Active; 'I' for Inactive)
REMARK    1  A    between atoms: C_1  and  C_2
REMARK    2  A    between atoms: C_2  and  O_3
REMARK    3  A    between atoms: O_3  and  C_4
REMARK    4  A    between atoms: C_9  and  N_10
REMARK    5  A    between atoms: N_13  and  C_14
REMARK    6  A    between atoms: C_14  and  C_15
REMARK                            x       y       z     vdW  Elec       q    Type
REMARK                         _______ _______ _______ _____ _____    ______ ____
ROOT
ATOM      1  N   UNL     1      -0.309  10.726  20.977  0.00  0.00    +0.000 N 
ATOM      2  C   UNL     1       1.082  10.611  21.334  0.00  0.00    +0.000 C 
ATOM      3  C   UNL     1       1.436   9.342  22.152  0.00  0.00    +0.000 C 
ATOM      4  N   UNL     1       1.139   8.057  21.519  0.00  0.00    +0.000 NA
ATOM      5  C   UNL     1      -0.251   8.102  21.232  0.00  0.00    +0.000 C 
ATOM      6  C   UNL     1      -0.767   9.545  20.332  0.00  0.00    +0.000 C 
ENDROOT
BRANCH   1  12
ATOM      7  C   UNL     1      -2.000  12.434  20.506  0.00  0.00    +0.000 A 
ATOM      8  C   UNL     1      -2.950  13.298  21.027  0.00  0.00    +0.000 A 
ATOM      9  C   UNL     1      -2.959  13.557  22.392  0.00  0.00    +0.000 A 
ATOM     10  C   UNL     1      -2.230  12.785  23.266  0.00  0.00    +0.000 A 
ATOM     11  C   UNL     1      -1.325  11.894  22.740  0.00  0.00    +0.000 A 
ATOM     12  C   UNL     1      -1.201  11.682  21.374  0.00  0.00    +0.000 A 
BRANCH   7  13
ATOM     13  O   UNL     1      -1.866  12.463  19.144  0.00  0.00    +0.000 OA
BRANCH  13  15
ATOM     14  C   UNL     1      -2.342  11.014  17.244  0.00  0.00    +0.000 C 
ATOM     15  C   UNL     1      -2.890  11.807  18.450  0.00  0.00    +0.000 C 
ENDBRANCH  13  15
ENDBRANCH   7  13
ENDBRANCH   1  12
BRANCH   4  16
ATOM     16  C   UNL     1       1.778   7.952  20.218  0.00  0.00    +0.000 C 
BRANCH  16  17
ATOM     17  C   UNL     1       2.203   6.537  19.904  0.00  0.00    +0.000 A 
ATOM     18  C   UNL     1       1.774   5.507  20.722  0.00  0.00    +0.000 A 
ATOM     19  C   UNL     1       2.376   4.277  20.580  0.00  0.00    +0.000 A 
ATOM     20  C   UNL     1       3.136   3.978  19.487  0.00  0.00    +0.000 A 
ATOM     21  C   UNL     1       3.502   4.957  18.654  0.00  0.00    +0.000 A 
ATOM     22  C   UNL     1       4.377   4.629  17.685  0.00  0.00    +0.000 A 
ATOM     23  C   UNL     1       4.690   5.692  16.885  0.00  0.00    +0.000 A 
ATOM     24  C   UNL     1       4.997   6.625  16.131  0.00  0.00    +0.000 A 
ATOM     25  C   UNL     1       3.903   6.898  17.559  0.00  0.00    +0.000 A 
ATOM     26  C   UNL     1       3.126   6.230  18.791  0.00  0.00    +0.000 A 
ENDBRANCH  16  17
ENDBRANCH   4  16
TORSDOF 5
ENDMDL
MODEL 8
REMARK VINA RESULT:      -6.6      2.421      3.555
REMARK  Name = 
REMARK  6 active torsions:
REMARK  status: ('A' for Active; 'I' for Inactive)
REMARK    1  A    between atoms: C_1  and  C_2
REMARK    2  A    between atoms: C_2  and  O_3
REMARK    3  A    between atoms: O_3  and  C_4
REMARK    4  A    between atoms: C_9  and  N_10
REMARK    5  A    between atoms: N_13  and  C_14
REMARK    6  A    between atoms: C_14  and  C_15
REMARK                            x       y       z     vdW  Elec       q    Type
REMARK                         _______ _______ _______ _____ _____    ______ ____
ROOT
ATOM      1  N   UNL     1      -1.382  11.743  22.303  0.00  0.00    +0.000 N 
ATOM      2  C   UNL     1      -0.622  11.831  21.082  0.00  0.00    +0.000 C 
ATOM      3  C   UNL     1       0.864  11.410  21.216  0.00  0.00    +0.000 C 
ATOM      4  N   UNL     1       1.114  10.043  21.674  0.00  0.00    +0.000 NA
ATOM      5  C   UNL     1       0.447   9.948  22.924  0.00  0.00    +0.000 C 
ATOM      6  C   UNL     1      -1.256  10.453  22.887  0.00  0.00    +0.000 C 
ENDROOT
BRANCH   1  12
ATOM      7  C   UNL     1      -3.341  12.877  23.240  0.00  0.00    +0.000 A 
ATOM      8  C   UNL     1      -3.810  13.891  24.058  0.00  0.00    +0.000 A 
ATOM      9  C   UNL     1      -2.939  14.893  24.469  0.00  0.00    +0.000 A 
ATOM     10  C   UNL     1      -1.580  14.763  24.304  0.00  0.00    +0.000 A 
ATOM     11  C   UNL     1      -1.119  13.726  23.530  0.00  0.00    +0.000 A 
ATOM     12  C   UNL     1      -1.967  12.760  23.004  0.00  0.00    +0.000 A 
BRANCH   7  13
ATOM     13  O   UNL     1      -4.306  12.110  22.644  0.00  0.00    +0.000 OA
BRANCH  13  15
ATOM     14  C   UNL     1      -6.531  12.554  21.757  0.00  0.00    +0.000 C 
ATOM     15  C   UNL     1      -5.007  12.760  21.620  0.00  0.00    +0.000 C 
ENDBRANCH  13  15
ENDBRANCH   7  13
ENDBRANCH   1  12
BRANCH   4  16
ATOM     16  C   UNL     1       0.440   9.074  20.826  0.00  0.00    +0.000 C 
BRANCH  16  17
ATOM     17  C   UNL     1       1.385   8.418  19.847  0.00  0.00    +0.000 A 
ATOM     18  C   UNL     1       1.823   9.137  18.748  0.00  0.00    +0.000 A 
ATOM     19  C   UNL     1       2.463   8.450  17.741  0.00  0.00    +0.000 A 
ATOM     20  C   UNL     1       2.935   7.184  17.931  0.00  0.00    +0.000 A 
ATOM     21  C   UNL     1       2.569   6.504  19.023  0.00  0.00    +0.000 A 
ATOM     22  C   UNL     1       2.937   5.210  19.079  0.00  0.00    +0.000 A 
ATOM     23  C   UNL     1       2.520   4.600  20.229  0.00  0.00    +0.000 A 
ATOM     24  C   UNL     1       2.168   4.010  21.259  0.00  0.00    +0.000 A 
ATOM     25  C   UNL     1       1.680   5.737  20.959  0.00  0.00    +0.000 A 
ATOM     26  C   UNL     1       1.798   7.006  19.988  0.00  0.00    +0.000 A 
ENDBRANCH  16  17
ENDBRANCH   4  16
TORSDOF 5
ENDMDL
MODEL 9
REMARK VINA RESULT:      -6.6      2.526      8.301
REMARK  Name = 
REMARK  6 active torsions:
REMARK  status: ('A' for Active; 'I' for Inactive)
REMARK    1  A    between atoms: C_1  and  C_2
REMARK    2  A    between atoms: C_2  and  O_3
REMARK    3  A    between atoms: O_3  and  C_4
REMARK    4  A    between atoms: C_9  and  N_10
REMARK    5  A    between atoms: N_13  and  C_14
REMARK    6  A    between atoms: C_14  and  C_15
REMARK                            x       y       z     vdW  Elec       q    Type
REMARK                         _______ _______ _______ _____ _____    ______ ____
ROOT
ATOM      1  N   UNL     1       2.718   6.981  18.570  0.00  0.00    +0.000 N 
ATOM      2  C   UNL     1       1.831   7.249  19.673  0.00  0.00    +0.000 C 
ATOM      3  C   UNL     1       1.728   8.745  20.070  0.00  0.00    +0.000 C 
ATOM      4  N   UNL     1       1.264   9.663  19.029  0.00  0.00    +0.000 NA
ATOM      5  C   UNL     1       2.174   9.486  17.953  0.00  0.00    +0.000 C 
ATOM      6  C   UNL     1       2.397   7.796  17.451  0.00  0.00    +0.000 C 
ENDROOT
BRANCH   1  12
ATOM      7  C   UNL     1       4.052   5.051  19.274  0.00  0.00    +0.000 A 
ATOM      8  C   UNL     1       5.233   4.342  19.123  0.00  0.00    +0.000 A 
ATOM      9  C   UNL     1       6.297   4.929  18.450  0.00  0.00    +0.000 A 
ATOM     10  C   UNL     1       6.125   6.075  17.709  0.00  0.00    +0.000 A 
ATOM     11  C   UNL     1       4.932   6.746  17.828  0.00  0.00    +0.000 A 
ATOM     12  C   UNL     1       3.875   6.253  18.581  0.00  0.00    +0.000 A 
BRANCH   7  13
ATOM     13  O   UNL     1       3.173   4.537  20.189  0.00  0.00    +0.000 OA
BRANCH  13  15
ATOM     14  C   UNL     1       2.430   2.657  21.549  0.00  0.00    +0.000 C 
ATOM     15  C   UNL     1       3.225   3.144  20.318  0.00  0.00    +0.000 C 
ENDBRANCH  13  15
ENDBRANCH   7  13
ENDBRANCH   1  12
BRANCH   4  16
ATOM     16  C   UNL     1      -0.020   9.243  18.494  0.00  0.00    +0.000 C 
BRANCH  16  17
ATOM     17  C   UNL     1      -1.059  10.337  18.583  0.00  0.00    +0.000 A 
ATOM     18  C   UNL     1      -1.072  11.165  19.692  0.00  0.00    +0.000 A 
ATOM     19  C   UNL     1      -2.171  11.972  19.882  0.00  0.00    +0.000 A 
ATOM     20  C   UNL     1      -3.070  12.197  18.881  0.00  0.00    +0.000 A 
ATOM     21  C   UNL     1      -3.025  11.444  17.776  0.00  0.00    +0.000 A 
ATOM     22  C   UNL     1      -4.030  11.606  16.895  0.00  0.00    +0.000 A 
ATOM     23  C   UNL     1      -3.898  10.798  15.801  0.00  0.00    +0.000 A 
ATOM     24  C   UNL     1      -3.814  10.088  14.790  0.00  0.00    +0.000 A 
ATOM     25  C   UNL     1      -2.601   9.940  16.139  0.00  0.00    +0.000 A 
ATOM     26  C   UNL     1      -2.109  10.500  17.557  0.00  0.00    +0.000 A 
ENDBRANCH  16  17
ENDBRANCH   4  16
TORSDOF 5
ENDMDL
