MODEL 1
REMARK VINA RESULT:      -7.2      0.000      0.000
REMARK  Name = 
REMARK  7 active torsions:
REMARK  status: ('A' for Active; 'I' for Inactive)
REMARK    1  A    between atoms: C_1  and  C_2
REMARK    2  A    between atoms: C_2  and  C_3
REMARK    3  A    between atoms: C_6  and  N_7
REMARK    4  A    between atoms: C_15  and  O_16
REMARK    5  A    between atoms: O_16  and  C_17
REMARK    6  A    between atoms: C_17  and  C_18
REMARK    7  A    between atoms: C_18  and  O_20
REMARK                            x       y       z     vdW  Elec       q    Type
REMARK                         _______ _______ _______ _____ _____    ______ ____
ROOT
ATOM      1  C   UNL     1       1.617  11.662  18.659  0.00  0.00    +0.000 C 
ATOM      2  C   UNL     1       0.807  10.512  19.303  0.00  0.00    +0.000 C 
ATOM      3  C   UNL     1       0.503  10.877  20.784  0.00  0.00    +0.000 C 
ATOM      4  C   UNL     1      -0.820  11.573  20.724  0.00  0.00    +0.000 A 
ATOM      5  C   UNL     1      -1.381  12.337  21.731  0.00  0.00    +0.000 A 
ATOM      6  C   UNL     1      -2.629  12.930  21.515  0.00  0.00    +0.000 A 
ATOM      7  C   UNL     1      -3.340  12.658  20.316  0.00  0.00    +0.000 A 
ATOM      8 CL   UNL     1      -4.913  13.372  20.109  0.00  0.00    +0.000 Cl
ATOM      9  C   UNL     1      -2.771  11.851  19.307  0.00  0.00    +0.000 A 
ATOM     10 CL   UNL     1      -3.599  11.547  17.825  0.00  0.00    +0.000 Cl
ATOM     11  C   UNL     1      -1.503  11.337  19.536  0.00  0.00    +0.000 A 
ATOM     12  C   UNL     1      -0.603  10.549  18.679  0.00  0.00    +0.000 C 
ATOM     13  O   UNL     1      -0.935  10.079  17.605  0.00  0.00    +0.000 OA
ENDROOT
BRANCH   2  14
ATOM     14  C   UNL     1       1.542   9.182  19.090  0.00  0.00    +0.000 A 
ATOM     15  C   UNL     1       2.239   8.872  17.907  0.00  0.00    +0.000 A 
ATOM     16  C   UNL     1       2.896   7.646  17.748  0.00  0.00    +0.000 A 
ATOM     17  C   UNL     1       2.845   6.694  18.768  0.00  0.00    +0.000 A 
ATOM     18  C   UNL     1       2.142   6.961  19.944  0.00  0.00    +0.000 A 
ATOM     19  C   UNL     1       1.503   8.195  20.096  0.00  0.00    +0.000 A 
BRANCH  17  20
ATOM     20  N   UNL     1       3.529   5.407  18.600  0.00  0.00    +0.000 N 
ATOM     21  O   UNL     1       4.638   5.270  19.138  0.00  0.00    +0.000 OA
ATOM     22  O   UNL     1       2.962   4.534  17.930  0.00  0.00    +0.000 OA
ENDBRANCH  17  20
ENDBRANCH   2  14
BRANCH   6  23
ATOM     23  O   UNL     1      -3.210  13.785  22.428  0.00  0.00    +0.000 OA
BRANCH  23  24
ATOM     24  C   UNL     1      -3.151  13.348  23.792  0.00  0.00    +0.000 C 
BRANCH  24  25
ATOM     25  C   UNL     1      -4.453  12.722  24.239  0.00  0.00    +0.000 C 
ATOM     26  O   UNL     1      -5.371  12.458  23.477  0.00  0.00    +0.000 OA
BRANCH  25  27
ATOM     27  O   UNL     1      -4.513  12.479  25.571  0.00  0.00    +0.000 OA
ATOM     28  H   UNL     1      -4.917  11.603  25.746  0.00  0.00    +0.000 HD
ENDBRANCH  25  27
ENDBRANCH  24  25
ENDBRANCH  23  24
ENDBRANCH   6  23
TORSDOF 6
ENDMDL
MODEL 2
REMARK VINA RESULT:      -7.0      0.425      1.066
REMARK  Name = 
REMARK  7 active torsions:
REMARK  status: ('A' for Active; 'I' for Inactive)
REMARK    1  A    between atoms: C_1  and  C_2
REMARK    2  A    between atoms: C_2  and  C_3
REMARK    3  A    between atoms: C_6  and  N_7
REMARK    4  A    between atoms: C_15  and  O_16
REMARK    5  A    between atoms: O_16  and  C_17
REMARK    6  A    between atoms: C_17  and  C_18
REMARK    7  A    between atoms: C_18  and  O_20
REMARK                            x       y       z     vdW  Elec       q    Type
REMARK                         _______ _______ _______ _____ _____    ______ ____
ROOT
ATOM      1  C   UNL     1       1.563  11.687  18.593  0.00  0.00    +0.000 C 
ATOM      2  C   UNL     1       0.764  10.572  19.311  0.00  0.00    +0.000 C 
ATOM      3  C   UNL     1       0.515  11.000  20.785  0.00  0.00    +0.000 C 
ATOM      4  C   UNL     1      -0.802  11.708  20.742  0.00  0.00    +0.000 A 
ATOM      5  C   UNL     1      -1.321  12.518  21.736  0.00  0.00    +0.000 A 
ATOM      6  C   UNL     1      -2.570  13.116  21.538  0.00  0.00    +0.000 A 
ATOM      7  C   UNL     1      -3.324  12.804  20.375  0.00  0.00    +0.000 A 
ATOM      8 CL   UNL     1      -4.896  13.526  20.193  0.00  0.00    +0.000 Cl
ATOM      9  C   UNL     1      -2.798  11.951  19.382  0.00  0.00    +0.000 A 
ATOM     10 CL   UNL     1      -3.679  11.596  17.942  0.00  0.00    +0.000 Cl
ATOM     11  C   UNL     1      -1.529  11.432  19.588  0.00  0.00    +0.000 A 
ATOM     12  C   UNL     1      -0.666  10.599  18.734  0.00  0.00    +0.000 C 
ATOM     13  O   UNL     1      -1.039  10.091  17.691  0.00  0.00    +0.000 OA
ENDROOT
BRANCH   2  14
ATOM     14  C   UNL     1       1.479   9.226  19.127  0.00  0.00    +0.000 A 
ATOM     15  C   UNL     1       1.513   8.234  20.124  0.00  0.00    +0.000 A 
ATOM     16  C   UNL     1       2.177   7.019  19.919  0.00  0.00    +0.000 A 
ATOM     17  C   UNL     1       2.843   6.785  18.714  0.00  0.00    +0.000 A 
ATOM     18  C   UNL     1       2.848   7.759  17.715  0.00  0.00    +0.000 A 
ATOM     19  C   UNL     1       2.168   8.963  17.925  0.00  0.00    +0.000 A 
BRANCH  17  20
ATOM     20  N   UNL     1       3.543   5.514  18.501  0.00  0.00    +0.000 N 
ATOM     21  O   UNL     1       4.629   5.351  19.078  0.00  0.00    +0.000 OA
ATOM     22  O   UNL     1       3.012   4.679  17.756  0.00  0.00    +0.000 OA
ENDBRANCH  17  20
ENDBRANCH   2  14
BRANCH   6  23
ATOM     23  O   UNL     1      -3.111  14.013  22.435  0.00  0.00    +0.000 OA
BRANCH  23  24
ATOM     24  C   UNL     1      -3.072  13.599  23.806  0.00  0.00    +0.000 C 
BRANCH  24  25
ATOM     25  C   UNL     1      -4.395  13.023  24.258  0.00  0.00    +0.000 C 
ATOM     26  O   UNL     1      -4.551  11.851  24.563  0.00  0.00    +0.000 OA
BRANCH  25  27
ATOM     27  O   UNL     1      -5.401  13.930  24.293  0.00  0.00    +0.000 OA
ATOM     28  H   UNL     1      -5.070  14.805  24.586  0.00  0.00    +0.000 HD
ENDBRANCH  25  27
ENDBRANCH  24  25
ENDBRANCH  23  24
ENDBRANCH   6  23
TORSDOF 6
ENDMDL
MODEL 3
REMARK VINA RESULT:      -6.9      3.399      4.998
REMARK  Name = 
REMARK  7 active torsions:
REMARK  status: ('A' for Active; 'I' for Inactive)
REMARK    1  A    between atoms: C_1  and  C_2
REMARK    2  A    between atoms: C_2  and  C_3
REMARK    3  A    between atoms: C_6  and  N_7
REMARK    4  A    between atoms: C_15  and  O_16
REMARK    5  A    between atoms: O_16  and  C_17
REMARK    6  A    between atoms: C_17  and  C_18
REMARK    7  A    between atoms: C_18  and  O_20
REMARK                            x       y       z     vdW  Elec       q    Type
REMARK                         _______ _______ _______ _____ _____    ______ ____
ROOT
ATOM      1  C   UNL     1       1.303   5.934  17.861  0.00  0.00    +0.000 C 
ATOM      2  C   UNL     1       2.414   6.974  18.142  0.00  0.00    +0.000 C 
ATOM      3  C   UNL     1       2.064   8.298  17.405  0.00  0.00    +0.000 C 
ATOM      4  C   UNL     1       1.283   9.081  18.413  0.00  0.00    +0.000 A 
ATOM      5  C   UNL     1       0.508  10.196  18.150  0.00  0.00    +0.000 A 
ATOM      6  C   UNL     1      -0.168  10.814  19.207  0.00  0.00    +0.000 A 
ATOM      7  C   UNL     1       0.030  10.353  20.536  0.00  0.00    +0.000 A 
ATOM      8 CL   UNL     1      -0.786  11.183  21.828  0.00  0.00    +0.000 Cl
ATOM      9  C   UNL     1       0.849   9.234  20.796  0.00  0.00    +0.000 A 
ATOM     10 CL   UNL     1       1.067   8.631  22.398  0.00  0.00    +0.000 Cl
ATOM     11  C   UNL     1       1.448   8.611  19.711  0.00  0.00    +0.000 A 
ATOM     12  C   UNL     1       2.273   7.396  19.619  0.00  0.00    +0.000 C 
ATOM     13  O   UNL     1       2.696   6.793  20.591  0.00  0.00    +0.000 OA
ENDROOT
BRANCH   2  14
ATOM     14  C   UNL     1       3.783   6.371  17.800  0.00  0.00    +0.000 A 
ATOM     15  C   UNL     1       4.888   7.150  17.408  0.00  0.00    +0.000 A 
ATOM     16  C   UNL     1       6.121   6.563  17.102  0.00  0.00    +0.000 A 
ATOM     17  C   UNL     1       6.263   5.174  17.160  0.00  0.00    +0.000 A 
ATOM     18  C   UNL     1       5.180   4.373  17.521  0.00  0.00    +0.000 A 
ATOM     19  C   UNL     1       3.957   4.972  17.839  0.00  0.00    +0.000 A 
BRANCH  17  20
ATOM     20  N   UNL     1       7.553   4.559  16.834  0.00  0.00    +0.000 N 
ATOM     21  O   UNL     1       7.870   4.483  15.637  0.00  0.00    +0.000 OA
ATOM     22  O   UNL     1       8.251   4.147  17.772  0.00  0.00    +0.000 OA
ENDBRANCH  17  20
ENDBRANCH   2  14
BRANCH   6  23
ATOM     23  O   UNL     1      -1.037  11.867  19.014  0.00  0.00    +0.000 OA
BRANCH  23  24
ATOM     24  C   UNL     1      -1.751  11.845  17.771  0.00  0.00    +0.000 C 
BRANCH  24  25
ATOM     25  C   UNL     1      -3.142  11.272  17.931  0.00  0.00    +0.000 C 
ATOM     26  O   UNL     1      -3.405  10.089  17.777  0.00  0.00    +0.000 OA
BRANCH  25  27
ATOM     27  O   UNL     1      -4.078  12.194  18.261  0.00  0.00    +0.000 OA
ATOM     28  H   UNL     1      -4.918  12.022  17.787  0.00  0.00    +0.000 HD
ENDBRANCH  25  27
ENDBRANCH  24  25
ENDBRANCH  23  24
ENDBRANCH   6  23
TORSDOF 6
ENDMDL
MODEL 4
REMARK VINA RESULT:      -6.9      3.381      5.159
REMARK  Name = 
REMARK  7 active torsions:
REMARK  status: ('A' for Active; 'I' for Inactive)
REMARK    1  A    between atoms: C_1  and  C_2
REMARK    2  A    between atoms: C_2  and  C_3
REMARK    3  A    between atoms: C_6  and  N_7
REMARK    4  A    between atoms: C_15  and  O_16
REMARK    5  A    between atoms: O_16  and  C_17
REMARK    6  A    between atoms: C_17  and  C_18
REMARK    7  A    between atoms: C_18  and  O_20
REMARK                            x       y       z     vdW  Elec       q    Type
REMARK                         _______ _______ _______ _____ _____    ______ ____
ROOT
ATOM      1  C   UNL     1       1.255   5.930  17.852  0.00  0.00    +0.000 C 
ATOM      2  C   UNL     1       2.409   6.920  18.141  0.00  0.00    +0.000 C 
ATOM      3  C   UNL     1       2.124   8.257  17.400  0.00  0.00    +0.000 C 
ATOM      4  C   UNL     1       1.371   9.076  18.400  0.00  0.00    +0.000 A 
ATOM      5  C   UNL     1       0.648  10.224  18.130  0.00  0.00    +0.000 A 
ATOM      6  C   UNL     1      -0.008  10.873  19.180  0.00  0.00    +0.000 A 
ATOM      7  C   UNL     1       0.159  10.406  20.512  0.00  0.00    +0.000 A 
ATOM      8 CL   UNL     1      -0.630  11.273  21.796  0.00  0.00    +0.000 Cl
ATOM      9  C   UNL     1       0.925   9.252  20.780  0.00  0.00    +0.000 A 
ATOM     10 CL   UNL     1       1.102   8.642  22.384  0.00  0.00    +0.000 Cl
ATOM     11  C   UNL     1       1.504   8.601  19.701  0.00  0.00    +0.000 A 
ATOM     12  C   UNL     1       2.275   7.350  19.617  0.00  0.00    +0.000 C 
ATOM     13  O   UNL     1       2.662   6.730  20.593  0.00  0.00    +0.000 OA
ENDROOT
BRANCH   2  14
ATOM     14  C   UNL     1       3.752   6.256  17.811  0.00  0.00    +0.000 A 
ATOM     15  C   UNL     1       4.027   4.904  18.088  0.00  0.00    +0.000 A 
ATOM     16  C   UNL     1       5.267   4.334  17.773  0.00  0.00    +0.000 A 
ATOM     17  C   UNL     1       6.267   5.120  17.196  0.00  0.00    +0.000 A 
ATOM     18  C   UNL     1       6.033   6.470  16.932  0.00  0.00    +0.000 A 
ATOM     19  C   UNL     1       4.786   7.024  17.236  0.00  0.00    +0.000 A 
BRANCH  17  20
ATOM     20  N   UNL     1       7.567   4.525  16.871  0.00  0.00    +0.000 N 
ATOM     21  O   UNL     1       8.270   4.128  17.812  0.00  0.00    +0.000 OA
ATOM     22  O   UNL     1       7.889   4.455  15.677  0.00  0.00    +0.000 OA
ENDBRANCH  17  20
ENDBRANCH   2  14
BRANCH   6  23
ATOM     23  O   UNL     1      -0.828  11.964  18.979  0.00  0.00    +0.000 OA
BRANCH  23  24
ATOM     24  C   UNL     1      -2.231  11.671  18.950  0.00  0.00    +0.000 C 
BRANCH  24  25
ATOM     25  C   UNL     1      -2.725  11.423  17.542  0.00  0.00    +0.000 C 
ATOM     26  O   UNL     1      -3.748  10.808  17.285  0.00  0.00    +0.000 OA
BRANCH  25  27
ATOM     27  O   UNL     1      -1.923  11.946  16.582  0.00  0.00    +0.000 OA
ATOM     28  H   UNL     1      -1.091  11.434  16.508  0.00  0.00    +0.000 HD
ENDBRANCH  25  27
ENDBRANCH  24  25
ENDBRANCH  23  24
ENDBRANCH   6  23
TORSDOF 6
ENDMDL
MODEL 5
REMARK VINA RESULT:      -6.9      3.155      4.853
REMARK  Name = 
REMARK  7 active torsions:
REMARK  status: ('A' for Active; 'I' for Inactive)
REMARK    1  A    between atoms: C_1  and  C_2
REMARK    2  A    between atoms: C_2  and  C_3
REMARK    3  A    between atoms: C_6  and  N_7
REMARK    4  A    between atoms: C_15  and  O_16
REMARK    5  A    between atoms: O_16  and  C_17
REMARK    6  A    between atoms: C_17  and  C_18
REMARK    7  A    between atoms: C_18  and  O_20
REMARK                            x       y       z     vdW  Elec       q    Type
REMARK                         _______ _______ _______ _____ _____    ______ ____
ROOT
ATOM      1  C   UNL     1       1.417   6.119  17.815  0.00  0.00    +0.000 C 
ATOM      2  C   UNL     1       2.484   7.097  18.363  0.00  0.00    +0.000 C 
ATOM      3  C   UNL     1       2.354   8.455  17.617  0.00  0.00    +0.000 C 
ATOM      4  C   UNL     1       1.410   9.248  18.464  0.00  0.00    +0.000 A 
ATOM      5  C   UNL     1       0.755  10.405  18.084  0.00  0.00    +0.000 A 
ATOM      6  C   UNL     1      -0.104  11.027  18.996  0.00  0.00    +0.000 A 
ATOM      7  C   UNL     1      -0.212  10.522  20.319  0.00  0.00    +0.000 A 
ATOM      8 CL   UNL     1      -1.250  11.355  21.439  0.00  0.00    +0.000 Cl
ATOM      9  C   UNL     1       0.485   9.358  20.706  0.00  0.00    +0.000 A 
ATOM     10 CL   UNL     1       0.332   8.702  22.294  0.00  0.00    +0.000 Cl
ATOM     11  C   UNL     1       1.275   8.736  19.750  0.00  0.00    +0.000 A 
ATOM     12  C   UNL     1       2.050   7.485  19.791  0.00  0.00    +0.000 C 
ATOM     13  O   UNL     1       2.231   6.837  20.807  0.00  0.00    +0.000 OA
ENDROOT
BRANCH   2  14
ATOM     14  C   UNL     1       3.869   6.438  18.296  0.00  0.00    +0.000 A 
ATOM     15  C   UNL     1       4.280   5.426  19.184  0.00  0.00    +0.000 A 
ATOM     16  C   UNL     1       5.552   4.850  19.093  0.00  0.00    +0.000 A 
ATOM     17  C   UNL     1       6.450   5.298  18.121  0.00  0.00    +0.000 A 
ATOM     18  C   UNL     1       6.081   6.317  17.241  0.00  0.00    +0.000 A 
ATOM     19  C   UNL     1       4.802   6.873  17.332  0.00  0.00    +0.000 A 
BRANCH  17  20
ATOM     20  N   UNL     1       7.785   4.698  18.028  0.00  0.00    +0.000 N 
ATOM     21  O   UNL     1       8.513   4.756  19.031  0.00  0.00    +0.000 OA
ATOM     22  O   UNL     1       8.109   4.171  16.955  0.00  0.00    +0.000 OA
ENDBRANCH  17  20
ENDBRANCH   2  14
BRANCH   6  23
ATOM     23  O   UNL     1      -0.868  12.125  18.662  0.00  0.00    +0.000 OA
BRANCH  23  24
ATOM     24  C   UNL     1      -1.881  11.883  17.677  0.00  0.00    +0.000 C 
BRANCH  24  25
ATOM     25  C   UNL     1      -3.189  11.458  18.308  0.00  0.00    +0.000 C 
ATOM     26  O   UNL     1      -3.751  12.093  19.187  0.00  0.00    +0.000 OA
BRANCH  25  27
ATOM     27  O   UNL     1      -3.684  10.300  17.809  0.00  0.00    +0.000 OA
ATOM     28  H   UNL     1      -4.641  10.218  18.004  0.00  0.00    +0.000 HD
ENDBRANCH  25  27
ENDBRANCH  24  25
ENDBRANCH  23  24
ENDBRANCH   6  23
TORSDOF 6
ENDMDL
MODEL 6
REMARK VINA RESULT:      -6.9      4.179      9.298
REMARK  Name = 
REMARK  7 active torsions:
REMARK  status: ('A' for Active; 'I' for Inactive)
REMARK    1  A    between atoms: C_1  and  C_2
REMARK    2  A    between atoms: C_2  and  C_3
REMARK    3  A    between atoms: C_6  and  N_7
REMARK    4  A    between atoms: C_15  and  O_16
REMARK    5  A    between atoms: O_16  and  C_17
REMARK    6  A    between atoms: C_17  and  C_18
REMARK    7  A    between atoms: C_18  and  O_20
REMARK                            x       y       z     vdW  Elec       q    Type
REMARK                         _______ _______ _______ _____ _____    ______ ____
ROOT
ATOM      1  C   UNL     1       1.931  10.726  19.829  0.00  0.00    +0.000 C 
ATOM      2  C   UNL     1       1.054   9.751  19.008  0.00  0.00    +0.000 C 
ATOM      3  C   UNL     1       1.809   9.369  17.703  0.00  0.00    +0.000 C 
ATOM      4  C   UNL     1       2.572   8.136  18.070  0.00  0.00    +0.000 A 
ATOM      5  C   UNL     1       3.611   7.579  17.347  0.00  0.00    +0.000 A 
ATOM      6  C   UNL     1       4.228   6.422  17.831  0.00  0.00    +0.000 A 
ATOM      7  C   UNL     1       3.717   5.784  18.993  0.00  0.00    +0.000 A 
ATOM      8 CL   UNL     1       4.479   4.316  19.532  0.00  0.00    +0.000 Cl
ATOM      9  C   UNL     1       2.636   6.344  19.706  0.00  0.00    +0.000 A 
ATOM     10 CL   UNL     1       2.030   5.610  21.145  0.00  0.00    +0.000 Cl
ATOM     11  C   UNL     1       2.096   7.528  19.227  0.00  0.00    +0.000 A 
ATOM     12  C   UNL     1       1.044   8.406  19.764  0.00  0.00    +0.000 C 
ATOM     13  O   UNL     1       0.344   8.114  20.718  0.00  0.00    +0.000 OA
ENDROOT
BRANCH   2  14
ATOM     14  C   UNL     1      -0.342  10.357  18.808  0.00  0.00    +0.000 A 
ATOM     15  C   UNL     1      -0.881  11.337  19.662  0.00  0.00    +0.000 A 
ATOM     16  C   UNL     1      -2.160  11.866  19.449  0.00  0.00    +0.000 A 
ATOM     17  C   UNL     1      -2.935  11.400  18.385  0.00  0.00    +0.000 A 
ATOM     18  C   UNL     1      -2.439  10.411  17.535  0.00  0.00    +0.000 A 
ATOM     19  C   UNL     1      -1.154   9.902  17.749  0.00  0.00    +0.000 A 
BRANCH  17  20
ATOM     20  N   UNL     1      -4.277  11.949  18.164  0.00  0.00    +0.000 N 
ATOM     21  O   UNL     1      -4.737  11.902  17.014  0.00  0.00    +0.000 OA
ATOM     22  O   UNL     1      -4.872  12.431  19.138  0.00  0.00    +0.000 OA
ENDBRANCH  17  20
ENDBRANCH   2  14
BRANCH   6  23
ATOM     23  O   UNL     1       5.333   5.862  17.223  0.00  0.00    +0.000 OA
BRANCH  23  24
ATOM     24  C   UNL     1       6.596   6.356  17.686  0.00  0.00    +0.000 C 
BRANCH  24  25
ATOM     25  C   UNL     1       7.564   5.233  17.987  0.00  0.00    +0.000 C 
ATOM     26  O   UNL     1       7.983   4.460  17.139  0.00  0.00    +0.000 OA
BRANCH  25  27
ATOM     27  O   UNL     1       7.926   5.160  19.290  0.00  0.00    +0.000 OA
ATOM     28  H   UNL     1       8.898   5.074  19.376  0.00  0.00    +0.000 HD
ENDBRANCH  25  27
ENDBRANCH  24  25
ENDBRANCH  23  24
ENDBRANCH   6  23
TORSDOF 6
ENDMDL
MODEL 7
REMARK VINA RESULT:      -6.9      4.201      9.221
REMARK  Name = 
REMARK  7 active torsions:
REMARK  status: ('A' for Active; 'I' for Inactive)
REMARK    1  A    between atoms: C_1  and  C_2
REMARK    2  A    between atoms: C_2  and  C_3
REMARK    3  A    between atoms: C_6  and  N_7
REMARK    4  A    between atoms: C_15  and  O_16
REMARK    5  A    between atoms: O_16  and  C_17
REMARK    6  A    between atoms: C_17  and  C_18
REMARK    7  A    between atoms: C_18  and  O_20
REMARK                            x       y       z     vdW  Elec       q    Type
REMARK                         _______ _______ _______ _____ _____    ______ ____
ROOT
ATOM      1  C   UNL     1       1.908  10.637  19.782  0.00  0.00    +0.000 C 
ATOM      2  C   UNL     1       1.063   9.640  18.953  0.00  0.00    +0.000 C 
ATOM      3  C   UNL     1       1.845   9.268  17.661  0.00  0.00    +0.000 C 
ATOM      4  C   UNL     1       2.629   8.053  18.046  0.00  0.00    +0.000 A 
ATOM      5  C   UNL     1       3.690   7.515  17.340  0.00  0.00    +0.000 A 
ATOM      6  C   UNL     1       4.324   6.373  17.839  0.00  0.00    +0.000 A 
ATOM      7  C   UNL     1       3.810   5.731  18.998  0.00  0.00    +0.000 A 
ATOM      8 CL   UNL     1       4.595   4.282  19.555  0.00  0.00    +0.000 Cl
ATOM      9  C   UNL     1       2.707   6.271  19.692  0.00  0.00    +0.000 A 
ATOM     10 CL   UNL     1       2.096   5.532  21.126  0.00  0.00    +0.000 Cl
ATOM     11  C   UNL     1       2.149   7.441  19.199  0.00  0.00    +0.000 A 
ATOM     12  C   UNL     1       1.071   8.299  19.716  0.00  0.00    +0.000 C 
ATOM     13  O   UNL     1       0.364   7.997  20.662  0.00  0.00    +0.000 OA
ENDROOT
BRANCH   2  14
ATOM     14  C   UNL     1      -0.342  10.215  18.731  0.00  0.00    +0.000 A 
ATOM     15  C   UNL     1      -1.175   9.816  17.669  0.00  0.00    +0.000 A 
ATOM     16  C   UNL     1      -2.451  10.366  17.498  0.00  0.00    +0.000 A 
ATOM     17  C   UNL     1      -2.907  11.350  18.379  0.00  0.00    +0.000 A 
ATOM     18  C   UNL     1      -2.096  11.784  19.427  0.00  0.00    +0.000 A 
ATOM     19  C   UNL     1      -0.829  11.216  19.597  0.00  0.00    +0.000 A 
BRANCH  17  20
ATOM     20  N   UNL     1      -4.242  11.930  18.197  0.00  0.00    +0.000 N 
ATOM     21  O   UNL     1      -4.809  12.395  19.197  0.00  0.00    +0.000 OA
ATOM     22  O   UNL     1      -4.727  11.919  17.057  0.00  0.00    +0.000 OA
ENDBRANCH  17  20
ENDBRANCH   2  14
BRANCH   6  23
ATOM     23  O   UNL     1       5.449   5.834  17.250  0.00  0.00    +0.000 OA
BRANCH  23  24
ATOM     24  C   UNL     1       6.674   6.518  17.543  0.00  0.00    +0.000 C 
BRANCH  24  25
ATOM     25  C   UNL     1       7.624   5.655  18.343  0.00  0.00    +0.000 C 
ATOM     26  O   UNL     1       7.832   4.476  18.098  0.00  0.00    +0.000 OA
BRANCH  25  27
ATOM     27  O   UNL     1       8.226   6.309  19.365  0.00  0.00    +0.000 OA
ATOM     28  H   UNL     1       8.835   5.712  19.849  0.00  0.00    +0.000 HD
ENDBRANCH  25  27
ENDBRANCH  24  25
ENDBRANCH  23  24
ENDBRANCH   6  23
TORSDOF 6
ENDMDL
MODEL 8
REMARK VINA RESULT:      -6.8      0.935      1.042
REMARK  Name = 
REMARK  7 active torsions:
REMARK  status: ('A' for Active; 'I' for Inactive)
REMARK    1  A    between atoms: C_1  and  C_2
REMARK    2  A    between atoms: C_2  and  C_3
REMARK    3  A    between atoms: C_6  and  N_7
REMARK    4  A    between atoms: C_15  and  O_16
REMARK    5  A    between atoms: O_16  and  C_17
REMARK    6  A    between atoms: C_17  and  C_18
REMARK    7  A    between atoms: C_18  and  O_20
REMARK                            x       y       z     vdW  Elec       q    Type
REMARK                         _______ _______ _______ _____ _____    ______ ____
ROOT
ATOM      1  C   UNL     1       1.096  12.107  18.778  0.00  0.00    +0.000 C 
ATOM      2  C   UNL     1       0.335  10.899  19.376  0.00  0.00    +0.000 C 
ATOM      3  C   UNL     1      -0.063  11.229  20.842  0.00  0.00    +0.000 C 
ATOM      4  C   UNL     1      -1.424  11.837  20.724  0.00  0.00    +0.000 A 
ATOM      5  C   UNL     1      -2.082  12.553  21.708  0.00  0.00    +0.000 A 
ATOM      6  C   UNL     1      -3.355  13.064  21.437  0.00  0.00    +0.000 A 
ATOM      7  C   UNL     1      -3.989  12.758  20.202  0.00  0.00    +0.000 A 
ATOM      8 CL   UNL     1      -5.594  13.368  19.925  0.00  0.00    +0.000 Cl
ATOM      9  C   UNL     1      -3.321  12.000  19.217  0.00  0.00    +0.000 A 
ATOM     10 CL   UNL     1      -4.055  11.655  17.695  0.00  0.00    +0.000 Cl
ATOM     11  C   UNL     1      -2.034  11.568  19.503  0.00  0.00    +0.000 A 
ATOM     12  C   UNL     1      -1.044  10.849  18.685  0.00  0.00    +0.000 C 
ATOM     13  O   UNL     1      -1.293  10.369  17.593  0.00  0.00    +0.000 OA
ENDROOT
BRANCH   2  14
ATOM     14  C   UNL     1       1.166   9.623  19.189  0.00  0.00    +0.000 A 
ATOM     15  C   UNL     1       1.856   9.324  17.999  0.00  0.00    +0.000 A 
ATOM     16  C   UNL     1       2.603   8.148  17.865  0.00  0.00    +0.000 A 
ATOM     17  C   UNL     1       2.651   7.232  18.919  0.00  0.00    +0.000 A 
ATOM     18  C   UNL     1       1.957   7.488  20.103  0.00  0.00    +0.000 A 
ATOM     19  C   UNL     1       1.228   8.673  20.230  0.00  0.00    +0.000 A 
BRANCH  17  20
ATOM     20  N   UNL     1       3.428   5.997  18.778  0.00  0.00    +0.000 N 
ATOM     21  O   UNL     1       3.881   5.726  17.655  0.00  0.00    +0.000 OA
ATOM     22  O   UNL     1       3.587   5.295  19.786  0.00  0.00    +0.000 OA
ENDBRANCH  17  20
ENDBRANCH   2  14
BRANCH   6  23
ATOM     23  O   UNL     1      -4.034  13.870  22.326  0.00  0.00    +0.000 OA
BRANCH  23  24
ATOM     24  C   UNL     1      -4.344  13.258  23.585  0.00  0.00    +0.000 C 
BRANCH  24  25
ATOM     25  C   UNL     1      -5.836  13.112  23.786  0.00  0.00    +0.000 C 
ATOM     26  O   UNL     1      -6.449  12.081  23.557  0.00  0.00    +0.000 OA
BRANCH  25  27
ATOM     27  O   UNL     1      -6.437  14.236  24.246  0.00  0.00    +0.000 OA
ATOM     28  H   UNL     1      -6.329  14.315  25.217  0.00  0.00    +0.000 HD
ENDBRANCH  25  27
ENDBRANCH  24  25
ENDBRANCH  23  24
ENDBRANCH   6  23
TORSDOF 6
ENDMDL
MODEL 9
REMARK VINA RESULT:      -6.8      4.180      9.517
REMARK  Name = 
REMARK  7 active torsions:
REMARK  status: ('A' for Active; 'I' for Inactive)
REMARK    1  A    between atoms: C_1  and  C_2
REMARK    2  A    between atoms: C_2  and  C_3
REMARK    3  A    between atoms: C_6  and  N_7
REMARK    4  A    between atoms: C_15  and  O_16
REMARK    5  A    between atoms: O_16  and  C_17
REMARK    6  A    between atoms: C_17  and  C_18
REMARK    7  A    between atoms: C_18  and  O_20
REMARK                            x       y       z     vdW  Elec       q    Type
REMARK                         _______ _______ _______ _____ _____    ______ ____
ROOT
ATOM      1  C   UNL     1       1.929  10.689  19.796  0.00  0.00    +0.000 C 
ATOM      2  C   UNL     1       1.080   9.700  18.961  0.00  0.00    +0.000 C 
ATOM      3  C   UNL     1       1.844   9.362  17.649  0.00  0.00    +0.000 C 
ATOM      4  C   UNL     1       2.645   8.147  17.996  0.00  0.00    +0.000 A 
ATOM      5  C   UNL     1       3.699   7.634  17.262  0.00  0.00    +0.000 A 
ATOM      6  C   UNL     1       4.353   6.489  17.727  0.00  0.00    +0.000 A 
ATOM      7  C   UNL     1       3.865   5.818  18.881  0.00  0.00    +0.000 A 
ATOM      8 CL   UNL     1       4.673   4.367  19.396  0.00  0.00    +0.000 Cl
ATOM      9  C   UNL     1       2.768   6.333  19.604  0.00  0.00    +0.000 A 
ATOM     10 CL   UNL     1       2.189   5.559  21.033  0.00  0.00    +0.000 Cl
ATOM     11  C   UNL     1       2.191   7.508  19.145  0.00  0.00    +0.000 A 
ATOM     12  C   UNL     1       1.114   8.345  19.697  0.00  0.00    +0.000 C 
ATOM     13  O   UNL     1       0.425   8.016  20.648  0.00  0.00    +0.000 OA
ENDROOT
BRANCH   2  14
ATOM     14  C   UNL     1      -0.334  10.266  18.774  0.00  0.00    +0.000 A 
ATOM     15  C   UNL     1      -1.183   9.876  17.722  0.00  0.00    +0.000 A 
ATOM     16  C   UNL     1      -2.467  10.416  17.584  0.00  0.00    +0.000 A 
ATOM     17  C   UNL     1      -2.916  11.382  18.488  0.00  0.00    +0.000 A 
ATOM     18  C   UNL     1      -2.088  11.808  19.527  0.00  0.00    +0.000 A 
ATOM     19  C   UNL     1      -0.814  11.249  19.664  0.00  0.00    +0.000 A 
BRANCH  17  20
ATOM     20  N   UNL     1      -4.259  11.952  18.340  0.00  0.00    +0.000 N 
ATOM     21  O   UNL     1      -4.782  11.909  17.216  0.00  0.00    +0.000 OA
ATOM     22  O   UNL     1      -4.791  12.446  19.343  0.00  0.00    +0.000 OA
ENDBRANCH  17  20
ENDBRANCH   2  14
BRANCH   6  23
ATOM     23  O   UNL     1       5.472   5.973  17.109  0.00  0.00    +0.000 OA
BRANCH  23  24
ATOM     24  C   UNL     1       5.240   5.393  15.818  0.00  0.00    +0.000 C 
BRANCH  24  25
ATOM     25  C   UNL     1       6.504   4.808  15.229  0.00  0.00    +0.000 C 
ATOM     26  O   UNL     1       7.562   5.416  15.164  0.00  0.00    +0.000 OA
BRANCH  25  27
ATOM     27  O   UNL     1       6.358   3.540  14.773  0.00  0.00    +0.000 OA
ATOM     28  H   UNL     1       5.450   3.213  14.945  0.00  0.00    +0.000 HD
ENDBRANCH  25  27
ENDBRANCH  24  25
ENDBRANCH  23  24
ENDBRANCH   6  23
TORSDOF 6
ENDMDL
