MODEL 1
REMARK VINA RESULT:      -7.6      0.000      0.000
REMARK  Name = 
REMARK  6 active torsions:
REMARK  status: ('A' for Active; 'I' for Inactive)
REMARK    1  A    between atoms: C_2  and  C_3
REMARK    2  A    between atoms: C_6  and  C_7
REMARK    3  A    between atoms: N_9  and  C_10
REMARK    4  A    between atoms: C_12  and  C_13
REMARK    5  A    between atoms: C_17  and  C_18
REMARK    6  A    between atoms: C_18  and  O_20
REMARK                            x       y       z     vdW  Elec       q    Type
REMARK                         _______ _______ _______ _____ _____    ______ ____
ROOT
ATOM      1  C   UNL     1       3.637   5.806  18.949  0.00  0.00    +0.000 A 
ATOM      2  C   UNL     1       4.875   6.110  18.367  0.00  0.00    +0.000 A 
ATOM      3  C   UNL     1       5.577   5.173  17.603  0.00  0.00    +0.000 A 
ATOM      4  C   UNL     1       5.051   3.885  17.451  0.00  0.00    +0.000 A 
ATOM      5  C   UNL     1       3.821   3.560  18.030  0.00  0.00    +0.000 A 
ATOM      6  C   UNL     1       3.126   4.514  18.799  0.00  0.00    +0.000 A 
ENDROOT
BRANCH   3   7
ATOM      7  C   UNL     1       6.857   5.491  16.914  0.00  0.00    +0.000 C 
ATOM      8  N   UNL     1       7.177   6.799  16.687  0.00  0.00    +0.000 N 
ATOM      9  O   UNL     1       7.597   4.594  16.530  0.00  0.00    +0.000 OA
ATOM     10  H   UNL     1       6.578   7.591  16.876  0.00  0.00    +0.000 HD
ATOM     11  H   UNL     1       8.024   6.978  16.165  0.00  0.00    +0.000 HD
ENDBRANCH   3   7
BRANCH   1  14
ATOM     12  C   UNL     1       2.152   7.795  19.075  0.00  0.00    +0.000 C 
ATOM     13  O   UNL     1       2.014   7.971  17.868  0.00  0.00    +0.000 OA
ATOM     14  N   UNL     1       2.888   6.776  19.670  0.00  0.00    +0.000 N 
ATOM     15  H   UNL     1       2.759   6.610  20.661  0.00  0.00    +0.000 HD
BRANCH  12  19
ATOM     16  C   UNL     1      -0.100  10.267  21.760  0.00  0.00    +0.000 A 
ATOM     17  C   UNL     1       0.584   9.139  22.221  0.00  0.00    +0.000 A 
ATOM     18  C   UNL     1       1.328   8.367  21.328  0.00  0.00    +0.000 A 
ATOM     19  C   UNL     1       1.406   8.717  19.969  0.00  0.00    +0.000 A 
ATOM     20  C   UNL     1       0.716   9.839  19.504  0.00  0.00    +0.000 A 
ATOM     21  C   UNL     1      -0.036  10.612  20.402  0.00  0.00    +0.000 A 
BRANCH  16  23
ATOM     22  N   UNL     1      -1.486  11.703  23.418  0.00  0.00    +0.000 NA
ATOM     23  C   UNL     1      -0.870  11.056  22.676  0.00  0.00    +0.000 C 
ENDBRANCH  16  23
ENDBRANCH  12  19
ENDBRANCH   1  14
BRANCH   5  24
ATOM     24  C   UNL     1       3.226   2.210  17.865  0.00  0.00    +0.000 C 
ATOM     25  O   UNL     1       2.110   2.047  17.402  0.00  0.00    +0.000 OA
BRANCH  24  26
ATOM     26  O   UNL     1       4.036   1.189  18.214  0.00  0.00    +0.000 OA
ATOM     27  H   UNL     1       4.660   0.873  17.535  0.00  0.00    +0.000 HD
ENDBRANCH  24  26
ENDBRANCH   5  24
TORSDOF 6
ENDMDL
MODEL 2
REMARK VINA RESULT:      -7.6      0.696      1.225
REMARK  Name = 
REMARK  6 active torsions:
REMARK  status: ('A' for Active; 'I' for Inactive)
REMARK    1  A    between atoms: C_2  and  C_3
REMARK    2  A    between atoms: C_6  and  C_7
REMARK    3  A    between atoms: N_9  and  C_10
REMARK    4  A    between atoms: C_12  and  C_13
REMARK    5  A    between atoms: C_17  and  C_18
REMARK    6  A    between atoms: C_18  and  O_20
REMARK                            x       y       z     vdW  Elec       q    Type
REMARK                         _______ _______ _______ _____ _____    ______ ____
ROOT
ATOM      1  C   UNL     1       3.541   5.829  18.944  0.00  0.00    +0.000 A 
ATOM      2  C   UNL     1       4.743   6.197  18.325  0.00  0.00    +0.000 A 
ATOM      3  C   UNL     1       5.458   5.305  17.521  0.00  0.00    +0.000 A 
ATOM      4  C   UNL     1       4.985   3.998  17.365  0.00  0.00    +0.000 A 
ATOM      5  C   UNL     1       3.792   3.608  17.980  0.00  0.00    +0.000 A 
ATOM      6  C   UNL     1       3.083   4.517  18.790  0.00  0.00    +0.000 A 
ENDROOT
BRANCH   3   7
ATOM      7  C   UNL     1       6.697   5.691  16.795  0.00  0.00    +0.000 C 
ATOM      8  N   UNL     1       7.520   4.708  16.323  0.00  0.00    +0.000 N 
ATOM      9  O   UNL     1       6.991   6.871  16.647  0.00  0.00    +0.000 OA
ATOM     10  H   UNL     1       7.407   3.718  16.491  0.00  0.00    +0.000 HD
ATOM     11  H   UNL     1       8.382   5.004  15.886  0.00  0.00    +0.000 HD
ENDBRANCH   3   7
BRANCH   1  14
ATOM     12  C   UNL     1       2.078   7.825  19.166  0.00  0.00    +0.000 C 
ATOM     13  O   UNL     1       1.992   8.096  17.971  0.00  0.00    +0.000 OA
ATOM     14  N   UNL     1       2.776   6.752  19.708  0.00  0.00    +0.000 N 
ATOM     15  H   UNL     1       2.604   6.512  20.678  0.00  0.00    +0.000 HD
BRANCH  12  19
ATOM     16  C   UNL     1      -0.042  10.503  21.759  0.00  0.00    +0.000 A 
ATOM     17  C   UNL     1       0.074  10.765  20.392  0.00  0.00    +0.000 A 
ATOM     18  C   UNL     1       0.749   9.863  19.569  0.00  0.00    +0.000 A 
ATOM     19  C   UNL     1       1.308   8.687  20.098  0.00  0.00    +0.000 A 
ATOM     20  C   UNL     1       1.201   8.428  21.467  0.00  0.00    +0.000 A 
ATOM     21  C   UNL     1       0.526   9.337  22.294  0.00  0.00    +0.000 A 
BRANCH  16  23
ATOM     22  N   UNL     1      -1.292  12.189  23.285  0.00  0.00    +0.000 NA
ATOM     23  C   UNL     1      -0.729  11.432  22.607  0.00  0.00    +0.000 C 
ENDBRANCH  16  23
ENDBRANCH  12  19
ENDBRANCH   1  14
BRANCH   5  24
ATOM     24  C   UNL     1       3.252   2.236  17.812  0.00  0.00    +0.000 C 
ATOM     25  O   UNL     1       2.122   2.030  17.403  0.00  0.00    +0.000 OA
BRANCH  24  26
ATOM     26  O   UNL     1       4.125   1.246  18.095  0.00  0.00    +0.000 OA
ATOM     27  H   UNL     1       4.812   1.445  18.758  0.00  0.00    +0.000 HD
ENDBRANCH  24  26
ENDBRANCH   5  24
TORSDOF 6
ENDMDL
MODEL 3
REMARK VINA RESULT:      -7.5      1.515      3.357
REMARK  Name = 
REMARK  6 active torsions:
REMARK  status: ('A' for Active; 'I' for Inactive)
REMARK    1  A    between atoms: C_2  and  C_3
REMARK    2  A    between atoms: C_6  and  C_7
REMARK    3  A    between atoms: N_9  and  C_10
REMARK    4  A    between atoms: C_12  and  C_13
REMARK    5  A    between atoms: C_17  and  C_18
REMARK    6  A    between atoms: C_18  and  O_20
REMARK                            x       y       z     vdW  Elec       q    Type
REMARK                         _______ _______ _______ _____ _____    ______ ____
ROOT
ATOM      1  C   UNL     1       3.514   5.547  19.405  0.00  0.00    +0.000 A 
ATOM      2  C   UNL     1       2.959   4.327  18.995  0.00  0.00    +0.000 A 
ATOM      3  C   UNL     1       3.731   3.339  18.379  0.00  0.00    +0.000 A 
ATOM      4  C   UNL     1       5.084   3.588  18.125  0.00  0.00    +0.000 A 
ATOM      5  C   UNL     1       5.655   4.802  18.520  0.00  0.00    +0.000 A 
ATOM      6  C   UNL     1       4.864   5.790  19.137  0.00  0.00    +0.000 A 
ENDROOT
BRANCH   3   7
ATOM      7  C   UNL     1       3.183   2.008  18.000  0.00  0.00    +0.000 C 
ATOM      8  N   UNL     1       3.926   0.890  18.256  0.00  0.00    +0.000 N 
ATOM      9  O   UNL     1       2.098   1.918  17.439  0.00  0.00    +0.000 OA
ATOM     10  H   UNL     1       4.870   0.885  18.617  0.00  0.00    +0.000 HD
ATOM     11  H   UNL     1       3.552   0.009  17.934  0.00  0.00    +0.000 HD
ENDBRANCH   3   7
BRANCH   1  14
ATOM     12  C   UNL     1       2.140   7.616  19.473  0.00  0.00    +0.000 C 
ATOM     13  O   UNL     1       2.144   7.853  18.268  0.00  0.00    +0.000 OA
ATOM     14  N   UNL     1       2.749   6.528  20.091  0.00  0.00    +0.000 N 
ATOM     15  H   UNL     1       2.504   6.328  21.053  0.00  0.00    +0.000 HD
BRANCH  12  19
ATOM     16  C   UNL     1      -0.020  10.473  21.832  0.00  0.00    +0.000 A 
ATOM     17  C   UNL     1       0.112  10.631  20.451  0.00  0.00    +0.000 A 
ATOM     18  C   UNL     1       0.800   9.673  19.706  0.00  0.00    +0.000 A 
ATOM     19  C   UNL     1       1.356   8.543  20.328  0.00  0.00    +0.000 A 
ATOM     20  C   UNL     1       1.232   8.386  21.712  0.00  0.00    +0.000 A 
ATOM     21  C   UNL     1       0.544   9.352  22.460  0.00  0.00    +0.000 A 
BRANCH  16  23
ATOM     22  N   UNL     1      -1.288  12.255  23.228  0.00  0.00    +0.000 NA
ATOM     23  C   UNL     1      -0.721  11.460  22.599  0.00  0.00    +0.000 C 
ENDBRANCH  16  23
ENDBRANCH  12  19
ENDBRANCH   1  14
BRANCH   5  24
ATOM     24  C   UNL     1       7.094   5.086  18.287  0.00  0.00    +0.000 C 
ATOM     25  O   UNL     1       7.704   5.914  18.942  0.00  0.00    +0.000 OA
BRANCH  24  26
ATOM     26  O   UNL     1       7.676   4.321  17.340  0.00  0.00    +0.000 OA
ATOM     27  H   UNL     1       7.495   3.363  17.378  0.00  0.00    +0.000 HD
ENDBRANCH  24  26
ENDBRANCH   5  24
TORSDOF 6
ENDMDL
MODEL 4
REMARK VINA RESULT:      -7.5      0.898      1.346
REMARK  Name = 
REMARK  6 active torsions:
REMARK  status: ('A' for Active; 'I' for Inactive)
REMARK    1  A    between atoms: C_2  and  C_3
REMARK    2  A    between atoms: C_6  and  C_7
REMARK    3  A    between atoms: N_9  and  C_10
REMARK    4  A    between atoms: C_12  and  C_13
REMARK    5  A    between atoms: C_17  and  C_18
REMARK    6  A    between atoms: C_18  and  O_20
REMARK                            x       y       z     vdW  Elec       q    Type
REMARK                         _______ _______ _______ _____ _____    ______ ____
ROOT
ATOM      1  C   UNL     1       3.538   5.518  19.566  0.00  0.00    +0.000 A 
ATOM      2  C   UNL     1       4.903   5.738  19.334  0.00  0.00    +0.000 A 
ATOM      3  C   UNL     1       5.689   4.812  18.643  0.00  0.00    +0.000 A 
ATOM      4  C   UNL     1       5.110   3.615  18.208  0.00  0.00    +0.000 A 
ATOM      5  C   UNL     1       3.752   3.373  18.436  0.00  0.00    +0.000 A 
ATOM      6  C   UNL     1       2.973   4.314  19.136  0.00  0.00    +0.000 A 
ENDROOT
BRANCH   3   7
ATOM      7  C   UNL     1       7.121   5.053  18.320  0.00  0.00    +0.000 C 
ATOM      8  N   UNL     1       7.976   5.401  19.328  0.00  0.00    +0.000 N 
ATOM      9  O   UNL     1       7.522   4.971  17.166  0.00  0.00    +0.000 OA
ATOM     10  H   UNL     1       7.708   5.591  20.284  0.00  0.00    +0.000 HD
ATOM     11  H   UNL     1       8.928   5.614  19.066  0.00  0.00    +0.000 HD
ENDBRANCH   3   7
BRANCH   1  14
ATOM     12  C   UNL     1       2.186   7.602  19.577  0.00  0.00    +0.000 C 
ATOM     13  O   UNL     1       2.308   7.881  18.388  0.00  0.00    +0.000 OA
ATOM     14  N   UNL     1       2.720   6.485  20.210  0.00  0.00    +0.000 N 
ATOM     15  H   UNL     1       2.380   6.254  21.137  0.00  0.00    +0.000 HD
BRANCH  12  19
ATOM     16  C   UNL     1      -0.186  10.403  21.795  0.00  0.00    +0.000 A 
ATOM     17  C   UNL     1      -0.044  10.516  20.410  0.00  0.00    +0.000 A 
ATOM     18  C   UNL     1       0.714   9.576  19.712  0.00  0.00    +0.000 A 
ATOM     19  C   UNL     1       1.331   8.509  20.385  0.00  0.00    +0.000 A 
ATOM     20  C   UNL     1       1.198   8.398  21.772  0.00  0.00    +0.000 A 
ATOM     21  C   UNL     1       0.439   9.346  22.474  0.00  0.00    +0.000 A 
BRANCH  16  23
ATOM     22  N   UNL     1      -1.581  12.165  23.092  0.00  0.00    +0.000 NA
ATOM     23  C   UNL     1      -0.959  11.372  22.514  0.00  0.00    +0.000 C 
ENDBRANCH  16  23
ENDBRANCH  12  19
ENDBRANCH   1  14
BRANCH   5  24
ATOM     24  C   UNL     1       3.104   2.124  17.964  0.00  0.00    +0.000 C 
ATOM     25  O   UNL     1       2.035   2.130  17.377  0.00  0.00    +0.000 OA
BRANCH  24  26
ATOM     26  O   UNL     1       3.815   0.998  18.187  0.00  0.00    +0.000 OA
ATOM     27  H   UNL     1       3.360   0.283  18.671  0.00  0.00    +0.000 HD
ENDBRANCH  24  26
ENDBRANCH   5  24
TORSDOF 6
ENDMDL
MODEL 5
REMARK VINA RESULT:      -7.5      1.473      1.664
REMARK  Name = 
REMARK  6 active torsions:
REMARK  status: ('A' for Active; 'I' for Inactive)
REMARK    1  A    between atoms: C_2  and  C_3
REMARK    2  A    between atoms: C_6  and  C_7
REMARK    3  A    between atoms: N_9  and  C_10
REMARK    4  A    between atoms: C_12  and  C_13
REMARK    5  A    between atoms: C_17  and  C_18
REMARK    6  A    between atoms: C_18  and  O_20
REMARK                            x       y       z     vdW  Elec       q    Type
REMARK                         _______ _______ _______ _____ _____    ______ ____
ROOT
ATOM      1  C   UNL     1       3.472   6.304  17.876  0.00  0.00    +0.000 A 
ATOM      2  C   UNL     1       4.828   6.424  17.545  0.00  0.00    +0.000 A 
ATOM      3  C   UNL     1       5.613   5.307  17.245  0.00  0.00    +0.000 A 
ATOM      4  C   UNL     1       5.042   4.032  17.320  0.00  0.00    +0.000 A 
ATOM      5  C   UNL     1       3.692   3.890  17.657  0.00  0.00    +0.000 A 
ATOM      6  C   UNL     1       2.915   5.025  17.958  0.00  0.00    +0.000 A 
ENDROOT
BRANCH   3   7
ATOM      7  C   UNL     1       7.035   5.411  16.820  0.00  0.00    +0.000 C 
ATOM      8  N   UNL     1       7.869   4.351  17.036  0.00  0.00    +0.000 N 
ATOM      9  O   UNL     1       7.459   6.442  16.311  0.00  0.00    +0.000 OA
ATOM     10  H   UNL     1       7.627   3.509  17.540  0.00  0.00    +0.000 HD
ATOM     11  H   UNL     1       8.841   4.476  16.789  0.00  0.00    +0.000 HD
ENDBRANCH   3   7
BRANCH   1  14
ATOM     12  C   UNL     1       2.061   7.731  19.341  0.00  0.00    +0.000 C 
ATOM     13  O   UNL     1       2.193   7.083  20.375  0.00  0.00    +0.000 OA
ATOM     14  N   UNL     1       2.654   7.441  18.117  0.00  0.00    +0.000 N 
ATOM     15  H   UNL     1       2.640   8.156  17.399  0.00  0.00    +0.000 HD
BRANCH  12  19
ATOM     16  C   UNL     1      -0.422  11.201  19.768  0.00  0.00    +0.000 A 
ATOM     17  C   UNL     1      -0.014  10.466  20.883  0.00  0.00    +0.000 A 
ATOM     18  C   UNL     1       0.814   9.355  20.715  0.00  0.00    +0.000 A 
ATOM     19  C   UNL     1       1.250   8.972  19.436  0.00  0.00    +0.000 A 
ATOM     20  C   UNL     1       0.836   9.701  18.318  0.00  0.00    +0.000 A 
ATOM     21  C   UNL     1       0.000  10.815  18.488  0.00  0.00    +0.000 A 
BRANCH  16  23
ATOM     22  N   UNL     1      -1.967  13.264  20.069  0.00  0.00    +0.000 NA
ATOM     23  C   UNL     1      -1.278  12.338  19.939  0.00  0.00    +0.000 C 
ENDBRANCH  16  23
ENDBRANCH  12  19
ENDBRANCH   1  14
BRANCH   5  24
ATOM     24  C   UNL     1       3.052   2.552  17.720  0.00  0.00    +0.000 C 
ATOM     25  O   UNL     1       1.851   2.402  17.572  0.00  0.00    +0.000 OA
BRANCH  24  26
ATOM     26  O   UNL     1       3.907   1.524  17.898  0.00  0.00    +0.000 OA
ATOM     27  H   UNL     1       3.564   0.748  18.381  0.00  0.00    +0.000 HD
ENDBRANCH  24  26
ENDBRANCH   5  24
TORSDOF 6
ENDMDL
MODEL 6
REMARK VINA RESULT:      -7.5      1.795      3.487
REMARK  Name = 
REMARK  6 active torsions:
REMARK  status: ('A' for Active; 'I' for Inactive)
REMARK    1  A    between atoms: C_2  and  C_3
REMARK    2  A    between atoms: C_6  and  C_7
REMARK    3  A    between atoms: N_9  and  C_10
REMARK    4  A    between atoms: C_12  and  C_13
REMARK    5  A    between atoms: C_17  and  C_18
REMARK    6  A    between atoms: C_18  and  O_20
REMARK                            x       y       z     vdW  Elec       q    Type
REMARK                         _______ _______ _______ _____ _____    ______ ____
ROOT
ATOM      1  C   UNL     1       3.599   6.163  17.722  0.00  0.00    +0.000 A 
ATOM      2  C   UNL     1       3.019   4.891  17.828  0.00  0.00    +0.000 A 
ATOM      3  C   UNL     1       3.758   3.726  17.602  0.00  0.00    +0.000 A 
ATOM      4  C   UNL     1       5.099   3.832  17.219  0.00  0.00    +0.000 A 
ATOM      5  C   UNL     1       5.694   5.092  17.100  0.00  0.00    +0.000 A 
ATOM      6  C   UNL     1       4.937   6.257  17.329  0.00  0.00    +0.000 A 
ENDROOT
BRANCH   3   7
ATOM      7  C   UNL     1       3.187   2.364  17.777  0.00  0.00    +0.000 C 
ATOM      8  N   UNL     1       3.994   1.364  18.244  0.00  0.00    +0.000 N 
ATOM      9  O   UNL     1       2.021   2.133  17.481  0.00  0.00    +0.000 OA
ATOM     10  H   UNL     1       4.988   1.444  18.412  0.00  0.00    +0.000 HD
ATOM     11  H   UNL     1       3.592   0.439  18.295  0.00  0.00    +0.000 HD
ENDBRANCH   3   7
BRANCH   1  14
ATOM     12  C   UNL     1       2.207   7.579  19.216  0.00  0.00    +0.000 C 
ATOM     13  O   UNL     1       2.194   6.827  20.186  0.00  0.00    +0.000 OA
ATOM     14  N   UNL     1       2.870   7.347  18.015  0.00  0.00    +0.000 N 
ATOM     15  H   UNL     1       2.981   8.124  17.374  0.00  0.00    +0.000 HD
BRANCH  12  19
ATOM     16  C   UNL     1       0.005  11.216  19.777  0.00  0.00    +0.000 A 
ATOM     17  C   UNL     1       0.104  10.269  20.798  0.00  0.00    +0.000 A 
ATOM     18  C   UNL     1       0.848   9.105  20.595  0.00  0.00    +0.000 A 
ATOM     19  C   UNL     1       1.507   8.879  19.375  0.00  0.00    +0.000 A 
ATOM     20  C   UNL     1       1.402   9.821  18.348  0.00  0.00    +0.000 A 
ATOM     21  C   UNL     1       0.651  10.988  18.552  0.00  0.00    +0.000 A 
BRANCH  16  23
ATOM     22  N   UNL     1      -1.380  13.377  20.157  0.00  0.00    +0.000 NA
ATOM     23  C   UNL     1      -0.764  12.408  19.983  0.00  0.00    +0.000 C 
ENDBRANCH  16  23
ENDBRANCH  12  19
ENDBRANCH   1  14
BRANCH   5  24
ATOM     24  C   UNL     1       7.122   5.235  16.720  0.00  0.00    +0.000 C 
ATOM     25  O   UNL     1       7.548   6.237  16.171  0.00  0.00    +0.000 OA
BRANCH  24  26
ATOM     26  O   UNL     1       7.910   4.200  17.078  0.00  0.00    +0.000 OA
ATOM     27  H   UNL     1       8.852   4.262  16.833  0.00  0.00    +0.000 HD
ENDBRANCH  24  26
ENDBRANCH   5  24
TORSDOF 6
ENDMDL
MODEL 7
REMARK VINA RESULT:      -7.5      1.328      3.152
REMARK  Name = 
REMARK  6 active torsions:
REMARK  status: ('A' for Active; 'I' for Inactive)
REMARK    1  A    between atoms: C_2  and  C_3
REMARK    2  A    between atoms: C_6  and  C_7
REMARK    3  A    between atoms: N_9  and  C_10
REMARK    4  A    between atoms: C_12  and  C_13
REMARK    5  A    between atoms: C_17  and  C_18
REMARK    6  A    between atoms: C_18  and  O_20
REMARK                            x       y       z     vdW  Elec       q    Type
REMARK                         _______ _______ _______ _____ _____    ______ ____
ROOT
ATOM      1  C   UNL     1       3.475   5.910  18.761  0.00  0.00    +0.000 A 
ATOM      2  C   UNL     1       3.002   4.598  18.626  0.00  0.00    +0.000 A 
ATOM      3  C   UNL     1       3.730   3.622  17.939  0.00  0.00    +0.000 A 
ATOM      4  C   UNL     1       4.940   3.974  17.333  0.00  0.00    +0.000 A 
ATOM      5  C   UNL     1       5.426   5.280  17.449  0.00  0.00    +0.000 A 
ATOM      6  C   UNL     1       4.681   6.253  18.142  0.00  0.00    +0.000 A 
ENDROOT
BRANCH   3   7
ATOM      7  C   UNL     1       3.286   2.205  17.843  0.00  0.00    +0.000 C 
ATOM      8  N   UNL     1       4.120   1.220  18.291  0.00  0.00    +0.000 N 
ATOM      9  O   UNL     1       2.204   1.923  17.343  0.00  0.00    +0.000 OA
ATOM     10  H   UNL     1       5.066   1.358  18.619  0.00  0.00    +0.000 HD
ATOM     11  H   UNL     1       3.814   0.266  18.158  0.00  0.00    +0.000 HD
ENDBRANCH   3   7
BRANCH   1  14
ATOM     12  C   UNL     1       2.069   7.950  18.953  0.00  0.00    +0.000 C 
ATOM     13  O   UNL     1       1.926   8.162  17.752  0.00  0.00    +0.000 OA
ATOM     14  N   UNL     1       2.771   6.889  19.514  0.00  0.00    +0.000 N 
ATOM     15  H   UNL     1       2.645   6.703  20.502  0.00  0.00    +0.000 HD
BRANCH  12  19
ATOM     16  C   UNL     1      -0.059  10.438  21.723  0.00  0.00    +0.000 A 
ATOM     17  C   UNL     1       0.585   9.273  22.148  0.00  0.00    +0.000 A 
ATOM     18  C   UNL     1       1.290   8.496  21.228  0.00  0.00    +0.000 A 
ATOM     19  C   UNL     1       1.368   8.877  19.878  0.00  0.00    +0.000 A 
ATOM     20  C   UNL     1       0.717  10.037  19.448  0.00  0.00    +0.000 A 
ATOM     21  C   UNL     1       0.005  10.815  20.373  0.00  0.00    +0.000 A 
BRANCH  16  23
ATOM     22  N   UNL     1      -1.384  11.883  23.423  0.00  0.00    +0.000 NA
ATOM     23  C   UNL     1      -0.789  11.232  22.666  0.00  0.00    +0.000 C 
ENDBRANCH  16  23
ENDBRANCH  12  19
ENDBRANCH   1  14
BRANCH   5  24
ATOM     24  C   UNL     1       6.719   5.676  16.839  0.00  0.00    +0.000 C 
ATOM     25  O   UNL     1       7.034   6.845  16.692  0.00  0.00    +0.000 OA
BRANCH  24  26
ATOM     26  O   UNL     1       7.531   4.648  16.514  0.00  0.00    +0.000 OA
ATOM     27  H   UNL     1       8.481   4.765  16.702  0.00  0.00    +0.000 HD
ENDBRANCH  24  26
ENDBRANCH   5  24
TORSDOF 6
ENDMDL
MODEL 8
REMARK VINA RESULT:      -7.5      1.506      3.250
REMARK  Name = 
REMARK  6 active torsions:
REMARK  status: ('A' for Active; 'I' for Inactive)
REMARK    1  A    between atoms: C_2  and  C_3
REMARK    2  A    between atoms: C_6  and  C_7
REMARK    3  A    between atoms: N_9  and  C_10
REMARK    4  A    between atoms: C_12  and  C_13
REMARK    5  A    between atoms: C_17  and  C_18
REMARK    6  A    between atoms: C_18  and  O_20
REMARK                            x       y       z     vdW  Elec       q    Type
REMARK                         _______ _______ _______ _____ _____    ______ ____
ROOT
ATOM      1  C   UNL     1       3.272   5.582  19.636  0.00  0.00    +0.000 A 
ATOM      2  C   UNL     1       2.722   4.325  19.351  0.00  0.00    +0.000 A 
ATOM      3  C   UNL     1       3.496   3.289  18.819  0.00  0.00    +0.000 A 
ATOM      4  C   UNL     1       4.842   3.525  18.522  0.00  0.00    +0.000 A 
ATOM      5  C   UNL     1       5.407   4.775  18.792  0.00  0.00    +0.000 A 
ATOM      6  C   UNL     1       4.616   5.811  19.326  0.00  0.00    +0.000 A 
ENDROOT
BRANCH   3   7
ATOM      7  C   UNL     1       2.956   1.925  18.575  0.00  0.00    +0.000 C 
ATOM      8  N   UNL     1       1.601   1.745  18.545  0.00  0.00    +0.000 N 
ATOM      9  O   UNL     1       3.712   0.971  18.433  0.00  0.00    +0.000 OA
ATOM     10  H   UNL     1       0.912   2.454  18.755  0.00  0.00    +0.000 HD
ATOM     11  H   UNL     1       1.268   0.797  18.436  0.00  0.00    +0.000 HD
ENDBRANCH   3   7
BRANCH   1  14
ATOM     12  C   UNL     1       2.032   7.734  19.558  0.00  0.00    +0.000 C 
ATOM     13  O   UNL     1       2.168   7.956  18.359  0.00  0.00    +0.000 OA
ATOM     14  N   UNL     1       2.507   6.618  20.238  0.00  0.00    +0.000 N 
ATOM     15  H   UNL     1       2.157   6.444  21.173  0.00  0.00    +0.000 HD
BRANCH  12  19
ATOM     16  C   UNL     1      -0.381  10.393  21.903  0.00  0.00    +0.000 A 
ATOM     17  C   UNL     1       0.341   9.358  22.502  0.00  0.00    +0.000 A 
ATOM     18  C   UNL     1       1.136   8.523  21.716  0.00  0.00    +0.000 A 
ATOM     19  C   UNL     1       1.227   8.718  20.328  0.00  0.00    +0.000 A 
ATOM     20  C   UNL     1       0.499   9.747  19.725  0.00  0.00    +0.000 A 
ATOM     21  C   UNL     1      -0.304  10.583  20.515  0.00  0.00    +0.000 A 
BRANCH  16  23
ATOM     22  N   UNL     1      -1.870  11.946  23.354  0.00  0.00    +0.000 NA
ATOM     23  C   UNL     1      -1.204  11.247  22.709  0.00  0.00    +0.000 C 
ENDBRANCH  16  23
ENDBRANCH  12  19
ENDBRANCH   1  14
BRANCH   5  24
ATOM     24  C   UNL     1       6.839   5.048  18.512  0.00  0.00    +0.000 C 
ATOM     25  O   UNL     1       7.483   5.856  19.160  0.00  0.00    +0.000 OA
BRANCH  24  26
ATOM     26  O   UNL     1       7.377   4.297  17.528  0.00  0.00    +0.000 OA
ATOM     27  H   UNL     1       8.347   4.330  17.434  0.00  0.00    +0.000 HD
ENDBRANCH  24  26
ENDBRANCH   5  24
TORSDOF 6
ENDMDL
MODEL 9
REMARK VINA RESULT:      -7.4      1.854      3.641
REMARK  Name = 
REMARK  6 active torsions:
REMARK  status: ('A' for Active; 'I' for Inactive)
REMARK    1  A    between atoms: C_2  and  C_3
REMARK    2  A    between atoms: C_6  and  C_7
REMARK    3  A    between atoms: N_9  and  C_10
REMARK    4  A    between atoms: C_12  and  C_13
REMARK    5  A    between atoms: C_17  and  C_18
REMARK    6  A    between atoms: C_18  and  O_20
REMARK                            x       y       z     vdW  Elec       q    Type
REMARK                         _______ _______ _______ _____ _____    ______ ____
ROOT
ATOM      1  C   UNL     1       3.526   6.271  17.761  0.00  0.00    +0.000 A 
ATOM      2  C   UNL     1       2.991   4.978  17.828  0.00  0.00    +0.000 A 
ATOM      3  C   UNL     1       3.774   3.845  17.587  0.00  0.00    +0.000 A 
ATOM      4  C   UNL     1       5.116   4.007  17.228  0.00  0.00    +0.000 A 
ATOM      5  C   UNL     1       5.667   5.289  17.148  0.00  0.00    +0.000 A 
ATOM      6  C   UNL     1       4.866   6.421  17.391  0.00  0.00    +0.000 A 
ENDROOT
BRANCH   3   7
ATOM      7  C   UNL     1       3.249   2.459  17.722  0.00  0.00    +0.000 C 
ATOM      8  N   UNL     1       4.079   1.481  18.191  0.00  0.00    +0.000 N 
ATOM      9  O   UNL     1       2.100   2.193  17.390  0.00  0.00    +0.000 OA
ATOM     10  H   UNL     1       5.064   1.593  18.387  0.00  0.00    +0.000 HD
ATOM     11  H   UNL     1       3.710   0.541  18.215  0.00  0.00    +0.000 HD
ENDBRANCH   3   7
BRANCH   1  14
ATOM     12  C   UNL     1       2.141   7.645  19.299  0.00  0.00    +0.000 C 
ATOM     13  O   UNL     1       2.218   6.915  20.283  0.00  0.00    +0.000 OA
ATOM     14  N   UNL     1       2.752   7.422  18.070  0.00  0.00    +0.000 N 
ATOM     15  H   UNL     1       2.787   8.189  17.409  0.00  0.00    +0.000 HD
BRANCH  12  19
ATOM     16  C   UNL     1       0.137  11.414  19.710  0.00  0.00    +0.000 A 
ATOM     17  C   UNL     1       0.849  11.099  18.550  0.00  0.00    +0.000 A 
ATOM     18  C   UNL     1       1.471   9.855  18.435  0.00  0.00    +0.000 A 
ATOM     19  C   UNL     1       1.382   8.910  19.471  0.00  0.00    +0.000 A 
ATOM     20  C   UNL     1       0.677   9.226  20.636  0.00  0.00    +0.000 A 
ATOM     21  C   UNL     1       0.056  10.478  20.752  0.00  0.00    +0.000 A 
BRANCH  16  23
ATOM     22  N   UNL     1      -1.007  13.734  19.920  0.00  0.00    +0.000 NA
ATOM     23  C   UNL     1      -0.497  12.694  19.831  0.00  0.00    +0.000 C 
ENDBRANCH  16  23
ENDBRANCH  12  19
ENDBRANCH   1  14
BRANCH   5  24
ATOM     24  C   UNL     1       7.094   5.491  16.793  0.00  0.00    +0.000 C 
ATOM     25  O   UNL     1       7.522   6.571  16.422  0.00  0.00    +0.000 OA
BRANCH  24  26
ATOM     26  O   UNL     1       7.880   4.408  16.967  0.00  0.00    +0.000 OA
ATOM     27  H   UNL     1       8.629   4.505  17.585  0.00  0.00    +0.000 HD
ENDBRANCH  24  26
ENDBRANCH   5  24
TORSDOF 6
ENDMDL
