MODEL 1
REMARK VINA RESULT:      -7.9      0.000      0.000
REMARK  Name = 
REMARK  4 active torsions:
REMARK  status: ('A' for Active; 'I' for Inactive)
REMARK    1  A    between atoms: C_1  and  C_2
REMARK    2  A    between atoms: C_2  and  C_3
REMARK    3  A    between atoms: C_11  and  N_12
REMARK    4  A    between atoms: C_19  and  O_20
REMARK                            x       y       z     vdW  Elec       q    Type
REMARK                         _______ _______ _______ _____ _____    ______ ____
ROOT
ATOM      1  C   UNL     1       1.855   2.554  21.705  0.00  0.00    +0.000 C 
ATOM      2  C   UNL     1       1.991   3.515  20.511  0.00  0.00    +0.000 C 
ATOM      3  C   UNL     1       0.895   3.143  19.494  0.00  0.00    +0.000 C 
ATOM      4  O   UNL     1       1.742   4.845  21.020  0.00  0.00    +0.000 OA
ATOM      5  C   UNL     1       2.074   5.876  20.181  0.00  0.00    +0.000 A 
ATOM      6  C   UNL     1       1.538   7.121  20.484  0.00  0.00    +0.000 A 
ATOM      7  C   UNL     1       1.807   8.174  19.626  0.00  0.00    +0.000 A 
ATOM      8  N   UNL     1       2.549   8.059  18.508  0.00  0.00    +0.000 NA
ATOM      9  C   UNL     1       3.077   6.842  18.255  0.00  0.00    +0.000 A 
ATOM     10  C   UNL     1       2.907   5.729  19.075  0.00  0.00    +0.000 A 
ATOM     11  C   UNL     1       3.591   4.419  18.770  0.00  0.00    +0.000 C 
ATOM     12  C   UNL     1       3.429   3.423  19.945  0.00  0.00    +0.000 C 
ENDROOT
BRANCH  11  13
ATOM     13  N   UNL     1       5.006   4.619  18.395  0.00  0.00    +0.000 N 
ATOM     14  C   UNL     1       5.889   5.197  19.298  0.00  0.00    +0.000 A 
ATOM     15  C   UNL     1       7.129   5.539  18.940  0.00  0.00    +0.000 A 
ATOM     16  C   UNL     1       7.571   5.318  17.590  0.00  0.00    +0.000 A 
ATOM     17  C   UNL     1       6.768   4.724  16.699  0.00  0.00    +0.000 A 
ATOM     18  C   UNL     1       5.389   4.317  17.085  0.00  0.00    +0.000 A 
ATOM     19  O   UNL     1       4.662   3.792  16.249  0.00  0.00    +0.000 OA
ENDBRANCH  11  13
BRANCH  12  20
ATOM     20  O   UNL     1       3.767   2.082  19.568  0.00  0.00    +0.000 OA
ATOM     21  H   UNL     1       4.293   1.675  20.277  0.00  0.00    +0.000 HD
ENDBRANCH  12  20
TORSDOF 2
ENDMDL
MODEL 2
REMARK VINA RESULT:      -7.7      0.968      1.517
REMARK  Name = 
REMARK  4 active torsions:
REMARK  status: ('A' for Active; 'I' for Inactive)
REMARK    1  A    between atoms: C_1  and  C_2
REMARK    2  A    between atoms: C_2  and  C_3
REMARK    3  A    between atoms: C_11  and  N_12
REMARK    4  A    between atoms: C_19  and  O_20
REMARK                            x       y       z     vdW  Elec       q    Type
REMARK                         _______ _______ _______ _____ _____    ______ ____
ROOT
ATOM      1  C   UNL     1       2.330   2.613  21.717  0.00  0.00    +0.000 C 
ATOM      2  C   UNL     1       2.229   3.536  20.489  0.00  0.00    +0.000 C 
ATOM      3  C   UNL     1       0.941   3.157  19.733  0.00  0.00    +0.000 C 
ATOM      4  O   UNL     1       2.109   4.885  20.995  0.00  0.00    +0.000 OA
ATOM      5  C   UNL     1       2.275   5.884  20.071  0.00  0.00    +0.000 A 
ATOM      6  C   UNL     1       1.831   7.149  20.437  0.00  0.00    +0.000 A 
ATOM      7  C   UNL     1       1.931   8.170  19.508  0.00  0.00    +0.000 A 
ATOM      8  N   UNL     1       2.424   8.006  18.265  0.00  0.00    +0.000 NA
ATOM      9  C   UNL     1       2.871   6.773  17.949  0.00  0.00    +0.000 A 
ATOM     10  C   UNL     1       2.859   5.688  18.823  0.00  0.00    +0.000 A 
ATOM     11  C   UNL     1       3.447   4.356  18.427  0.00  0.00    +0.000 C 
ATOM     12  C   UNL     1       3.517   3.398  19.642  0.00  0.00    +0.000 C 
ENDROOT
BRANCH  11  13
ATOM     13  N   UNL     1       4.756   4.515  17.761  0.00  0.00    +0.000 N 
ATOM     14  C   UNL     1       4.877   4.259  16.400  0.00  0.00    +0.000 A 
ATOM     15  C   UNL     1       6.069   4.235  15.799  0.00  0.00    +0.000 A 
ATOM     16  C   UNL     1       7.263   4.469  16.565  0.00  0.00    +0.000 A 
ATOM     17  C   UNL     1       7.188   4.761  17.869  0.00  0.00    +0.000 A 
ATOM     18  C   UNL     1       5.867   4.812  18.553  0.00  0.00    +0.000 A 
ATOM     19  O   UNL     1       5.821   5.063  19.752  0.00  0.00    +0.000 OA
ENDBRANCH  11  13
BRANCH  12  20
ATOM     20  O   UNL     1       3.750   2.040  19.248  0.00  0.00    +0.000 OA
ATOM     21  H   UNL     1       2.898   1.577  19.179  0.00  0.00    +0.000 HD
ENDBRANCH  12  20
TORSDOF 2
ENDMDL
MODEL 3
REMARK VINA RESULT:      -7.3      2.160      5.201
REMARK  Name = 
REMARK  4 active torsions:
REMARK  status: ('A' for Active; 'I' for Inactive)
REMARK    1  A    between atoms: C_1  and  C_2
REMARK    2  A    between atoms: C_2  and  C_3
REMARK    3  A    between atoms: C_11  and  N_12
REMARK    4  A    between atoms: C_19  and  O_20
REMARK                            x       y       z     vdW  Elec       q    Type
REMARK                         _______ _______ _______ _____ _____    ______ ____
ROOT
ATOM      1  C   UNL     1       7.204   4.882  17.309  0.00  0.00    +0.000 C 
ATOM      2  C   UNL     1       5.679   4.857  17.108  0.00  0.00    +0.000 C 
ATOM      3  C   UNL     1       5.415   4.854  15.590  0.00  0.00    +0.000 C 
ATOM      4  O   UNL     1       5.207   3.616  17.680  0.00  0.00    +0.000 OA
ATOM      5  C   UNL     1       3.850   3.515  17.845  0.00  0.00    +0.000 A 
ATOM      6  C   UNL     1       3.343   2.238  18.057  0.00  0.00    +0.000 A 
ATOM      7  C   UNL     1       1.972   2.091  18.173  0.00  0.00    +0.000 A 
ATOM      8  N   UNL     1       1.098   3.113  18.081  0.00  0.00    +0.000 NA
ATOM      9  C   UNL     1       1.623   4.343  17.901  0.00  0.00    +0.000 A 
ATOM     10  C   UNL     1       2.988   4.607  17.817  0.00  0.00    +0.000 A 
ATOM     11  C   UNL     1       3.507   6.019  17.693  0.00  0.00    +0.000 C 
ATOM     12  C   UNL     1       5.047   6.059  17.851  0.00  0.00    +0.000 C 
ENDROOT
BRANCH  11  13
ATOM     13  N   UNL     1       2.823   6.935  18.629  0.00  0.00    +0.000 N 
ATOM     14  C   UNL     1       2.496   6.503  19.908  0.00  0.00    +0.000 A 
ATOM     15  C   UNL     1       1.739   7.243  20.722  0.00  0.00    +0.000 A 
ATOM     16  C   UNL     1       1.235   8.513  20.274  0.00  0.00    +0.000 A 
ATOM     17  C   UNL     1       1.560   8.986  19.066  0.00  0.00    +0.000 A 
ATOM     18  C   UNL     1       2.420   8.185  18.152  0.00  0.00    +0.000 A 
ATOM     19  O   UNL     1       2.691   8.627  17.041  0.00  0.00    +0.000 OA
ENDBRANCH  11  13
BRANCH  12  20
ATOM     20  O   UNL     1       5.604   7.305  17.415  0.00  0.00    +0.000 OA
ATOM     21  H   UNL     1       5.718   7.283  16.449  0.00  0.00    +0.000 HD
ENDBRANCH  12  20
TORSDOF 2
ENDMDL
MODEL 4
REMARK VINA RESULT:      -7.2      1.704      2.169
REMARK  Name = 
REMARK  4 active torsions:
REMARK  status: ('A' for Active; 'I' for Inactive)
REMARK    1  A    between atoms: C_1  and  C_2
REMARK    2  A    between atoms: C_2  and  C_3
REMARK    3  A    between atoms: C_11  and  N_12
REMARK    4  A    between atoms: C_19  and  O_20
REMARK                            x       y       z     vdW  Elec       q    Type
REMARK                         _______ _______ _______ _____ _____    ______ ____
ROOT
ATOM      1  C   UNL     1       3.339   1.372  18.522  0.00  0.00    +0.000 C 
ATOM      2  C   UNL     1       3.164   2.882  18.277  0.00  0.00    +0.000 C 
ATOM      3  C   UNL     1       2.167   3.046  17.114  0.00  0.00    +0.000 C 
ATOM      4  O   UNL     1       2.588   3.432  19.483  0.00  0.00    +0.000 OA
ATOM      5  C   UNL     1       2.598   4.799  19.577  0.00  0.00    +0.000 A 
ATOM      6  C   UNL     1       1.761   5.363  20.533  0.00  0.00    +0.000 A 
ATOM      7  C   UNL     1       1.702   6.743  20.618  0.00  0.00    +0.000 A 
ATOM      8  N   UNL     1       2.402   7.573  19.820  0.00  0.00    +0.000 NA
ATOM      9  C   UNL     1       3.226   6.995  18.920  0.00  0.00    +0.000 A 
ATOM     10  C   UNL     1       3.393   5.619  18.782  0.00  0.00    +0.000 A 
ATOM     11  C   UNL     1       4.391   5.045  17.806  0.00  0.00    +0.000 C 
ATOM     12  C   UNL     1       4.549   3.518  18.010  0.00  0.00    +0.000 C 
ENDROOT
BRANCH  11  13
ATOM     13  N   UNL     1       5.684   5.757  17.867  0.00  0.00    +0.000 N 
ATOM     14  C   UNL     1       6.570   5.499  18.906  0.00  0.00    +0.000 A 
ATOM     15  C   UNL     1       7.670   6.234  19.083  0.00  0.00    +0.000 A 
ATOM     16  C   UNL     1       7.953   7.326  18.191  0.00  0.00    +0.000 A 
ATOM     17  C   UNL     1       7.150   7.581  17.152  0.00  0.00    +0.000 A 
ATOM     18  C   UNL     1       5.929   6.760  16.926  0.00  0.00    +0.000 A 
ATOM     19  O   UNL     1       5.196   7.023  15.980  0.00  0.00    +0.000 OA
ENDBRANCH  11  13
BRANCH  12  20
ATOM     20  O   UNL     1       5.218   2.891  16.909  0.00  0.00    +0.000 OA
ATOM     21  H   UNL     1       4.753   2.069  16.679  0.00  0.00    +0.000 HD
ENDBRANCH  12  20
TORSDOF 2
ENDMDL
MODEL 5
REMARK VINA RESULT:      -7.1      1.783      2.463
REMARK  Name = 
REMARK  4 active torsions:
REMARK  status: ('A' for Active; 'I' for Inactive)
REMARK    1  A    between atoms: C_1  and  C_2
REMARK    2  A    between atoms: C_2  and  C_3
REMARK    3  A    between atoms: C_11  and  N_12
REMARK    4  A    between atoms: C_19  and  O_20
REMARK                            x       y       z     vdW  Elec       q    Type
REMARK                         _______ _______ _______ _____ _____    ______ ____
ROOT
ATOM      1  C   UNL     1       3.511   1.379  18.361  0.00  0.00    +0.000 C 
ATOM      2  C   UNL     1       3.236   2.887  18.220  0.00  0.00    +0.000 C 
ATOM      3  C   UNL     1       2.247   3.067  17.052  0.00  0.00    +0.000 C 
ATOM      4  O   UNL     1       2.606   3.309  19.451  0.00  0.00    +0.000 OA
ATOM      5  C   UNL     1       2.520   4.664  19.641  0.00  0.00    +0.000 A 
ATOM      6  C   UNL     1       1.632   5.099  20.617  0.00  0.00    +0.000 A 
ATOM      7  C   UNL     1       1.478   6.462  20.799  0.00  0.00    +0.000 A 
ATOM      8  N   UNL     1       2.131   7.393  20.075  0.00  0.00    +0.000 NA
ATOM      9  C   UNL     1       3.005   6.938  19.153  0.00  0.00    +0.000 A 
ATOM     10  C   UNL     1       3.269   5.591  18.922  0.00  0.00    +0.000 A 
ATOM     11  C   UNL     1       4.318   5.157  17.927  0.00  0.00    +0.000 C 
ATOM     12  C   UNL     1       4.577   3.633  18.026  0.00  0.00    +0.000 C 
ENDROOT
BRANCH  11  13
ATOM     13  N   UNL     1       5.558   5.948  18.063  0.00  0.00    +0.000 N 
ATOM     14  C   UNL     1       5.841   6.956  17.150  0.00  0.00    +0.000 A 
ATOM     15  C   UNL     1       7.020   7.581  17.144  0.00  0.00    +0.000 A 
ATOM     16  C   UNL     1       8.034   7.206  18.093  0.00  0.00    +0.000 A 
ATOM     17  C   UNL     1       7.789   6.270  19.016  0.00  0.00    +0.000 A 
ATOM     18  C   UNL     1       6.472   5.576  19.052  0.00  0.00    +0.000 A 
ATOM     19  O   UNL     1       6.274   4.707  19.894  0.00  0.00    +0.000 OA
ENDBRANCH  11  13
BRANCH  12  20
ATOM     20  O   UNL     1       5.304   3.134  16.895  0.00  0.00    +0.000 OA
ATOM     21  H   UNL     1       6.248   3.342  17.006  0.00  0.00    +0.000 HD
ENDBRANCH  12  20
TORSDOF 2
ENDMDL
MODEL 6
REMARK VINA RESULT:      -7.0      1.711      4.468
REMARK  Name = 
REMARK  4 active torsions:
REMARK  status: ('A' for Active; 'I' for Inactive)
REMARK    1  A    between atoms: C_1  and  C_2
REMARK    2  A    between atoms: C_2  and  C_3
REMARK    3  A    between atoms: C_11  and  N_12
REMARK    4  A    between atoms: C_19  and  O_20
REMARK                            x       y       z     vdW  Elec       q    Type
REMARK                         _______ _______ _______ _____ _____    ______ ____
ROOT
ATOM      1  C   UNL     1       5.600   5.567  15.536  0.00  0.00    +0.000 C 
ATOM      2  C   UNL     1       5.018   5.972  16.903  0.00  0.00    +0.000 C 
ATOM      3  C   UNL     1       6.187   6.488  17.765  0.00  0.00    +0.000 C 
ATOM      4  O   UNL     1       4.092   7.053  16.655  0.00  0.00    +0.000 OA
ATOM      5  C   UNL     1       3.267   7.381  17.699  0.00  0.00    +0.000 A 
ATOM      6  C   UNL     1       2.625   8.611  17.621  0.00  0.00    +0.000 A 
ATOM      7  C   UNL     1       1.828   9.001  18.683  0.00  0.00    +0.000 A 
ATOM      8  N   UNL     1       1.648   8.261  19.795  0.00  0.00    +0.000 NA
ATOM      9  C   UNL     1       2.264   7.061  19.830  0.00  0.00    +0.000 A 
ATOM     10  C   UNL     1       3.050   6.554  18.798  0.00  0.00    +0.000 A 
ATOM     11  C   UNL     1       3.646   5.170  18.873  0.00  0.00    +0.000 C 
ATOM     12  C   UNL     1       4.273   4.762  17.517  0.00  0.00    +0.000 C 
ENDROOT
BRANCH  11  13
ATOM     13  N   UNL     1       2.662   4.179  19.357  0.00  0.00    +0.000 N 
ATOM     14  C   UNL     1       2.822   3.598  20.609  0.00  0.00    +0.000 A 
ATOM     15  C   UNL     1       2.049   2.587  21.012  0.00  0.00    +0.000 A 
ATOM     16  C   UNL     1       1.031   2.071  20.138  0.00  0.00    +0.000 A 
ATOM     17  C   UNL     1       0.815   2.629  18.941  0.00  0.00    +0.000 A 
ATOM     18  C   UNL     1       1.652   3.771  18.482  0.00  0.00    +0.000 A 
ATOM     19  O   UNL     1       1.452   4.256  17.374  0.00  0.00    +0.000 OA
ENDBRANCH  11  13
BRANCH  12  20
ATOM     20  O   UNL     1       5.127   3.618  17.638  0.00  0.00    +0.000 OA
ATOM     21  H   UNL     1       4.584   2.832  17.819  0.00  0.00    +0.000 HD
ENDBRANCH  12  20
TORSDOF 2
ENDMDL
MODEL 7
REMARK VINA RESULT:      -7.0      2.581      5.693
REMARK  Name = 
REMARK  4 active torsions:
REMARK  status: ('A' for Active; 'I' for Inactive)
REMARK    1  A    between atoms: C_1  and  C_2
REMARK    2  A    between atoms: C_2  and  C_3
REMARK    3  A    between atoms: C_11  and  N_12
REMARK    4  A    between atoms: C_19  and  O_20
REMARK                            x       y       z     vdW  Elec       q    Type
REMARK                         _______ _______ _______ _____ _____    ______ ____
ROOT
ATOM      1  C   UNL     1       8.182   6.078  19.132  0.00  0.00    +0.000 C 
ATOM      2  C   UNL     1       7.102   6.004  18.039  0.00  0.00    +0.000 C 
ATOM      3  C   UNL     1       6.803   7.447  17.589  0.00  0.00    +0.000 C 
ATOM      4  O   UNL     1       7.679   5.268  16.936  0.00  0.00    +0.000 OA
ATOM      5  C   UNL     1       6.799   4.858  15.969  0.00  0.00    +0.000 A 
ATOM      6  C   UNL     1       7.349   4.466  14.754  0.00  0.00    +0.000 A 
ATOM      7  C   UNL     1       6.487   4.099  13.735  0.00  0.00    +0.000 A 
ATOM      8  N   UNL     1       5.145   4.110  13.849  0.00  0.00    +0.000 NA
ATOM      9  C   UNL     1       4.643   4.471  15.049  0.00  0.00    +0.000 A 
ATOM     10  C   UNL     1       5.420   4.814  16.152  0.00  0.00    +0.000 A 
ATOM     11  C   UNL     1       4.791   5.131  17.487  0.00  0.00    +0.000 C 
ATOM     12  C   UNL     1       5.868   5.252  18.592  0.00  0.00    +0.000 C 
ENDROOT
BRANCH  11  13
ATOM     13  N   UNL     1       3.734   4.160  17.835  0.00  0.00    +0.000 N 
ATOM     14  C   UNL     1       4.026   2.802  17.878  0.00  0.00    +0.000 A 
ATOM     15  C   UNL     1       3.067   1.886  18.030  0.00  0.00    +0.000 A 
ATOM     16  C   UNL     1       1.694   2.299  18.144  0.00  0.00    +0.000 A 
ATOM     17  C   UNL     1       1.373   3.598  18.151  0.00  0.00    +0.000 A 
ATOM     18  C   UNL     1       2.431   4.635  18.004  0.00  0.00    +0.000 A 
ATOM     19  O   UNL     1       2.114   5.819  17.993  0.00  0.00    +0.000 OA
ENDBRANCH  11  13
BRANCH  12  20
ATOM     20  O   UNL     1       5.358   5.870  19.780  0.00  0.00    +0.000 OA
ATOM     21  H   UNL     1       5.990   6.543  20.087  0.00  0.00    +0.000 HD
ENDBRANCH  12  20
TORSDOF 2
ENDMDL
MODEL 8
REMARK VINA RESULT:      -6.9      1.074      1.088
REMARK  Name = 
REMARK  4 active torsions:
REMARK  status: ('A' for Active; 'I' for Inactive)
REMARK    1  A    between atoms: C_1  and  C_2
REMARK    2  A    between atoms: C_2  and  C_3
REMARK    3  A    between atoms: C_11  and  N_12
REMARK    4  A    between atoms: C_19  and  O_20
REMARK                            x       y       z     vdW  Elec       q    Type
REMARK                         _______ _______ _______ _____ _____    ______ ____
ROOT
ATOM      1  C   UNL     1       2.201   2.015  20.298  0.00  0.00    +0.000 C 
ATOM      2  C   UNL     1       2.290   3.322  19.490  0.00  0.00    +0.000 C 
ATOM      3  C   UNL     1       1.314   3.196  18.303  0.00  0.00    +0.000 C 
ATOM      4  O   UNL     1       1.845   4.382  20.366  0.00  0.00    +0.000 OA
ATOM      5  C   UNL     1       2.098   5.657  19.934  0.00  0.00    +0.000 A 
ATOM      6  C   UNL     1       1.393   6.677  20.561  0.00  0.00    +0.000 A 
ATOM      7  C   UNL     1       1.582   7.973  20.112  0.00  0.00    +0.000 A 
ATOM      8  N   UNL     1       2.401   8.301  19.094  0.00  0.00    +0.000 NA
ATOM      9  C   UNL     1       3.091   7.292  18.523  0.00  0.00    +0.000 A 
ATOM     10  C   UNL     1       3.010   5.962  18.927  0.00  0.00    +0.000 A 
ATOM     11  C   UNL     1       3.870   4.896  18.292  0.00  0.00    +0.000 C 
ATOM     12  C   UNL     1       3.760   3.561  19.069  0.00  0.00    +0.000 C 
ENDROOT
BRANCH  11  13
ATOM     13  N   UNL     1       5.269   5.344  18.141  0.00  0.00    +0.000 N 
ATOM     14  C   UNL     1       6.125   5.327  19.236  0.00  0.00    +0.000 A 
ATOM     15  C   UNL     1       7.342   5.872  19.178  0.00  0.00    +0.000 A 
ATOM     16  C   UNL     1       7.788   6.503  17.965  0.00  0.00    +0.000 A 
ATOM     17  C   UNL     1       7.013   6.504  16.874  0.00  0.00    +0.000 A 
ATOM     18  C   UNL     1       5.660   5.883  16.913  0.00  0.00    +0.000 A 
ATOM     19  O   UNL     1       4.958   5.911  15.909  0.00  0.00    +0.000 OA
ENDBRANCH  11  13
BRANCH  12  20
ATOM     20  O   UNL     1       4.285   2.456  18.322  0.00  0.00    +0.000 OA
ATOM     21  H   UNL     1       4.423   2.731  17.400  0.00  0.00    +0.000 HD
ENDBRANCH  12  20
TORSDOF 2
ENDMDL
MODEL 9
REMARK VINA RESULT:      -6.9      1.586      4.662
REMARK  Name = 
REMARK  4 active torsions:
REMARK  status: ('A' for Active; 'I' for Inactive)
REMARK    1  A    between atoms: C_1  and  C_2
REMARK    2  A    between atoms: C_2  and  C_3
REMARK    3  A    between atoms: C_11  and  N_12
REMARK    4  A    between atoms: C_19  and  O_20
REMARK                            x       y       z     vdW  Elec       q    Type
REMARK                         _______ _______ _______ _____ _____    ______ ____
ROOT
ATOM      1  C   UNL     1       5.945   5.569  14.986  0.00  0.00    +0.000 C 
ATOM      2  C   UNL     1       5.405   5.781  16.411  0.00  0.00    +0.000 C 
ATOM      3  C   UNL     1       6.597   6.193  17.298  0.00  0.00    +0.000 C 
ATOM      4  O   UNL     1       4.462   6.874  16.338  0.00  0.00    +0.000 OA
ATOM      5  C   UNL     1       3.669   7.052  17.441  0.00  0.00    +0.000 A 
ATOM      6  C   UNL     1       3.015   8.273  17.547  0.00  0.00    +0.000 A 
ATOM      7  C   UNL     1       2.249   8.508  18.676  0.00  0.00    +0.000 A 
ATOM      8  N   UNL     1       2.111   7.626  19.684  0.00  0.00    +0.000 NA
ATOM      9  C   UNL     1       2.738   6.440  19.540  0.00  0.00    +0.000 A 
ATOM     10  C   UNL     1       3.494   6.084  18.426  0.00  0.00    +0.000 A 
ATOM     11  C   UNL     1       4.103   4.709  18.299  0.00  0.00    +0.000 C 
ATOM     12  C   UNL     1       4.690   4.492  16.882  0.00  0.00    +0.000 C 
ENDROOT
BRANCH  11  13
ATOM     13  N   UNL     1       3.143   3.651  18.677  0.00  0.00    +0.000 N 
ATOM     14  C   UNL     1       1.877   3.626  18.105  0.00  0.00    +0.000 A 
ATOM     15  C   UNL     1       0.933   2.788  18.538  0.00  0.00    +0.000 A 
ATOM     16  C   UNL     1       1.215   1.890  19.626  0.00  0.00    +0.000 A 
ATOM     17  C   UNL     1       2.434   1.851  20.176  0.00  0.00    +0.000 A 
ATOM     18  C   UNL     1       3.507   2.764  19.694  0.00  0.00    +0.000 A 
ATOM     19  O   UNL     1       4.611   2.727  20.224  0.00  0.00    +0.000 OA
ENDBRANCH  11  13
BRANCH  12  20
ATOM     20  O   UNL     1       5.556   3.352  16.824  0.00  0.00    +0.000 OA
ATOM     21  H   UNL     1       5.701   3.015  17.724  0.00  0.00    +0.000 HD
ENDBRANCH  12  20
TORSDOF 2
ENDMDL
