MODEL 1
REMARK VINA RESULT:      -8.2      0.000      0.000
REMARK  Name = 
REMARK  6 active torsions:
REMARK  status: ('A' for Active; 'I' for Inactive)
REMARK    1  A    between atoms: C_1  and  N_2
REMARK    2  A    between atoms: C_4  and  C_5
REMARK    3  A    between atoms: C_10  and  C_11
REMARK    4  A    between atoms: C_17  and  C_18
REMARK    5  A    between atoms: N_21  and  C_22
REMARK    6  A    between atoms: C_28  and  C_29
REMARK                            x       y       z     vdW  Elec       q    Type
REMARK                         _______ _______ _______ _____ _____    ______ ____
ROOT
ATOM      1  C   UNL     1       1.297   9.260  19.245  0.00  0.00    +0.000 C 
ATOM      2  C   UNL     1       1.221   8.052  20.158  0.00  0.00    +0.000 C 
ATOM      3  C   UNL     1       2.540   7.261  19.974  0.00  0.00    +0.000 C 
ATOM      4  N   UNL     1       2.996   7.116  18.566  0.00  0.00    +0.000 N 
ATOM      5  C   UNL     1       2.627   8.118  17.553  0.00  0.00    +0.000 C 
ATOM      6  C   UNL     1       1.275   8.720  17.816  0.00  0.00    +0.000 C 
ENDROOT
BRANCH   4   7
ATOM      7  C   UNL     1       3.210   5.826  18.061  0.00  0.00    +0.000 A 
ATOM      8  N   UNL     1       2.155   4.988  18.092  0.00  0.00    +0.000 NA
ATOM      9  C   UNL     1       2.308   3.782  17.536  0.00  0.00    +0.000 A 
ATOM     10  N   UNL     1       3.418   3.318  16.960  0.00  0.00    +0.000 NA
ATOM     11  C   UNL     1       4.477   4.144  16.949  0.00  0.00    +0.000 A 
ATOM     12  N   UNL     1       5.565   3.655  16.237  0.00  0.00    +0.000 N 
ATOM     13  C   UNL     1       4.437   5.417  17.514  0.00  0.00    +0.000 A 
ATOM     14  H   UNL     1       5.469   2.669  16.029  0.00  0.00    +0.000 HD
ATOM     15  H   UNL     1       6.481   3.960  16.571  0.00  0.00    +0.000 HD
BRANCH  13  16
ATOM     16  C   UNL     1       5.703   6.210  17.588  0.00  0.00    +0.000 C 
ATOM     17  N   UNL     1       6.489   6.056  18.695  0.00  0.00    +0.000 N 
ATOM     18  O   UNL     1       6.092   6.954  16.684  0.00  0.00    +0.000 OA
ATOM     19  H   UNL     1       6.163   5.529  19.498  0.00  0.00    +0.000 HD
ATOM     20  H   UNL     1       7.294   6.662  18.788  0.00  0.00    +0.000 HD
ENDBRANCH  13  16
ENDBRANCH   4   7
BRANCH   1  26
ATOM     21  C   UNL     1       2.003  12.116  18.609  0.00  0.00    +0.000 C 
ATOM     22  N   UNL     1       0.661  11.630  18.842  0.00  0.00    +0.000 N 
ATOM     23  C   UNL     1      -0.470  12.242  18.385  0.00  0.00    +0.000 A 
ATOM     24  C   UNL     1      -1.503  11.401  18.733  0.00  0.00    +0.000 A 
ATOM     25  N   UNL     1      -1.010  10.272  19.361  0.00  0.00    +0.000 NA
ATOM     26  C   UNL     1       0.305  10.375  19.307  0.00  0.00    +0.000 A 
BRANCH  24  27
ATOM     27  C   UNL     1      -2.906  11.603  18.395  0.00  0.00    +0.000 A 
ATOM     28  C   UNL     1      -3.334  11.396  17.079  0.00  0.00    +0.000 A 
ATOM     29  C   UNL     1      -4.672  11.597  16.730  0.00  0.00    +0.000 A 
ATOM     30  C   UNL     1      -5.588  12.012  17.692  0.00  0.00    +0.000 A 
ATOM     31  F   UNL     1      -6.862  12.192  17.320  0.00  0.00    +0.000 F 
ATOM     32  C   UNL     1      -5.198  12.238  19.006  0.00  0.00    +0.000 A 
ATOM     33  C   UNL     1      -3.846  12.033  19.349  0.00  0.00    +0.000 A 
BRANCH  32  34
ATOM     34  C   UNL     1      -6.178  12.696  20.046  0.00  0.00    +0.000 C 
ATOM     35  F   UNL     1      -7.253  11.885  20.232  0.00  0.00    +0.000 F 
ATOM     36  F   UNL     1      -5.596  12.822  21.274  0.00  0.00    +0.000 F 
ATOM     37  F   UNL     1      -6.689  13.929  19.762  0.00  0.00    +0.000 F 
ENDBRANCH  32  34
ENDBRANCH  24  27
ENDBRANCH   1  26
TORSDOF 5
ENDMDL
MODEL 2
REMARK VINA RESULT:      -8.2      6.290     10.789
REMARK  Name = 
REMARK  6 active torsions:
REMARK  status: ('A' for Active; 'I' for Inactive)
REMARK    1  A    between atoms: C_1  and  N_2
REMARK    2  A    between atoms: C_4  and  C_5
REMARK    3  A    between atoms: C_10  and  C_11
REMARK    4  A    between atoms: C_17  and  C_18
REMARK    5  A    between atoms: N_21  and  C_22
REMARK    6  A    between atoms: C_28  and  C_29
REMARK                            x       y       z     vdW  Elec       q    Type
REMARK                         _______ _______ _______ _____ _____    ______ ____
ROOT
ATOM      1  C   UNL     1       2.215   7.267  18.739  0.00  0.00    +0.000 C 
ATOM      2  C   UNL     1       2.073   7.682  20.190  0.00  0.00    +0.000 C 
ATOM      3  C   UNL     1       0.839   8.614  20.276  0.00  0.00    +0.000 C 
ATOM      4  N   UNL     1       0.735   9.623  19.189  0.00  0.00    +0.000 N 
ATOM      5  C   UNL     1       1.333   9.365  17.869  0.00  0.00    +0.000 C 
ATOM      6  C   UNL     1       2.581   8.532  17.964  0.00  0.00    +0.000 C 
ENDROOT
BRANCH   4   7
ATOM      7  C   UNL     1       0.653  10.978  19.537  0.00  0.00    +0.000 A 
ATOM      8  N   UNL     1       1.647  11.460  20.309  0.00  0.00    +0.000 NA
ATOM      9  C   UNL     1       1.638  12.768  20.583  0.00  0.00    +0.000 A 
ATOM     10  N   UNL     1       0.724  13.650  20.173  0.00  0.00    +0.000 NA
ATOM     11  C   UNL     1      -0.280  13.167  19.424  0.00  0.00    +0.000 A 
ATOM     12  N   UNL     1      -1.135  14.145  18.931  0.00  0.00    +0.000 N 
ATOM     13  C   UNL     1      -0.381  11.818  19.090  0.00  0.00    +0.000 A 
ATOM     14  H   UNL     1      -0.998  15.035  19.392  0.00  0.00    +0.000 HD
ATOM     15  H   UNL     1      -2.104  13.851  18.793  0.00  0.00    +0.000 HD
BRANCH  13  16
ATOM     16  C   UNL     1      -1.608  11.344  18.379  0.00  0.00    +0.000 C 
ATOM     17  N   UNL     1      -1.495  11.024  17.055  0.00  0.00    +0.000 N 
ATOM     18  O   UNL     1      -2.697  11.185  18.936  0.00  0.00    +0.000 OA
ATOM     19  H   UNL     1      -0.646  11.227  16.539  0.00  0.00    +0.000 HD
ATOM     20  H   UNL     1      -2.343  10.796  16.552  0.00  0.00    +0.000 HD
ENDBRANCH  13  16
ENDBRANCH   4   7
BRANCH   1  26
ATOM     21  C   UNL     1       1.589   4.332  18.979  0.00  0.00    +0.000 C 
ATOM     22  N   UNL     1       2.736   4.878  18.288  0.00  0.00    +0.000 N 
ATOM     23  C   UNL     1       3.423   4.229  17.302  0.00  0.00    +0.000 A 
ATOM     24  C   UNL     1       4.356   5.135  16.852  0.00  0.00    +0.000 A 
ATOM     25  N   UNL     1       4.220   6.336  17.525  0.00  0.00    +0.000 NA
ATOM     26  C   UNL     1       3.159   6.196  18.299  0.00  0.00    +0.000 A 
BRANCH  24  27
ATOM     27  C   UNL     1       5.283   4.916  15.750  0.00  0.00    +0.000 A 
ATOM     28  C   UNL     1       6.599   5.378  15.854  0.00  0.00    +0.000 A 
ATOM     29  C   UNL     1       7.502   5.190  14.805  0.00  0.00    +0.000 A 
ATOM     30  C   UNL     1       7.092   4.545  13.641  0.00  0.00    +0.000 A 
ATOM     31  F   UNL     1       7.985   4.382  12.657  0.00  0.00    +0.000 F 
ATOM     32  C   UNL     1       5.790   4.083  13.496  0.00  0.00    +0.000 A 
ATOM     33  C   UNL     1       4.887   4.277  14.561  0.00  0.00    +0.000 A 
BRANCH  32  34
ATOM     34  C   UNL     1       5.338   3.396  12.240  0.00  0.00    +0.000 C 
ATOM     35  F   UNL     1       5.790   2.125  12.076  0.00  0.00    +0.000 F 
ATOM     36  F   UNL     1       3.978   3.316  12.165  0.00  0.00    +0.000 F 
ATOM     37  F   UNL     1       5.721   4.073  11.120  0.00  0.00    +0.000 F 
ENDBRANCH  32  34
ENDBRANCH  24  27
ENDBRANCH   1  26
TORSDOF 5
ENDMDL
MODEL 3
REMARK VINA RESULT:      -8.1      0.908      1.861
REMARK  Name = 
REMARK  6 active torsions:
REMARK  status: ('A' for Active; 'I' for Inactive)
REMARK    1  A    between atoms: C_1  and  N_2
REMARK    2  A    between atoms: C_4  and  C_5
REMARK    3  A    between atoms: C_10  and  C_11
REMARK    4  A    between atoms: C_17  and  C_18
REMARK    5  A    between atoms: N_21  and  C_22
REMARK    6  A    between atoms: C_28  and  C_29
REMARK                            x       y       z     vdW  Elec       q    Type
REMARK                         _______ _______ _______ _____ _____    ______ ____
ROOT
ATOM      1  C   UNL     1       1.455   9.373  19.670  0.00  0.00    +0.000 C 
ATOM      2  C   UNL     1       1.211   8.144  20.524  0.00  0.00    +0.000 C 
ATOM      3  C   UNL     1       2.410   7.190  20.298  0.00  0.00    +0.000 C 
ATOM      4  N   UNL     1       2.848   7.052  18.885  0.00  0.00    +0.000 N 
ATOM      5  C   UNL     1       2.624   8.142  17.922  0.00  0.00    +0.000 C 
ATOM      6  C   UNL     1       1.366   8.911  18.217  0.00  0.00    +0.000 C 
ENDROOT
BRANCH   4   7
ATOM      7  C   UNL     1       2.885   5.771  18.316  0.00  0.00    +0.000 A 
ATOM      8  N   UNL     1       1.700   5.148  18.166  0.00  0.00    +0.000 NA
ATOM      9  C   UNL     1       1.700   3.962  17.547  0.00  0.00    +0.000 A 
ATOM     10  N   UNL     1       2.771   3.325  17.071  0.00  0.00    +0.000 NA
ATOM     11  C   UNL     1       3.955   3.934  17.242  0.00  0.00    +0.000 A 
ATOM     12  N   UNL     1       5.016   3.283  16.627  0.00  0.00    +0.000 N 
ATOM     13  C   UNL     1       4.077   5.164  17.887  0.00  0.00    +0.000 A 
ATOM     14  H   UNL     1       4.770   2.345  16.339  0.00  0.00    +0.000 HD
ATOM     15  H   UNL     1       5.924   3.392  17.085  0.00  0.00    +0.000 HD
BRANCH  13  16
ATOM     16  C   UNL     1       5.446   5.697  18.163  0.00  0.00    +0.000 C 
ATOM     17  N   UNL     1       6.051   5.331  19.333  0.00  0.00    +0.000 N 
ATOM     18  O   UNL     1       6.070   6.408  17.371  0.00  0.00    +0.000 OA
ATOM     19  H   UNL     1       5.540   4.828  20.050  0.00  0.00    +0.000 HD
ATOM     20  H   UNL     1       6.934   5.768  19.562  0.00  0.00    +0.000 HD
ENDBRANCH  13  16
ENDBRANCH   4   7
BRANCH   1  26
ATOM     21  C   UNL     1       2.156  11.954  18.288  0.00  0.00    +0.000 C 
ATOM     22  N   UNL     1       0.919  11.705  18.994  0.00  0.00    +0.000 N 
ATOM     23  C   UNL     1      -0.246  12.381  18.771  0.00  0.00    +0.000 A 
ATOM     24  C   UNL     1      -1.183  11.763  19.568  0.00  0.00    +0.000 A 
ATOM     25  N   UNL     1      -0.611  10.700  20.242  0.00  0.00    +0.000 NA
ATOM     26  C   UNL     1       0.626  10.610  19.789  0.00  0.00    +0.000 A 
BRANCH  24  27
ATOM     27  C   UNL     1      -2.600  12.097  19.618  0.00  0.00    +0.000 A 
ATOM     28  C   UNL     1      -3.127  12.696  20.768  0.00  0.00    +0.000 A 
ATOM     29  C   UNL     1      -4.485  13.012  20.844  0.00  0.00    +0.000 A 
ATOM     30  C   UNL     1      -5.328  12.726  19.773  0.00  0.00    +0.000 A 
ATOM     31  F   UNL     1      -6.623  13.046  19.882  0.00  0.00    +0.000 F 
ATOM     32  C   UNL     1      -4.844  12.122  18.619  0.00  0.00    +0.000 A 
ATOM     33  C   UNL     1      -3.471  11.807  18.553  0.00  0.00    +0.000 A 
BRANCH  32  34
ATOM     34  C   UNL     1      -5.748  11.802  17.465  0.00  0.00    +0.000 C 
ATOM     35  F   UNL     1      -6.863  11.091  17.778  0.00  0.00    +0.000 F 
ATOM     36  F   UNL     1      -6.193  12.929  16.839  0.00  0.00    +0.000 F 
ATOM     37  F   UNL     1      -5.109  11.082  16.498  0.00  0.00    +0.000 F 
ENDBRANCH  32  34
ENDBRANCH  24  27
ENDBRANCH   1  26
TORSDOF 5
ENDMDL
MODEL 4
REMARK VINA RESULT:      -7.9      6.228     10.751
REMARK  Name = 
REMARK  6 active torsions:
REMARK  status: ('A' for Active; 'I' for Inactive)
REMARK    1  A    between atoms: C_1  and  N_2
REMARK    2  A    between atoms: C_4  and  C_5
REMARK    3  A    between atoms: C_10  and  C_11
REMARK    4  A    between atoms: C_17  and  C_18
REMARK    5  A    between atoms: N_21  and  C_22
REMARK    6  A    between atoms: C_28  and  C_29
REMARK                            x       y       z     vdW  Elec       q    Type
REMARK                         _______ _______ _______ _____ _____    ______ ____
ROOT
ATOM      1  C   UNL     1       2.563   7.007  18.522  0.00  0.00    +0.000 C 
ATOM      2  C   UNL     1       2.399   7.367  19.986  0.00  0.00    +0.000 C 
ATOM      3  C   UNL     1       1.068   8.148  20.114  0.00  0.00    +0.000 C 
ATOM      4  N   UNL     1       0.829   9.164  19.056  0.00  0.00    +0.000 N 
ATOM      5  C   UNL     1       1.430   9.010  17.722  0.00  0.00    +0.000 C 
ATOM      6  C   UNL     1       2.767   8.324  17.776  0.00  0.00    +0.000 C 
ENDROOT
BRANCH   4   7
ATOM      7  C   UNL     1       0.597  10.491  19.441  0.00  0.00    +0.000 A 
ATOM      8  N   UNL     1       1.435  11.003  20.364  0.00  0.00    +0.000 NA
ATOM      9  C   UNL     1       1.289  12.292  20.684  0.00  0.00    +0.000 A 
ATOM     10  N   UNL     1       0.378  13.128  20.183  0.00  0.00    +0.000 NA
ATOM     11  C   UNL     1      -0.473  12.614  19.280  0.00  0.00    +0.000 A 
ATOM     12  N   UNL     1      -1.322  13.553  18.709  0.00  0.00    +0.000 N 
ATOM     13  C   UNL     1      -0.425  11.278  18.884  0.00  0.00    +0.000 A 
ATOM     14  H   UNL     1      -1.318  14.426  19.219  0.00  0.00    +0.000 HD
ATOM     15  H   UNL     1      -2.238  13.200  18.423  0.00  0.00    +0.000 HD
BRANCH  13  16
ATOM     16  C   UNL     1      -1.501  10.756  17.988  0.00  0.00    +0.000 C 
ATOM     17  N   UNL     1      -2.373   9.838  18.503  0.00  0.00    +0.000 N 
ATOM     18  O   UNL     1      -1.669  11.146  16.829  0.00  0.00    +0.000 OA
ATOM     19  H   UNL     1      -2.215   9.423  19.415  0.00  0.00    +0.000 HD
ATOM     20  H   UNL     1      -3.039   9.415  17.870  0.00  0.00    +0.000 HD
ENDBRANCH  13  16
ENDBRANCH   4   7
BRANCH   1  26
ATOM     21  C   UNL     1       2.686   4.120  19.368  0.00  0.00    +0.000 C 
ATOM     22  N   UNL     1       3.512   4.716  18.341  0.00  0.00    +0.000 N 
ATOM     23  C   UNL     1       4.112   4.017  17.334  0.00  0.00    +0.000 A 
ATOM     24  C   UNL     1       4.702   4.969  16.533  0.00  0.00    +0.000 A 
ATOM     25  N   UNL     1       4.436   6.235  17.020  0.00  0.00    +0.000 NA
ATOM     26  C   UNL     1       3.617   6.063  18.041  0.00  0.00    +0.000 A 
BRANCH  24  27
ATOM     27  C   UNL     1       5.410   4.704  15.287  0.00  0.00    +0.000 A 
ATOM     28  C   UNL     1       6.756   5.064  15.170  0.00  0.00    +0.000 A 
ATOM     29  C   UNL     1       7.452   4.832  13.981  0.00  0.00    +0.000 A 
ATOM     30  C   UNL     1       6.802   4.244  12.898  0.00  0.00    +0.000 A 
ATOM     31  F   UNL     1       7.501   4.035  11.775  0.00  0.00    +0.000 F 
ATOM     32  C   UNL     1       5.463   3.883  12.973  0.00  0.00    +0.000 A 
ATOM     33  C   UNL     1       4.770   4.122  14.178  0.00  0.00    +0.000 A 
BRANCH  32  34
ATOM     34  C   UNL     1       4.754   3.258  11.808  0.00  0.00    +0.000 C 
ATOM     35  F   UNL     1       4.708   4.015  10.679  0.00  0.00    +0.000 F 
ATOM     36  F   UNL     1       5.327   2.078  11.436  0.00  0.00    +0.000 F 
ATOM     37  F   UNL     1       3.457   2.952  12.101  0.00  0.00    +0.000 F 
ENDBRANCH  32  34
ENDBRANCH  24  27
ENDBRANCH   1  26
TORSDOF 5
ENDMDL
MODEL 5
REMARK VINA RESULT:      -7.6      6.537     10.762
REMARK  Name = 
REMARK  6 active torsions:
REMARK  status: ('A' for Active; 'I' for Inactive)
REMARK    1  A    between atoms: C_1  and  N_2
REMARK    2  A    between atoms: C_4  and  C_5
REMARK    3  A    between atoms: C_10  and  C_11
REMARK    4  A    between atoms: C_17  and  C_18
REMARK    5  A    between atoms: N_21  and  C_22
REMARK    6  A    between atoms: C_28  and  C_29
REMARK                            x       y       z     vdW  Elec       q    Type
REMARK                         _______ _______ _______ _____ _____    ______ ____
ROOT
ATOM      1  C   UNL     1       2.806   6.678  18.645  0.00  0.00    +0.000 C 
ATOM      2  C   UNL     1       2.866   7.094  20.102  0.00  0.00    +0.000 C 
ATOM      3  C   UNL     1       1.578   7.903  20.395  0.00  0.00    +0.000 C 
ATOM      4  N   UNL     1       1.197   8.883  19.344  0.00  0.00    +0.000 N 
ATOM      5  C   UNL     1       1.591   8.669  17.943  0.00  0.00    +0.000 C 
ATOM      6  C   UNL     1       2.913   7.963  17.826  0.00  0.00    +0.000 C 
ENDROOT
BRANCH   4   7
ATOM      7  C   UNL     1       1.041  10.228  19.707  0.00  0.00    +0.000 A 
ATOM      8  N   UNL     1       1.412  11.143  18.790  0.00  0.00    +0.000 NA
ATOM      9  C   UNL     1       1.193  12.430  19.078  0.00  0.00    +0.000 A 
ATOM     10  N   UNL     1       0.649  12.902  20.201  0.00  0.00    +0.000 NA
ATOM     11  C   UNL     1       0.300  11.993  21.126  0.00  0.00    +0.000 A 
ATOM     12  N   UNL     1      -0.365  12.530  22.220  0.00  0.00    +0.000 N 
ATOM     13  C   UNL     1       0.498  10.625  20.940  0.00  0.00    +0.000 A 
ATOM     14  H   UNL     1      -0.285  13.537  22.255  0.00  0.00    +0.000 HD
ATOM     15  H   UNL     1      -0.226  12.034  23.104  0.00  0.00    +0.000 HD
BRANCH  13  16
ATOM     16  C   UNL     1       0.217   9.699  22.079  0.00  0.00    +0.000 C 
ATOM     17  N   UNL     1      -0.765   8.762  21.915  0.00  0.00    +0.000 N 
ATOM     18  O   UNL     1       0.856   9.708  23.135  0.00  0.00    +0.000 OA
ATOM     19  H   UNL     1      -1.373   8.781  21.104  0.00  0.00    +0.000 HD
ATOM     20  H   UNL     1      -1.019   8.201  22.717  0.00  0.00    +0.000 HD
ENDBRANCH  13  16
ENDBRANCH   4   7
BRANCH   1  26
ATOM     21  C   UNL     1       2.625   3.711  19.124  0.00  0.00    +0.000 C 
ATOM     22  N   UNL     1       3.521   4.341  18.180  0.00  0.00    +0.000 N 
ATOM     23  C   UNL     1       4.061   3.716  17.094  0.00  0.00    +0.000 A 
ATOM     24  C   UNL     1       4.754   4.695  16.419  0.00  0.00    +0.000 A 
ATOM     25  N   UNL     1       4.611   5.911  17.060  0.00  0.00    +0.000 NA
ATOM     26  C   UNL     1       3.765   5.698  18.051  0.00  0.00    +0.000 A 
BRANCH  24  27
ATOM     27  C   UNL     1       5.448   4.515  15.150  0.00  0.00    +0.000 A 
ATOM     28  C   UNL     1       6.766   4.964  15.016  0.00  0.00    +0.000 A 
ATOM     29  C   UNL     1       7.447   4.815  13.805  0.00  0.00    +0.000 A 
ATOM     30  C   UNL     1       6.811   4.221  12.718  0.00  0.00    +0.000 A 
ATOM     31  F   UNL     1       7.495   4.093  11.574  0.00  0.00    +0.000 F 
ATOM     32  C   UNL     1       5.499   3.773  12.809  0.00  0.00    +0.000 A 
ATOM     33  C   UNL     1       4.821   3.928  14.036  0.00  0.00    +0.000 A 
BRANCH  32  34
ATOM     34  C   UNL     1       4.803   3.142  11.639  0.00  0.00    +0.000 C 
ATOM     35  F   UNL     1       5.358   1.986  11.186  0.00  0.00    +0.000 F 
ATOM     36  F   UNL     1       3.503   2.840  11.921  0.00  0.00    +0.000 F 
ATOM     37  F   UNL     1       4.753   3.977  10.561  0.00  0.00    +0.000 F 
ENDBRANCH  32  34
ENDBRANCH  24  27
ENDBRANCH   1  26
TORSDOF 5
ENDMDL
MODEL 6
REMARK VINA RESULT:      -7.6      6.175     10.409
REMARK  Name = 
REMARK  6 active torsions:
REMARK  status: ('A' for Active; 'I' for Inactive)
REMARK    1  A    between atoms: C_1  and  N_2
REMARK    2  A    between atoms: C_4  and  C_5
REMARK    3  A    between atoms: C_10  and  C_11
REMARK    4  A    between atoms: C_17  and  C_18
REMARK    5  A    between atoms: N_21  and  C_22
REMARK    6  A    between atoms: C_28  and  C_29
REMARK                            x       y       z     vdW  Elec       q    Type
REMARK                         _______ _______ _______ _____ _____    ______ ____
ROOT
ATOM      1  C   UNL     1      -0.328  10.579  20.518  0.00  0.00    +0.000 C 
ATOM      2  C   UNL     1       0.305  10.688  21.891  0.00  0.00    +0.000 C 
ATOM      3  C   UNL     1      -0.833  11.019  22.889  0.00  0.00    +0.000 C 
ATOM      4  N   UNL     1      -1.803  12.043  22.421  0.00  0.00    +0.000 N 
ATOM      5  C   UNL     1      -2.047  12.242  20.984  0.00  0.00    +0.000 C 
ATOM      6  C   UNL     1      -0.818  11.980  20.158  0.00  0.00    +0.000 C 
ENDROOT
BRANCH   4   7
ATOM      7  C   UNL     1      -2.006  13.184  23.210  0.00  0.00    +0.000 A 
ATOM      8  N   UNL     1      -0.922  13.950  23.445  0.00  0.00    +0.000 NA
ATOM      9  C   UNL     1      -1.106  15.089  24.121  0.00  0.00    +0.000 A 
ATOM     10  N   UNL     1      -2.266  15.539  24.601  0.00  0.00    +0.000 NA
ATOM     11  C   UNL     1      -3.343  14.765  24.388  0.00  0.00    +0.000 A 
ATOM     12  N   UNL     1      -4.537  15.335  24.807  0.00  0.00    +0.000 N 
ATOM     13  C   UNL     1      -3.266  13.549  23.711  0.00  0.00    +0.000 A 
ATOM     14  H   UNL     1      -4.385  16.139  25.402  0.00  0.00    +0.000 HD
ATOM     15  H   UNL     1      -5.256  14.675  25.113  0.00  0.00    +0.000 HD
BRANCH  13  16
ATOM     16  C   UNL     1      -4.484  12.684  23.649  0.00  0.00    +0.000 C 
ATOM     17  N   UNL     1      -4.732  11.852  24.705  0.00  0.00    +0.000 N 
ATOM     18  O   UNL     1      -5.295  12.718  22.719  0.00  0.00    +0.000 OA
ATOM     19  H   UNL     1      -4.047  11.725  25.441  0.00  0.00    +0.000 HD
ATOM     20  H   UNL     1      -5.501  11.201  24.620  0.00  0.00    +0.000 HD
ENDBRANCH  13  16
ENDBRANCH   4   7
BRANCH   1  26
ATOM     21  C   UNL     1       1.370  12.325  18.748  0.00  0.00    +0.000 C 
ATOM     22  N   UNL     1       1.304  10.883  18.666  0.00  0.00    +0.000 N 
ATOM     23  C   UNL     1       2.281  10.096  18.127  0.00  0.00    +0.000 A 
ATOM     24  C   UNL     1       1.868   8.802  18.348  0.00  0.00    +0.000 A 
ATOM     25  N   UNL     1       0.674   8.794  19.045  0.00  0.00    +0.000 NA
ATOM     26  C   UNL     1       0.415  10.056  19.332  0.00  0.00    +0.000 A 
BRANCH  24  27
ATOM     27  C   UNL     1       2.623   7.605  18.004  0.00  0.00    +0.000 A 
ATOM     28  C   UNL     1       3.875   7.732  17.392  0.00  0.00    +0.000 A 
ATOM     29  C   UNL     1       4.611   6.598  17.041  0.00  0.00    +0.000 A 
ATOM     30  C   UNL     1       4.096   5.328  17.293  0.00  0.00    +0.000 A 
ATOM     31  F   UNL     1       4.831   4.265  16.944  0.00  0.00    +0.000 F 
ATOM     32  C   UNL     1       2.852   5.162  17.888  0.00  0.00    +0.000 A 
ATOM     33  C   UNL     1       2.117   6.313  18.239  0.00  0.00    +0.000 A 
BRANCH  32  34
ATOM     34  C   UNL     1       2.287   3.797  18.153  0.00  0.00    +0.000 C 
ATOM     35  F   UNL     1       2.984   3.040  19.040  0.00  0.00    +0.000 F 
ATOM     36  F   UNL     1       1.015   3.859  18.642  0.00  0.00    +0.000 F 
ATOM     37  F   UNL     1       2.199   3.049  17.015  0.00  0.00    +0.000 F 
ENDBRANCH  32  34
ENDBRANCH  24  27
ENDBRANCH   1  26
TORSDOF 5
ENDMDL
MODEL 7
REMARK VINA RESULT:      -7.6      1.812      3.005
REMARK  Name = 
REMARK  6 active torsions:
REMARK  status: ('A' for Active; 'I' for Inactive)
REMARK    1  A    between atoms: C_1  and  N_2
REMARK    2  A    between atoms: C_4  and  C_5
REMARK    3  A    between atoms: C_10  and  C_11
REMARK    4  A    between atoms: C_17  and  C_18
REMARK    5  A    between atoms: N_21  and  C_22
REMARK    6  A    between atoms: C_28  and  C_29
REMARK                            x       y       z     vdW  Elec       q    Type
REMARK                         _______ _______ _______ _____ _____    ______ ____
ROOT
ATOM      1  C   UNL     1       1.178   8.796  18.937  0.00  0.00    +0.000 C 
ATOM      2  C   UNL     1       2.220   8.755  17.837  0.00  0.00    +0.000 C 
ATOM      3  C   UNL     1       2.458   7.263  17.494  0.00  0.00    +0.000 C 
ATOM      4  N   UNL     1       2.561   6.356  18.667  0.00  0.00    +0.000 N 
ATOM      5  C   UNL     1       1.890   6.689  19.933  0.00  0.00    +0.000 C 
ATOM      6  C   UNL     1       1.830   8.173  20.170  0.00  0.00    +0.000 C 
ENDROOT
BRANCH   4   7
ATOM      7  C   UNL     1       3.715   5.572  18.808  0.00  0.00    +0.000 A 
ATOM      8  N   UNL     1       4.894   6.205  18.649  0.00  0.00    +0.000 NA
ATOM      9  C   UNL     1       6.009   5.500  18.864  0.00  0.00    +0.000 A 
ATOM     10  N   UNL     1       6.069   4.213  19.211  0.00  0.00    +0.000 NA
ATOM     11  C   UNL     1       4.896   3.574  19.348  0.00  0.00    +0.000 A 
ATOM     12  N   UNL     1       5.015   2.274  19.822  0.00  0.00    +0.000 N 
ATOM     13  C   UNL     1       3.672   4.205  19.132  0.00  0.00    +0.000 A 
ATOM     14  H   UNL     1       5.969   1.941  19.779  0.00  0.00    +0.000 HD
ATOM     15  H   UNL     1       4.293   1.623  19.504  0.00  0.00    +0.000 HD
BRANCH  13  16
ATOM     16  C   UNL     1       2.425   3.382  19.161  0.00  0.00    +0.000 C 
ATOM     17  N   UNL     1       1.868   3.021  17.966  0.00  0.00    +0.000 N 
ATOM     18  O   UNL     1       1.903   2.976  20.203  0.00  0.00    +0.000 OA
ATOM     19  H   UNL     1       2.209   3.409  17.093  0.00  0.00    +0.000 HD
ATOM     20  H   UNL     1       0.975   2.547  17.987  0.00  0.00    +0.000 HD
ENDBRANCH  13  16
ENDBRANCH   4   7
BRANCH   1  26
ATOM     21  C   UNL     1       2.293  11.516  18.289  0.00  0.00    +0.000 C 
ATOM     22  N   UNL     1       1.007  11.277  18.905  0.00  0.00    +0.000 N 
ATOM     23  C   UNL     1      -0.040  12.152  18.869  0.00  0.00    +0.000 A 
ATOM     24  C   UNL     1      -1.086  11.492  19.474  0.00  0.00    +0.000 A 
ATOM     25  N   UNL     1      -0.699  10.217  19.841  0.00  0.00    +0.000 NA
ATOM     26  C   UNL     1       0.529  10.067  19.380  0.00  0.00    +0.000 A 
BRANCH  24  27
ATOM     27  C   UNL     1      -2.442  12.007  19.611  0.00  0.00    +0.000 A 
ATOM     28  C   UNL     1      -2.781  12.764  20.738  0.00  0.00    +0.000 A 
ATOM     29  C   UNL     1      -4.078  13.257  20.898  0.00  0.00    +0.000 A 
ATOM     30  C   UNL     1      -5.048  12.989  19.935  0.00  0.00    +0.000 A 
ATOM     31  F   UNL     1      -6.280  13.479  20.121  0.00  0.00    +0.000 F 
ATOM     32  C   UNL     1      -4.752  12.232  18.808  0.00  0.00    +0.000 A 
ATOM     33  C   UNL     1      -3.440  11.740  18.656  0.00  0.00    +0.000 A 
BRANCH  32  34
ATOM     34  C   UNL     1      -5.794  11.932  17.771  0.00  0.00    +0.000 C 
ATOM     35  F   UNL     1      -6.909  11.303  18.230  0.00  0.00    +0.000 F 
ATOM     36  F   UNL     1      -6.239  13.064  17.153  0.00  0.00    +0.000 F 
ATOM     37  F   UNL     1      -5.309  11.142  16.770  0.00  0.00    +0.000 F 
ENDBRANCH  32  34
ENDBRANCH  24  27
ENDBRANCH   1  26
TORSDOF 5
ENDMDL
MODEL 8
REMARK VINA RESULT:      -7.6      2.395      3.417
REMARK  Name = 
REMARK  6 active torsions:
REMARK  status: ('A' for Active; 'I' for Inactive)
REMARK    1  A    between atoms: C_1  and  N_2
REMARK    2  A    between atoms: C_4  and  C_5
REMARK    3  A    between atoms: C_10  and  C_11
REMARK    4  A    between atoms: C_17  and  C_18
REMARK    5  A    between atoms: N_21  and  C_22
REMARK    6  A    between atoms: C_28  and  C_29
REMARK                            x       y       z     vdW  Elec       q    Type
REMARK                         _______ _______ _______ _____ _____    ______ ____
ROOT
ATOM      1  C   UNL     1       1.210   8.864  19.378  0.00  0.00    +0.000 C 
ATOM      2  C   UNL     1       2.223   8.804  18.252  0.00  0.00    +0.000 C 
ATOM      3  C   UNL     1       2.328   7.321  17.815  0.00  0.00    +0.000 C 
ATOM      4  N   UNL     1       2.377   6.338  18.929  0.00  0.00    +0.000 N 
ATOM      5  C   UNL     1       1.761   6.648  20.228  0.00  0.00    +0.000 C 
ATOM      6  C   UNL     1       1.830   8.114  20.555  0.00  0.00    +0.000 C 
ENDROOT
BRANCH   4   7
ATOM      7  C   UNL     1       3.463   5.454  18.995  0.00  0.00    +0.000 A 
ATOM      8  N   UNL     1       4.684   6.012  19.111  0.00  0.00    +0.000 NA
ATOM      9  C   UNL     1       5.727   5.190  19.263  0.00  0.00    +0.000 A 
ATOM     10  N   UNL     1       5.678   3.857  19.299  0.00  0.00    +0.000 NA
ATOM     11  C   UNL     1       4.464   3.299  19.159  0.00  0.00    +0.000 A 
ATOM     12  N   UNL     1       4.458   1.920  19.320  0.00  0.00    +0.000 N 
ATOM     13  C   UNL     1       3.309   4.058  18.978  0.00  0.00    +0.000 A 
ATOM     14  H   UNL     1       5.392   1.531  19.295  0.00  0.00    +0.000 HD
ATOM     15  H   UNL     1       3.745   1.419  18.785  0.00  0.00    +0.000 HD
BRANCH  13  16
ATOM     16  C   UNL     1       2.025   3.351  18.684  0.00  0.00    +0.000 C 
ATOM     17  N   UNL     1       1.148   3.163  19.716  0.00  0.00    +0.000 N 
ATOM     18  O   UNL     1       1.700   2.974  17.555  0.00  0.00    +0.000 OA
ATOM     19  H   UNL     1       1.414   3.372  20.672  0.00  0.00    +0.000 HD
ATOM     20  H   UNL     1       0.326   2.602  19.538  0.00  0.00    +0.000 HD
ENDBRANCH  13  16
ENDBRANCH   4   7
BRANCH   1  26
ATOM     21  C   UNL     1       2.102  11.550  18.353  0.00  0.00    +0.000 C 
ATOM     22  N   UNL     1       1.012  11.341  19.279  0.00  0.00    +0.000 N 
ATOM     23  C   UNL     1      -0.019  12.215  19.466  0.00  0.00    +0.000 A 
ATOM     24  C   UNL     1      -0.876  11.586  20.340  0.00  0.00    +0.000 A 
ATOM     25  N   UNL     1      -0.397  10.328  20.656  0.00  0.00    +0.000 NA
ATOM     26  C   UNL     1       0.679  10.154  19.911  0.00  0.00    +0.000 A 
BRANCH  24  27
ATOM     27  C   UNL     1      -2.160  12.109  20.787  0.00  0.00    +0.000 A 
ATOM     28  C   UNL     1      -3.155  12.393  19.845  0.00  0.00    +0.000 A 
ATOM     29  C   UNL     1      -4.388  12.908  20.249  0.00  0.00    +0.000 A 
ATOM     30  C   UNL     1      -4.634  13.149  21.599  0.00  0.00    +0.000 A 
ATOM     31  F   UNL     1      -5.828  13.641  21.949  0.00  0.00    +0.000 F 
ATOM     32  C   UNL     1      -3.667  12.890  22.563  0.00  0.00    +0.000 A 
ATOM     33  C   UNL     1      -2.425  12.371  22.144  0.00  0.00    +0.000 A 
BRANCH  32  34
ATOM     34  C   UNL     1      -3.920  13.157  24.017  0.00  0.00    +0.000 C 
ATOM     35  F   UNL     1      -4.352  12.090  24.740  0.00  0.00    +0.000 F 
ATOM     36  F   UNL     1      -2.801  13.605  24.655  0.00  0.00    +0.000 F 
ATOM     37  F   UNL     1      -4.855  14.133  24.204  0.00  0.00    +0.000 F 
ENDBRANCH  32  34
ENDBRANCH  24  27
ENDBRANCH   1  26
TORSDOF 5
ENDMDL
MODEL 9
REMARK VINA RESULT:      -7.6      6.382     10.902
REMARK  Name = 
REMARK  6 active torsions:
REMARK  status: ('A' for Active; 'I' for Inactive)
REMARK    1  A    between atoms: C_1  and  N_2
REMARK    2  A    between atoms: C_4  and  C_5
REMARK    3  A    between atoms: C_10  and  C_11
REMARK    4  A    between atoms: C_17  and  C_18
REMARK    5  A    between atoms: N_21  and  C_22
REMARK    6  A    between atoms: C_28  and  C_29
REMARK                            x       y       z     vdW  Elec       q    Type
REMARK                         _______ _______ _______ _____ _____    ______ ____
ROOT
ATOM      1  C   UNL     1      -0.798  11.300  20.670  0.00  0.00    +0.000 C 
ATOM      2  C   UNL     1      -0.135  12.167  21.723  0.00  0.00    +0.000 C 
ATOM      3  C   UNL     1      -1.210  12.477  22.795  0.00  0.00    +0.000 C 
ATOM      4  N   UNL     1      -2.550  12.831  22.260  0.00  0.00    +0.000 N 
ATOM      5  C   UNL     1      -2.989  12.328  20.948  0.00  0.00    +0.000 C 
ATOM      6  C   UNL     1      -1.844  12.178  19.986  0.00  0.00    +0.000 C 
ENDROOT
BRANCH   4   7
ATOM      7  C   UNL     1      -3.121  14.055  22.635  0.00  0.00    +0.000 A 
ATOM      8  N   UNL     1      -2.495  15.166  22.200  0.00  0.00    +0.000 NA
ATOM      9  C   UNL     1      -3.067  16.344  22.472  0.00  0.00    +0.000 A 
ATOM     10  N   UNL     1      -4.201  16.528  23.149  0.00  0.00    +0.000 NA
ATOM     11  C   UNL     1      -4.814  15.423  23.603  0.00  0.00    +0.000 A 
ATOM     12  N   UNL     1      -6.045  15.666  24.198  0.00  0.00    +0.000 N 
ATOM     13  C   UNL     1      -4.299  14.144  23.394  0.00  0.00    +0.000 A 
ATOM     14  H   UNL     1      -6.184  16.649  24.393  0.00  0.00    +0.000 HD
ATOM     15  H   UNL     1      -6.310  15.015  24.941  0.00  0.00    +0.000 HD
BRANCH  13  16
ATOM     16  C   UNL     1      -4.967  12.985  24.061  0.00  0.00    +0.000 C 
ATOM     17  N   UNL     1      -4.481  12.577  25.272  0.00  0.00    +0.000 N 
ATOM     18  O   UNL     1      -5.956  12.411  23.597  0.00  0.00    +0.000 OA
ATOM     19  H   UNL     1      -3.617  12.958  25.643  0.00  0.00    +0.000 HD
ATOM     20  H   UNL     1      -4.870  11.736  25.676  0.00  0.00    +0.000 HD
ENDBRANCH  13  16
ENDBRANCH   4   7
BRANCH   1  26
ATOM     21  C   UNL     1       0.847  12.795  18.640  0.00  0.00    +0.000 C 
ATOM     22  N   UNL     1       0.839  11.358  18.799  0.00  0.00    +0.000 N 
ATOM     23  C   UNL     1       1.851  10.533  18.402  0.00  0.00    +0.000 A 
ATOM     24  C   UNL     1       1.487   9.277  18.833  0.00  0.00    +0.000 A 
ATOM     25  N   UNL     1       0.288   9.337  19.519  0.00  0.00    +0.000 NA
ATOM     26  C   UNL     1      -0.023  10.618  19.590  0.00  0.00    +0.000 A 
BRANCH  24  27
ATOM     27  C   UNL     1       2.293   8.071  18.696  0.00  0.00    +0.000 A 
ATOM     28  C   UNL     1       2.220   7.078  19.679  0.00  0.00    +0.000 A 
ATOM     29  C   UNL     1       2.993   5.919  19.575  0.00  0.00    +0.000 A 
ATOM     30  C   UNL     1       3.850   5.749  18.490  0.00  0.00    +0.000 A 
ATOM     31  F   UNL     1       4.574   4.625  18.423  0.00  0.00    +0.000 F 
ATOM     32  C   UNL     1       3.958   6.718  17.500  0.00  0.00    +0.000 A 
ATOM     33  C   UNL     1       3.173   7.884  17.614  0.00  0.00    +0.000 A 
BRANCH  32  34
ATOM     34  C   UNL     1       4.886   6.546  16.334  0.00  0.00    +0.000 C 
ATOM     35  F   UNL     1       4.626   7.337  15.259  0.00  0.00    +0.000 F 
ATOM     36  F   UNL     1       6.183   6.801  16.673  0.00  0.00    +0.000 F 
ATOM     37  F   UNL     1       4.883   5.267  15.861  0.00  0.00    +0.000 F 
ENDBRANCH  32  34
ENDBRANCH  24  27
ENDBRANCH   1  26
TORSDOF 5
ENDMDL
