MODEL 1
REMARK VINA RESULT:      -9.4      0.000      0.000
REMARK  Name = 
REMARK  3 active torsions:
REMARK  status: ('A' for Active; 'I' for Inactive)
REMARK    1  A    between atoms: C_5  and  C_6
REMARK    2  A    between atoms: C_8  and  C_9
REMARK    3  A    between atoms: C_17  and  C_18
REMARK                            x       y       z     vdW  Elec       q    Type
REMARK                         _______ _______ _______ _____ _____    ______ ____
ROOT
ATOM      1  N   UNL     1       1.428   2.669  22.325  0.00  0.00    +0.000 N 
ATOM      2  C   UNL     1       2.189   3.129  21.272  0.00  0.00    +0.000 A 
ATOM      3  N   UNL     1       3.090   2.289  20.761  0.00  0.00    +0.000 NA
ATOM      4  C   UNL     1       3.877   2.779  19.781  0.00  0.00    +0.000 A 
ATOM      5  C   UNL     1       3.809   4.074  19.306  0.00  0.00    +0.000 A 
ATOM      6  C   UNL     1       2.811   4.863  19.873  0.00  0.00    +0.000 A 
ATOM      7  N   UNL     1       2.021   4.396  20.878  0.00  0.00    +0.000 NA
ATOM      8  H   UNL     1       1.903   1.904  22.781  0.00  0.00    +0.000 HD
ATOM      9  H   UNL     1       1.132   3.441  22.906  0.00  0.00    +0.000 HD
ENDROOT
BRANCH   6  10
ATOM     10  C   UNL     1       2.525   6.268  19.476  0.00  0.00    +0.000 A 
ATOM     11  C   UNL     1       2.038   7.222  20.391  0.00  0.00    +0.000 A 
ATOM     12  C   UNL     1       1.600   8.481  19.972  0.00  0.00    +0.000 A 
ATOM     13  C   UNL     1       1.714   8.845  18.635  0.00  0.00    +0.000 A 
ATOM     14  C   UNL     1       2.285   7.960  17.726  0.00  0.00    +0.000 A 
ATOM     15  C   UNL     1       2.686   6.685  18.142  0.00  0.00    +0.000 A 
ENDBRANCH   6  10
BRANCH   5  16
ATOM     16  C   UNL     1       4.768   4.506  18.315  0.00  0.00    +0.000 A 
ATOM     17  N   UNL     1       4.829   4.237  17.030  0.00  0.00    +0.000 NA
ATOM     18  C   UNL     1       5.970   4.916  16.631  0.00  0.00    +0.000 A 
ATOM     19  N   UNL     1       6.587   5.562  17.633  0.00  0.00    +0.000 NA
ATOM     20  O   UNL     1       5.817   5.263  18.749  0.00  0.00    +0.000 OA
BRANCH  18  21
ATOM     21  C   UNL     1       6.465   4.870  15.261  0.00  0.00    +0.000 A 
ATOM     22  C   UNL     1       5.870   4.051  14.310  0.00  0.00    +0.000 A 
ATOM     23  C   UNL     1       6.435   3.986  13.042  0.00  0.00    +0.000 A 
ATOM     24  C   UNL     1       7.561   4.743  12.786  0.00  0.00    +0.000 A 
ATOM     25  N   UNL     1       8.112   5.552  13.713  0.00  0.00    +0.000 NA
ATOM     26  N   UNL     1       7.558   5.612  14.964  0.00  0.00    +0.000 NA
ENDBRANCH  18  21
ENDBRANCH   5  16
TORSDOF 3
ENDMDL
MODEL 2
REMARK VINA RESULT:      -9.1      3.072      7.271
REMARK  Name = 
REMARK  3 active torsions:
REMARK  status: ('A' for Active; 'I' for Inactive)
REMARK    1  A    between atoms: C_5  and  C_6
REMARK    2  A    between atoms: C_8  and  C_9
REMARK    3  A    between atoms: C_17  and  C_18
REMARK                            x       y       z     vdW  Elec       q    Type
REMARK                         _______ _______ _______ _____ _____    ______ ____
ROOT
ATOM      1  N   UNL     1       6.348   3.932  16.204  0.00  0.00    +0.000 N 
ATOM      2  C   UNL     1       5.385   4.788  16.692  0.00  0.00    +0.000 A 
ATOM      3  N   UNL     1       5.426   6.053  16.274  0.00  0.00    +0.000 NA
ATOM      4  C   UNL     1       4.523   6.894  16.818  0.00  0.00    +0.000 A 
ATOM      5  C   UNL     1       3.594   6.524  17.771  0.00  0.00    +0.000 A 
ATOM      6  C   UNL     1       3.602   5.174  18.116  0.00  0.00    +0.000 A 
ATOM      7  N   UNL     1       4.519   4.314  17.596  0.00  0.00    +0.000 NA
ATOM      8  H   UNL     1       7.147   4.463  15.886  0.00  0.00    +0.000 HD
ATOM      9  H   UNL     1       6.522   3.188  16.864  0.00  0.00    +0.000 HD
ENDROOT
BRANCH   6  10
ATOM     10  C   UNL     1       2.658   4.548  19.080  0.00  0.00    +0.000 A 
ATOM     11  C   UNL     1       2.920   4.501  20.463  0.00  0.00    +0.000 A 
ATOM     12  C   UNL     1       2.122   3.755  21.334  0.00  0.00    +0.000 A 
ATOM     13  C   UNL     1       0.993   3.102  20.853  0.00  0.00    +0.000 A 
ATOM     14  C   UNL     1       0.653   3.214  19.508  0.00  0.00    +0.000 A 
ATOM     15  C   UNL     1       1.477   3.930  18.631  0.00  0.00    +0.000 A 
ENDBRANCH   6  10
BRANCH   5  16
ATOM     16  C   UNL     1       2.738   7.538  18.344  0.00  0.00    +0.000 A 
ATOM     17  N   UNL     1       2.376   7.725  19.593  0.00  0.00    +0.000 NA
ATOM     18  C   UNL     1       1.545   8.832  19.506  0.00  0.00    +0.000 A 
ATOM     19  N   UNL     1       1.397   9.293  18.254  0.00  0.00    +0.000 NA
ATOM     20  O   UNL     1       2.153   8.419  17.483  0.00  0.00    +0.000 OA
BRANCH  18  21
ATOM     21  C   UNL     1       0.863   9.387  20.668  0.00  0.00    +0.000 A 
ATOM     22  C   UNL     1       0.173   8.570  21.554  0.00  0.00    +0.000 A 
ATOM     23  C   UNL     1      -0.527   9.163  22.598  0.00  0.00    +0.000 A 
ATOM     24  C   UNL     1      -0.500  10.540  22.708  0.00  0.00    +0.000 A 
ATOM     25  N   UNL     1       0.196  11.317  21.853  0.00  0.00    +0.000 NA
ATOM     26  N   UNL     1       0.881  10.733  20.821  0.00  0.00    +0.000 NA
ENDBRANCH  18  21
ENDBRANCH   5  16
TORSDOF 3
ENDMDL
MODEL 3
REMARK VINA RESULT:      -8.7      2.980      7.168
REMARK  Name = 
REMARK  3 active torsions:
REMARK  status: ('A' for Active; 'I' for Inactive)
REMARK    1  A    between atoms: C_5  and  C_6
REMARK    2  A    between atoms: C_8  and  C_9
REMARK    3  A    between atoms: C_17  and  C_18
REMARK                            x       y       z     vdW  Elec       q    Type
REMARK                         _______ _______ _______ _____ _____    ______ ____
ROOT
ATOM      1  N   UNL     1       6.562   3.775  15.991  0.00  0.00    +0.000 N 
ATOM      2  C   UNL     1       5.594   4.634  16.465  0.00  0.00    +0.000 A 
ATOM      3  N   UNL     1       5.633   5.893  16.029  0.00  0.00    +0.000 NA
ATOM      4  C   UNL     1       4.726   6.740  16.558  0.00  0.00    +0.000 A 
ATOM      5  C   UNL     1       3.796   6.380  17.514  0.00  0.00    +0.000 A 
ATOM      6  C   UNL     1       3.807   5.035  17.878  0.00  0.00    +0.000 A 
ATOM      7  N   UNL     1       4.728   4.170  17.373  0.00  0.00    +0.000 NA
ATOM      8  H   UNL     1       7.359   4.303  15.668  0.00  0.00    +0.000 HD
ATOM      9  H   UNL     1       6.736   3.040  16.663  0.00  0.00    +0.000 HD
ENDROOT
BRANCH   6  10
ATOM     10  C   UNL     1       2.861   4.421  18.848  0.00  0.00    +0.000 A 
ATOM     11  C   UNL     1       1.640   3.846  18.444  0.00  0.00    +0.000 A 
ATOM     12  C   UNL     1       0.681   3.438  19.374  0.00  0.00    +0.000 A 
ATOM     13  C   UNL     1       0.952   3.524  20.734  0.00  0.00    +0.000 A 
ATOM     14  C   UNL     1       2.191   3.994  21.161  0.00  0.00    +0.000 A 
ATOM     15  C   UNL     1       3.135   4.438  20.227  0.00  0.00    +0.000 A 
ENDBRANCH   6  10
BRANCH   5  16
ATOM     16  C   UNL     1       2.935   7.400  18.070  0.00  0.00    +0.000 A 
ATOM     17  N   UNL     1       2.502   7.555  19.301  0.00  0.00    +0.000 NA
ATOM     18  C   UNL     1       1.710   8.689  19.203  0.00  0.00    +0.000 A 
ATOM     19  N   UNL     1       1.652   9.197  17.962  0.00  0.00    +0.000 NA
ATOM     20  O   UNL     1       2.430   8.328  17.208  0.00  0.00    +0.000 OA
BRANCH  18  21
ATOM     21  C   UNL     1       0.973   9.225  20.341  0.00  0.00    +0.000 A 
ATOM     22  C   UNL     1       1.028   8.611  21.586  0.00  0.00    +0.000 A 
ATOM     23  C   UNL     1       0.241   9.117  22.612  0.00  0.00    +0.000 A 
ATOM     24  C   UNL     1      -0.557  10.213  22.347  0.00  0.00    +0.000 A 
ATOM     25  N   UNL     1      -0.580  10.813  21.140  0.00  0.00    +0.000 NA
ATOM     26  N   UNL     1       0.192  10.310  20.127  0.00  0.00    +0.000 NA
ENDBRANCH  18  21
ENDBRANCH   5  16
TORSDOF 3
ENDMDL
MODEL 4
REMARK VINA RESULT:      -8.7      0.963      1.341
REMARK  Name = 
REMARK  3 active torsions:
REMARK  status: ('A' for Active; 'I' for Inactive)
REMARK    1  A    between atoms: C_5  and  C_6
REMARK    2  A    between atoms: C_8  and  C_9
REMARK    3  A    between atoms: C_17  and  C_18
REMARK                            x       y       z     vdW  Elec       q    Type
REMARK                         _______ _______ _______ _____ _____    ______ ____
ROOT
ATOM      1  N   UNL     1       2.165   2.689  22.070  0.00  0.00    +0.000 N 
ATOM      2  C   UNL     1       2.895   3.013  20.947  0.00  0.00    +0.000 A 
ATOM      3  N   UNL     1       3.791   2.119  20.527  0.00  0.00    +0.000 NA
ATOM      4  C   UNL     1       4.549   2.482  19.472  0.00  0.00    +0.000 A 
ATOM      5  C   UNL     1       4.457   3.704  18.834  0.00  0.00    +0.000 A 
ATOM      6  C   UNL     1       3.466   4.554  19.320  0.00  0.00    +0.000 A 
ATOM      7  N   UNL     1       2.706   4.217  20.397  0.00  0.00    +0.000 NA
ATOM      8  H   UNL     1       2.658   1.993  22.610  0.00  0.00    +0.000 HD
ATOM      9  H   UNL     1       1.877   3.529  22.553  0.00  0.00    +0.000 HD
ENDROOT
BRANCH   6  10
ATOM     10  C   UNL     1       3.157   5.894  18.751  0.00  0.00    +0.000 A 
ATOM     11  C   UNL     1       4.043   6.561  17.882  0.00  0.00    +0.000 A 
ATOM     12  C   UNL     1       3.831   7.888  17.501  0.00  0.00    +0.000 A 
ATOM     13  C   UNL     1       2.685   8.556  17.916  0.00  0.00    +0.000 A 
ATOM     14  C   UNL     1       1.742   7.888  18.692  0.00  0.00    +0.000 A 
ATOM     15  C   UNL     1       1.977   6.571  19.105  0.00  0.00    +0.000 A 
ENDBRANCH   6  10
BRANCH   5  16
ATOM     16  C   UNL     1       5.387   4.009  17.771  0.00  0.00    +0.000 A 
ATOM     17  N   UNL     1       5.199   4.037  16.471  0.00  0.00    +0.000 NA
ATOM     18  C   UNL     1       6.455   4.372  15.989  0.00  0.00    +0.000 A 
ATOM     19  N   UNL     1       7.375   4.531  16.954  0.00  0.00    +0.000 NA
ATOM     20  O   UNL     1       6.681   4.256  18.125  0.00  0.00    +0.000 OA
BRANCH  18  21
ATOM     21  C   UNL     1       6.739   4.479  14.563  0.00  0.00    +0.000 A 
ATOM     22  C   UNL     1       6.197   3.581  13.653  0.00  0.00    +0.000 A 
ATOM     23  C   UNL     1       6.567   3.682  12.318  0.00  0.00    +0.000 A 
ATOM     24  C   UNL     1       7.456   4.675  11.957  0.00  0.00    +0.000 A 
ATOM     25  N   UNL     1       7.954   5.555  12.849  0.00  0.00    +0.000 NA
ATOM     26  N   UNL     1       7.593   5.452  14.166  0.00  0.00    +0.000 NA
ENDBRANCH  18  21
ENDBRANCH   5  16
TORSDOF 3
ENDMDL
MODEL 5
REMARK VINA RESULT:      -8.6      2.978      6.760
REMARK  Name = 
REMARK  3 active torsions:
REMARK  status: ('A' for Active; 'I' for Inactive)
REMARK    1  A    between atoms: C_5  and  C_6
REMARK    2  A    between atoms: C_8  and  C_9
REMARK    3  A    between atoms: C_17  and  C_18
REMARK                            x       y       z     vdW  Elec       q    Type
REMARK                         _______ _______ _______ _____ _____    ______ ____
ROOT
ATOM      1  N   UNL     1       3.968   0.897  18.257  0.00  0.00    +0.000 N 
ATOM      2  C   UNL     1       3.658   2.208  18.546  0.00  0.00    +0.000 A 
ATOM      3  N   UNL     1       2.401   2.470  18.906  0.00  0.00    +0.000 NA
ATOM      4  C   UNL     1       2.094   3.768  19.113  0.00  0.00    +0.000 A 
ATOM      5  C   UNL     1       2.988   4.809  18.959  0.00  0.00    +0.000 A 
ATOM      6  C   UNL     1       4.286   4.434  18.620  0.00  0.00    +0.000 A 
ATOM      7  N   UNL     1       4.611   3.133  18.384  0.00  0.00    +0.000 NA
ATOM      8  H   UNL     1       3.127   0.392  18.016  0.00  0.00    +0.000 HD
ATOM      9  H   UNL     1       4.736   0.856  17.601  0.00  0.00    +0.000 HD
ENDROOT
BRANCH   6  10
ATOM     10  C   UNL     1       5.419   5.384  18.455  0.00  0.00    +0.000 A 
ATOM     11  C   UNL     1       5.476   6.304  17.390  0.00  0.00    +0.000 A 
ATOM     12  C   UNL     1       6.623   7.061  17.139  0.00  0.00    +0.000 A 
ATOM     13  C   UNL     1       7.713   6.975  17.997  0.00  0.00    +0.000 A 
ATOM     14  C   UNL     1       7.646   6.149  19.116  0.00  0.00    +0.000 A 
ATOM     15  C   UNL     1       6.510   5.362  19.342  0.00  0.00    +0.000 A 
ENDBRANCH   6  10
BRANCH   5  16
ATOM     16  C   UNL     1       2.516   6.165  19.123  0.00  0.00    +0.000 A 
ATOM     17  N   UNL     1       2.044   6.768  20.192  0.00  0.00    +0.000 NA
ATOM     18  C   UNL     1       1.746   8.037  19.718  0.00  0.00    +0.000 A 
ATOM     19  N   UNL     1       2.012   8.198  18.412  0.00  0.00    +0.000 NA
ATOM     20  O   UNL     1       2.485   6.954  18.011  0.00  0.00    +0.000 OA
BRANCH  18  21
ATOM     21  C   UNL     1       1.146   9.062  20.562  0.00  0.00    +0.000 A 
ATOM     22  C   UNL     1       0.713   8.770  21.849  0.00  0.00    +0.000 A 
ATOM     23  C   UNL     1       0.074   9.766  22.578  0.00  0.00    +0.000 A 
ATOM     24  C   UNL     1      -0.096  11.004  21.988  0.00  0.00    +0.000 A 
ATOM     25  N   UNL     1       0.353  11.278  20.747  0.00  0.00    +0.000 NA
ATOM     26  N   UNL     1       0.977  10.295  20.027  0.00  0.00    +0.000 NA
ENDBRANCH  18  21
ENDBRANCH   5  16
TORSDOF 3
ENDMDL
MODEL 6
REMARK VINA RESULT:      -8.6      2.746      7.084
REMARK  Name = 
REMARK  3 active torsions:
REMARK  status: ('A' for Active; 'I' for Inactive)
REMARK    1  A    between atoms: C_5  and  C_6
REMARK    2  A    between atoms: C_8  and  C_9
REMARK    3  A    between atoms: C_17  and  C_18
REMARK                            x       y       z     vdW  Elec       q    Type
REMARK                         _______ _______ _______ _____ _____    ______ ____
ROOT
ATOM      1  N   UNL     1       7.632   4.214  16.741  0.00  0.00    +0.000 N 
ATOM      2  C   UNL     1       6.515   4.983  16.984  0.00  0.00    +0.000 A 
ATOM      3  N   UNL     1       6.576   6.269  16.637  0.00  0.00    +0.000 NA
ATOM      4  C   UNL     1       5.503   7.025  16.949  0.00  0.00    +0.000 A 
ATOM      5  C   UNL     1       4.384   6.550  17.605  0.00  0.00    +0.000 A 
ATOM      6  C   UNL     1       4.396   5.186  17.890  0.00  0.00    +0.000 A 
ATOM      7  N   UNL     1       5.477   4.411  17.605  0.00  0.00    +0.000 NA
ATOM      8  H   UNL     1       8.446   4.807  16.669  0.00  0.00    +0.000 HD
ATOM      9  H   UNL     1       7.677   3.447  17.398  0.00  0.00    +0.000 HD
ENDROOT
BRANCH   6  10
ATOM     10  C   UNL     1       3.277   4.456  18.543  0.00  0.00    +0.000 A 
ATOM     11  C   UNL     1       2.210   3.905  17.806  0.00  0.00    +0.000 A 
ATOM     12  C   UNL     1       1.078   3.385  18.436  0.00  0.00    +0.000 A 
ATOM     13  C   UNL     1       1.019   3.330  19.824  0.00  0.00    +0.000 A 
ATOM     14  C   UNL     1       2.103   3.774  20.577  0.00  0.00    +0.000 A 
ATOM     15  C   UNL     1       3.219   4.331  19.942  0.00  0.00    +0.000 A 
ENDBRANCH   6  10
BRANCH   5  16
ATOM     16  C   UNL     1       3.337   7.480  17.963  0.00  0.00    +0.000 A 
ATOM     17  N   UNL     1       2.788   7.719  19.133  0.00  0.00    +0.000 NA
ATOM     18  C   UNL     1       1.843   8.688  18.833  0.00  0.00    +0.000 A 
ATOM     19  N   UNL     1       1.808   9.018  17.532  0.00  0.00    +0.000 NA
ATOM     20  O   UNL     1       2.766   8.196  16.952  0.00  0.00    +0.000 OA
BRANCH  18  21
ATOM     21  C   UNL     1       0.945   9.239  19.840  0.00  0.00    +0.000 A 
ATOM     22  C   UNL     1      -0.005  10.196  19.509  0.00  0.00    +0.000 A 
ATOM     23  C   UNL     1      -0.778  10.745  20.525  0.00  0.00    +0.000 A 
ATOM     24  C   UNL     1      -0.567  10.309  21.819  0.00  0.00    +0.000 A 
ATOM     25  N   UNL     1       0.343   9.360  22.119  0.00  0.00    +0.000 NA
ATOM     26  N   UNL     1       1.108   8.824  21.119  0.00  0.00    +0.000 NA
ENDBRANCH  18  21
ENDBRANCH   5  16
TORSDOF 3
ENDMDL
MODEL 7
REMARK VINA RESULT:      -8.6      3.297      6.933
REMARK  Name = 
REMARK  3 active torsions:
REMARK  status: ('A' for Active; 'I' for Inactive)
REMARK    1  A    between atoms: C_5  and  C_6
REMARK    2  A    between atoms: C_8  and  C_9
REMARK    3  A    between atoms: C_17  and  C_18
REMARK                            x       y       z     vdW  Elec       q    Type
REMARK                         _______ _______ _______ _____ _____    ______ ____
ROOT
ATOM      1  N   UNL     1       6.510   4.051  16.319  0.00  0.00    +0.000 N 
ATOM      2  C   UNL     1       5.485   4.845  16.788  0.00  0.00    +0.000 A 
ATOM      3  N   UNL     1       5.464   6.114  16.379  0.00  0.00    +0.000 NA
ATOM      4  C   UNL     1       4.499   6.897  16.905  0.00  0.00    +0.000 A 
ATOM      5  C   UNL     1       3.569   6.465  17.831  0.00  0.00    +0.000 A 
ATOM      6  C   UNL     1       3.647   5.115  18.167  0.00  0.00    +0.000 A 
ATOM      7  N   UNL     1       4.626   4.314  17.666  0.00  0.00    +0.000 NA
ATOM      8  H   UNL     1       7.283   4.630  16.026  0.00  0.00    +0.000 HD
ATOM      9  H   UNL     1       6.709   3.313  16.979  0.00  0.00    +0.000 HD
ENDROOT
BRANCH   6  10
ATOM     10  C   UNL     1       2.716   4.428  19.102  0.00  0.00    +0.000 A 
ATOM     11  C   UNL     1       2.989   4.310  20.479  0.00  0.00    +0.000 A 
ATOM     12  C   UNL     1       2.205   3.509  21.313  0.00  0.00    +0.000 A 
ATOM     13  C   UNL     1       1.080   2.870  20.805  0.00  0.00    +0.000 A 
ATOM     14  C   UNL     1       0.729   3.051  19.470  0.00  0.00    +0.000 A 
ATOM     15  C   UNL     1       1.539   3.822  18.628  0.00  0.00    +0.000 A 
ENDBRANCH   6  10
BRANCH   5  16
ATOM     16  C   UNL     1       2.641   7.423  18.388  0.00  0.00    +0.000 A 
ATOM     17  N   UNL     1       1.922   8.344  17.786  0.00  0.00    +0.000 NA
ATOM     18  C   UNL     1       1.256   8.947  18.843  0.00  0.00    +0.000 A 
ATOM     19  N   UNL     1       1.565   8.424  20.040  0.00  0.00    +0.000 NA
ATOM     20  O   UNL     1       2.505   7.445  19.744  0.00  0.00    +0.000 OA
BRANCH  18  21
ATOM     21  C   UNL     1       0.356  10.078  18.653  0.00  0.00    +0.000 A 
ATOM     22  C   UNL     1      -0.873   9.920  18.026  0.00  0.00    +0.000 A 
ATOM     23  C   UNL     1      -1.654  11.046  17.799  0.00  0.00    +0.000 A 
ATOM     24  C   UNL     1      -1.171  12.273  18.211  0.00  0.00    +0.000 A 
ATOM     25  N   UNL     1       0.014  12.406  18.840  0.00  0.00    +0.000 NA
ATOM     26  N   UNL     1       0.786  11.296  19.059  0.00  0.00    +0.000 NA
ENDBRANCH  18  21
ENDBRANCH   5  16
TORSDOF 3
ENDMDL
MODEL 8
REMARK VINA RESULT:      -8.5      2.264      6.961
REMARK  Name = 
REMARK  3 active torsions:
REMARK  status: ('A' for Active; 'I' for Inactive)
REMARK    1  A    between atoms: C_5  and  C_6
REMARK    2  A    between atoms: C_8  and  C_9
REMARK    3  A    between atoms: C_17  and  C_18
REMARK                            x       y       z     vdW  Elec       q    Type
REMARK                         _______ _______ _______ _____ _____    ______ ____
ROOT
ATOM      1  N   UNL     1       7.848   4.855  12.518  0.00  0.00    +0.000 N 
ATOM      2  C   UNL     1       7.084   4.771  13.662  0.00  0.00    +0.000 A 
ATOM      3  N   UNL     1       5.973   4.037  13.599  0.00  0.00    +0.000 NA
ATOM      4  C   UNL     1       5.198   4.025  14.703  0.00  0.00    +0.000 A 
ATOM      5  C   UNL     1       5.484   4.728  15.858  0.00  0.00    +0.000 A 
ATOM      6  C   UNL     1       6.686   5.432  15.843  0.00  0.00    +0.000 A 
ATOM      7  N   UNL     1       7.470   5.476  14.732  0.00  0.00    +0.000 NA
ATOM      8  H   UNL     1       7.277   4.647  11.711  0.00  0.00    +0.000 HD
ATOM      9  H   UNL     1       8.366   5.722  12.507  0.00  0.00    +0.000 HD
ENDROOT
BRANCH   6  10
ATOM     10  C   UNL     1       7.215   6.213  16.994  0.00  0.00    +0.000 A 
ATOM     11  C   UNL     1       7.426   7.604  16.922  0.00  0.00    +0.000 A 
ATOM     12  C   UNL     1       8.091   8.296  17.937  0.00  0.00    +0.000 A 
ATOM     13  C   UNL     1       8.492   7.626  19.087  0.00  0.00    +0.000 A 
ATOM     14  C   UNL     1       8.206   6.270  19.229  0.00  0.00    +0.000 A 
ATOM     15  C   UNL     1       7.574   5.572  18.193  0.00  0.00    +0.000 A 
ENDBRANCH   6  10
BRANCH   5  16
ATOM     16  C   UNL     1       4.530   4.706  16.943  0.00  0.00    +0.000 A 
ATOM     17  N   UNL     1       4.306   3.779  17.848  0.00  0.00    +0.000 NA
ATOM     18  C   UNL     1       3.270   4.325  18.592  0.00  0.00    +0.000 A 
ATOM     19  N   UNL     1       2.870   5.528  18.152  0.00  0.00    +0.000 NA
ATOM     20  O   UNL     1       3.674   5.764  17.044  0.00  0.00    +0.000 OA
BRANCH  18  21
ATOM     21  C   UNL     1       2.653   3.614  19.704  0.00  0.00    +0.000 A 
ATOM     22  C   UNL     1       1.273   3.589  19.863  0.00  0.00    +0.000 A 
ATOM     23  C   UNL     1       0.744   2.966  20.986  0.00  0.00    +0.000 A 
ATOM     24  C   UNL     1       1.617   2.396  21.893  0.00  0.00    +0.000 A 
ATOM     25  N   UNL     1       2.953   2.408  21.711  0.00  0.00    +0.000 NA
ATOM     26  N   UNL     1       3.474   3.027  20.606  0.00  0.00    +0.000 NA
ENDBRANCH  18  21
ENDBRANCH   5  16
TORSDOF 3
ENDMDL
MODEL 9
REMARK VINA RESULT:      -8.5      2.928      7.087
REMARK  Name = 
REMARK  3 active torsions:
REMARK  status: ('A' for Active; 'I' for Inactive)
REMARK    1  A    between atoms: C_5  and  C_6
REMARK    2  A    between atoms: C_8  and  C_9
REMARK    3  A    between atoms: C_17  and  C_18
REMARK                            x       y       z     vdW  Elec       q    Type
REMARK                         _______ _______ _______ _____ _____    ______ ____
ROOT
ATOM      1  N   UNL     1       6.773   4.374  14.772  0.00  0.00    +0.000 N 
ATOM      2  C   UNL     1       5.816   4.974  15.562  0.00  0.00    +0.000 A 
ATOM      3  N   UNL     1       5.777   6.306  15.564  0.00  0.00    +0.000 NA
ATOM      4  C   UNL     1       4.885   6.879  16.398  0.00  0.00    +0.000 A 
ATOM      5  C   UNL     1       4.045   6.173  17.238  0.00  0.00    +0.000 A 
ATOM      6  C   UNL     1       4.132   4.786  17.137  0.00  0.00    +0.000 A 
ATOM      7  N   UNL     1       5.040   4.189  16.319  0.00  0.00    +0.000 NA
ATOM      8  H   UNL     1       7.524   5.025  14.593  0.00  0.00    +0.000 HD
ATOM      9  H   UNL     1       7.025   3.472  15.152  0.00  0.00    +0.000 HD
ENDROOT
BRANCH   6  10
ATOM     10  C   UNL     1       3.287   3.834  17.908  0.00  0.00    +0.000 A 
ATOM     11  C   UNL     1       1.912   3.672  17.648  0.00  0.00    +0.000 A 
ATOM     12  C   UNL     1       1.093   2.918  18.491  0.00  0.00    +0.000 A 
ATOM     13  C   UNL     1       1.645   2.241  19.572  0.00  0.00    +0.000 A 
ATOM     14  C   UNL     1       3.018   2.302  19.794  0.00  0.00    +0.000 A 
ATOM     15  C   UNL     1       3.830   3.090  18.971  0.00  0.00    +0.000 A 
ENDBRANCH   6  10
BRANCH   5  16
ATOM     16  C   UNL     1       3.196   6.903  18.152  0.00  0.00    +0.000 A 
ATOM     17  N   UNL     1       2.494   7.997  17.955  0.00  0.00    +0.000 NA
ATOM     18  C   UNL     1       1.914   8.212  19.196  0.00  0.00    +0.000 A 
ATOM     19  N   UNL     1       2.257   7.295  20.115  0.00  0.00    +0.000 NA
ATOM     20  O   UNL     1       3.130   6.453  19.438  0.00  0.00    +0.000 OA
BRANCH  18  21
ATOM     21  C   UNL     1       1.063   9.364  19.469  0.00  0.00    +0.000 A 
ATOM     22  C   UNL     1       0.411   9.503  20.687  0.00  0.00    +0.000 A 
ATOM     23  C   UNL     1      -0.451  10.578  20.861  0.00  0.00    +0.000 A 
ATOM     24  C   UNL     1      -0.616  11.463  19.813  0.00  0.00    +0.000 A 
ATOM     25  N   UNL     1       0.044  11.328  18.646  0.00  0.00    +0.000 NA
ATOM     26  N   UNL     1       0.890  10.265  18.472  0.00  0.00    +0.000 NA
ENDBRANCH  18  21
ENDBRANCH   5  16
TORSDOF 3
ENDMDL
