MODEL 1
REMARK VINA RESULT:      -7.1      0.000      0.000
REMARK  Name = 
REMARK  13 active torsions:
REMARK  status: ('A' for Active; 'I' for Inactive)
REMARK    1  A    between atoms: C_2  and  C_3
REMARK    2  A    between atoms: C_3  and  O_4
REMARK    3  A    between atoms: O_4  and  C_5
REMARK    4  A    between atoms: C_8  and  C_9
REMARK    5  A    between atoms: C_9  and  C_10
REMARK    6  A    between atoms: C_10  and  N_11
REMARK    7  A    between atoms: C_12  and  C_14
REMARK    8  A    between atoms: C_14  and  O_15
REMARK    9  A    between atoms: C_14  and  C_18
REMARK   10  A    between atoms: O_15  and  C_16
REMARK   11  A    between atoms: C_16  and  C_17
REMARK   12  A    between atoms: C_26  and  O_27
REMARK   13  A    between atoms: O_27  and  C_28
REMARK                            x       y       z     vdW  Elec       q    Type
REMARK                         _______ _______ _______ _____ _____    ______ ____
ROOT
ATOM      1  N   UNL     1       2.031   8.456  19.189  0.00  0.00    +0.000 N 
ATOM      2  C   UNL     1       1.085   9.084  20.011  0.00  0.00    +0.000 C 
ATOM      3  O   UNL     1       0.551   8.475  20.917  0.00  0.00    +0.000 OA
ATOM      4  H   UNL     1       2.484   8.933  18.426  0.00  0.00    +0.000 HD
ENDROOT
BRANCH   1   5
ATOM      5  C   UNL     1       2.403   7.093  19.505  0.00  0.00    +0.000 C 
BRANCH   5   6
ATOM      6  C   UNL     1       2.095   6.103  18.379  0.00  0.00    +0.000 C 
BRANCH   6  10
ATOM      7  C   UNL     1       5.778   4.733  16.562  0.00  0.00    +0.000 A 
ATOM      8  C   UNL     1       4.724   3.829  16.808  0.00  0.00    +0.000 A 
ATOM      9  C   UNL     1       3.517   4.252  17.365  0.00  0.00    +0.000 A 
ATOM     10  C   UNL     1       3.367   5.577  17.751  0.00  0.00    +0.000 A 
ATOM     11  C   UNL     1       4.444   6.452  17.570  0.00  0.00    +0.000 A 
ATOM     12  C   UNL     1       5.656   6.056  16.961  0.00  0.00    +0.000 A 
BRANCH  12  13
ATOM     13  O   UNL     1       6.394   7.208  16.844  0.00  0.00    +0.000 OA
ATOM     14  C   UNL     1       7.596   7.358  17.542  0.00  0.00    +0.000 C 
ENDBRANCH  12  13
BRANCH   7  15
ATOM     15  O   UNL     1       6.888   4.247  15.896  0.00  0.00    +0.000 OA
BRANCH  15  16
ATOM     16  C   UNL     1       7.072   4.898  14.626  0.00  0.00    +0.000 C 
BRANCH  16  18
ATOM     17  C   UNL     1       5.756   3.378  12.643  0.00  0.00    +0.000 C 
ATOM     18  C   UNL     1       6.364   4.079  13.559  0.00  0.00    +0.000 C 
ENDBRANCH  16  18
ENDBRANCH  15  16
ENDBRANCH   7  15
ENDBRANCH   6  10
ENDBRANCH   5   6
ENDBRANCH   1   5
BRANCH   2  19
ATOM     19  C   UNL     1       0.761  10.566  19.649  0.00  0.00    +0.000 C 
BRANCH  19  20
ATOM     20  C   UNL     1      -0.595  10.669  18.941  0.00  0.00    +0.000 A 
ATOM     21  C   UNL     1      -1.611  11.497  19.453  0.00  0.00    +0.000 A 
ATOM     22  C   UNL     1      -2.828  11.657  18.772  0.00  0.00    +0.000 A 
ATOM     23  C   UNL     1      -3.046  10.976  17.580  0.00  0.00    +0.000 A 
ATOM     24 CL   UNL     1      -4.528  11.195  16.733  0.00  0.00    +0.000 Cl
ATOM     25  C   UNL     1      -2.069  10.127  17.070  0.00  0.00    +0.000 A 
ATOM     26  C   UNL     1      -0.847   9.980  17.744  0.00  0.00    +0.000 A 
ENDBRANCH  19  20
BRANCH  19  27
ATOM     27  O   UNL     1       1.713  11.252  18.820  0.00  0.00    +0.000 OA
BRANCH  27  28
ATOM     28  C   UNL     1       1.974  12.594  19.221  0.00  0.00    +0.000 C 
ATOM     29  C   UNL     1       2.866  13.311  18.219  0.00  0.00    +0.000 C 
ENDBRANCH  27  28
ENDBRANCH  19  27
ENDBRANCH   2  19
TORSDOF 11
ENDMDL
MODEL 2
REMARK VINA RESULT:      -6.8      1.602      2.439
REMARK  Name = 
REMARK  13 active torsions:
REMARK  status: ('A' for Active; 'I' for Inactive)
REMARK    1  A    between atoms: C_2  and  C_3
REMARK    2  A    between atoms: C_3  and  O_4
REMARK    3  A    between atoms: O_4  and  C_5
REMARK    4  A    between atoms: C_8  and  C_9
REMARK    5  A    between atoms: C_9  and  C_10
REMARK    6  A    between atoms: C_10  and  N_11
REMARK    7  A    between atoms: C_12  and  C_14
REMARK    8  A    between atoms: C_14  and  O_15
REMARK    9  A    between atoms: C_14  and  C_18
REMARK   10  A    between atoms: O_15  and  C_16
REMARK   11  A    between atoms: C_16  and  C_17
REMARK   12  A    between atoms: C_26  and  O_27
REMARK   13  A    between atoms: O_27  and  C_28
REMARK                            x       y       z     vdW  Elec       q    Type
REMARK                         _______ _______ _______ _____ _____    ______ ____
ROOT
ATOM      1  N   UNL     1       1.509   9.180  18.938  0.00  0.00    +0.000 N 
ATOM      2  C   UNL     1       1.506  10.552  18.654  0.00  0.00    +0.000 C 
ATOM      3  O   UNL     1       2.266  11.015  17.827  0.00  0.00    +0.000 OA
ATOM      4  H   UNL     1       0.897   8.769  19.624  0.00  0.00    +0.000 HD
ENDROOT
BRANCH   1   5
ATOM      5  C   UNL     1       2.387   8.330  18.160  0.00  0.00    +0.000 C 
BRANCH   5   6
ATOM      6  C   UNL     1       2.433   6.884  18.661  0.00  0.00    +0.000 C 
BRANCH   6  10
ATOM      7  C   UNL     1       5.107   4.374  16.359  0.00  0.00    +0.000 A 
ATOM      8  C   UNL     1       5.201   5.780  16.281  0.00  0.00    +0.000 A 
ATOM      9  C   UNL     1       4.372   6.608  17.035  0.00  0.00    +0.000 A 
ATOM     10  C   UNL     1       3.383   6.048  17.831  0.00  0.00    +0.000 A 
ATOM     11  C   UNL     1       3.247   4.655  17.847  0.00  0.00    +0.000 A 
ATOM     12  C   UNL     1       4.110   3.795  17.132  0.00  0.00    +0.000 A 
BRANCH  12  13
ATOM     13  O   UNL     1       3.746   2.526  17.506  0.00  0.00    +0.000 OA
ATOM     14  C   UNL     1       2.465   2.267  18.000  0.00  0.00    +0.000 C 
ENDBRANCH  12  13
BRANCH   7  15
ATOM     15  O   UNL     1       6.050   3.635  15.670  0.00  0.00    +0.000 OA
BRANCH  15  16
ATOM     16  C   UNL     1       6.612   4.382  14.575  0.00  0.00    +0.000 C 
BRANCH  16  18
ATOM     17  C   UNL     1       5.796   3.175  12.157  0.00  0.00    +0.000 C 
ATOM     18  C   UNL     1       6.172   3.732  13.274  0.00  0.00    +0.000 C 
ENDBRANCH  16  18
ENDBRANCH  15  16
ENDBRANCH   7  15
ENDBRANCH   6  10
ENDBRANCH   5   6
ENDBRANCH   1   5
BRANCH   2  19
ATOM     19  C   UNL     1       0.506  11.408  19.492  0.00  0.00    +0.000 C 
BRANCH  19  20
ATOM     20  C   UNL     1      -0.926  11.235  18.970  0.00  0.00    +0.000 A 
ATOM     21  C   UNL     1      -1.986  11.973  19.528  0.00  0.00    +0.000 A 
ATOM     22  C   UNL     1      -3.286  11.880  19.009  0.00  0.00    +0.000 A 
ATOM     23  C   UNL     1      -3.540  11.035  17.934  0.00  0.00    +0.000 A 
ATOM     24 CL   UNL     1      -5.130  10.943  17.281  0.00  0.00    +0.000 Cl
ATOM     25  C   UNL     1      -2.515  10.272  17.386  0.00  0.00    +0.000 A 
ATOM     26  C   UNL     1      -1.212  10.378  17.897  0.00  0.00    +0.000 A 
ENDBRANCH  19  20
BRANCH  19  27
ATOM     27  O   UNL     1       0.757  12.820  19.553  0.00  0.00    +0.000 OA
BRANCH  27  28
ATOM     28  C   UNL     1       1.326  13.258  20.784  0.00  0.00    +0.000 C 
ATOM     29  C   UNL     1       0.253  13.558  21.819  0.00  0.00    +0.000 C 
ENDBRANCH  27  28
ENDBRANCH  19  27
ENDBRANCH   2  19
TORSDOF 11
ENDMDL
MODEL 3
REMARK VINA RESULT:      -6.8      3.157      8.515
REMARK  Name = 
REMARK  13 active torsions:
REMARK  status: ('A' for Active; 'I' for Inactive)
REMARK    1  A    between atoms: C_2  and  C_3
REMARK    2  A    between atoms: C_3  and  O_4
REMARK    3  A    between atoms: O_4  and  C_5
REMARK    4  A    between atoms: C_8  and  C_9
REMARK    5  A    between atoms: C_9  and  C_10
REMARK    6  A    between atoms: C_10  and  N_11
REMARK    7  A    between atoms: C_12  and  C_14
REMARK    8  A    between atoms: C_14  and  O_15
REMARK    9  A    between atoms: C_14  and  C_18
REMARK   10  A    between atoms: O_15  and  C_16
REMARK   11  A    between atoms: C_16  and  C_17
REMARK   12  A    between atoms: C_26  and  O_27
REMARK   13  A    between atoms: O_27  and  C_28
REMARK                            x       y       z     vdW  Elec       q    Type
REMARK                         _______ _______ _______ _____ _____    ______ ____
ROOT
ATOM      1  N   UNL     1       3.775   3.856  18.619  0.00  0.00    +0.000 N 
ATOM      2  C   UNL     1       3.710   3.720  17.225  0.00  0.00    +0.000 C 
ATOM      3  O   UNL     1       2.653   3.485  16.674  0.00  0.00    +0.000 OA
ATOM      4  H   UNL     1       4.638   4.043  19.104  0.00  0.00    +0.000 HD
ENDROOT
BRANCH   1   5
ATOM      5  C   UNL     1       2.534   3.784  19.363  0.00  0.00    +0.000 C 
BRANCH   5   6
ATOM      6  C   UNL     1       2.513   4.691  20.596  0.00  0.00    +0.000 C 
BRANCH   6  10
ATOM      7  C   UNL     1       1.488   8.786  19.632  0.00  0.00    +0.000 A 
ATOM      8  C   UNL     1       2.217   7.997  18.718  0.00  0.00    +0.000 A 
ATOM      9  C   UNL     1       2.534   6.668  18.993  0.00  0.00    +0.000 A 
ATOM     10  C   UNL     1       2.186   6.119  20.220  0.00  0.00    +0.000 A 
ATOM     11  C   UNL     1       1.526   6.930  21.151  0.00  0.00    +0.000 A 
ATOM     12  C   UNL     1       1.150   8.263  20.873  0.00  0.00    +0.000 A 
BRANCH  12  13
ATOM     13  O   UNL     1       0.419   8.667  21.962  0.00  0.00    +0.000 OA
ATOM     14  C   UNL     1      -0.206   9.917  21.977  0.00  0.00    +0.000 C 
ENDBRANCH  12  13
BRANCH   7  15
ATOM     15  O   UNL     1       1.115  10.053  19.222  0.00  0.00    +0.000 OA
BRANCH  15  16
ATOM     16  C   UNL     1       0.596  10.044  17.880  0.00  0.00    +0.000 C 
BRANCH  16  18
ATOM     17  C   UNL     1      -2.218  10.223  18.009  0.00  0.00    +0.000 C 
ATOM     18  C   UNL     1      -0.919  10.140  17.949  0.00  0.00    +0.000 C 
ENDBRANCH  16  18
ENDBRANCH  15  16
ENDBRANCH   7  15
ENDBRANCH   6  10
ENDBRANCH   5   6
ENDBRANCH   1   5
BRANCH   2  19
ATOM     19  C   UNL     1       5.072   3.853  16.475  0.00  0.00    +0.000 C 
BRANCH  19  20
ATOM     20  C   UNL     1       5.889   5.022  17.038  0.00  0.00    +0.000 A 
ATOM     21  C   UNL     1       6.994   4.786  17.877  0.00  0.00    +0.000 A 
ATOM     22  C   UNL     1       7.794   5.844  18.336  0.00  0.00    +0.000 A 
ATOM     23  C   UNL     1       7.488   7.149  17.970  0.00  0.00    +0.000 A 
ATOM     24 CL   UNL     1       8.487   8.443  18.512  0.00  0.00    +0.000 Cl
ATOM     25  C   UNL     1       6.383   7.411  17.167  0.00  0.00    +0.000 A 
ATOM     26  C   UNL     1       5.592   6.351  16.697  0.00  0.00    +0.000 A 
ENDBRANCH  19  20
BRANCH  19  27
ATOM     27  O   UNL     1       5.011   4.038  15.052  0.00  0.00    +0.000 OA
BRANCH  27  28
ATOM     28  C   UNL     1       6.253   3.832  14.385  0.00  0.00    +0.000 C 
ATOM     29  C   UNL     1       6.049   3.547  12.905  0.00  0.00    +0.000 C 
ENDBRANCH  27  28
ENDBRANCH  19  27
ENDBRANCH   2  19
TORSDOF 11
ENDMDL
MODEL 4
REMARK VINA RESULT:      -6.7      2.325      3.223
REMARK  Name = 
REMARK  13 active torsions:
REMARK  status: ('A' for Active; 'I' for Inactive)
REMARK    1  A    between atoms: C_2  and  C_3
REMARK    2  A    between atoms: C_3  and  O_4
REMARK    3  A    between atoms: O_4  and  C_5
REMARK    4  A    between atoms: C_8  and  C_9
REMARK    5  A    between atoms: C_9  and  C_10
REMARK    6  A    between atoms: C_10  and  N_11
REMARK    7  A    between atoms: C_12  and  C_14
REMARK    8  A    between atoms: C_14  and  O_15
REMARK    9  A    between atoms: C_14  and  C_18
REMARK   10  A    between atoms: O_15  and  C_16
REMARK   11  A    between atoms: C_16  and  C_17
REMARK   12  A    between atoms: C_26  and  O_27
REMARK   13  A    between atoms: O_27  and  C_28
REMARK                            x       y       z     vdW  Elec       q    Type
REMARK                         _______ _______ _______ _____ _____    ______ ____
ROOT
ATOM      1  N   UNL     1       1.959  10.064  18.378  0.00  0.00    +0.000 N 
ATOM      2  C   UNL     1       0.738  10.546  18.870  0.00  0.00    +0.000 C 
ATOM      3  O   UNL     1      -0.284   9.906  18.724  0.00  0.00    +0.000 OA
ATOM      4  H   UNL     1       2.821  10.576  18.477  0.00  0.00    +0.000 HD
ENDROOT
BRANCH   1   5
ATOM      5  C   UNL     1       1.971   8.752  17.764  0.00  0.00    +0.000 C 
BRANCH   5   6
ATOM      6  C   UNL     1       2.429   7.642  18.713  0.00  0.00    +0.000 C 
BRANCH   6  10
ATOM      7  C   UNL     1       4.890   4.663  16.761  0.00  0.00    +0.000 A 
ATOM      8  C   UNL     1       4.984   6.021  16.392  0.00  0.00    +0.000 A 
ATOM      9  C   UNL     1       4.224   7.003  17.027  0.00  0.00    +0.000 A 
ATOM     10  C   UNL     1       3.302   6.636  17.997  0.00  0.00    +0.000 A 
ATOM     11  C   UNL     1       3.162   5.278  18.305  0.00  0.00    +0.000 A 
ATOM     12  C   UNL     1       3.958   4.273  17.712  0.00  0.00    +0.000 A 
BRANCH  12  13
ATOM     13  O   UNL     1       3.620   3.113  18.363  0.00  0.00    +0.000 OA
ATOM     14  C   UNL     1       2.860   2.130  17.722  0.00  0.00    +0.000 C 
ENDBRANCH  12  13
BRANCH   7  15
ATOM     15  O   UNL     1       5.769   3.780  16.162  0.00  0.00    +0.000 OA
BRANCH  15  16
ATOM     16  C   UNL     1       6.600   4.438  15.188  0.00  0.00    +0.000 C 
BRANCH  16  18
ATOM     17  C   UNL     1       5.929   3.451  12.629  0.00  0.00    +0.000 C 
ATOM     18  C   UNL     1       6.239   3.907  13.810  0.00  0.00    +0.000 C 
ENDBRANCH  16  18
ENDBRANCH  15  16
ENDBRANCH   7  15
ENDBRANCH   6  10
ENDBRANCH   5   6
ENDBRANCH   1   5
BRANCH   2  19
ATOM     19  C   UNL     1       0.800  11.943  19.561  0.00  0.00    +0.000 C 
BRANCH  19  20
ATOM     20  C   UNL     1      -0.248  12.044  20.677  0.00  0.00    +0.000 A 
ATOM     21  C   UNL     1      -1.392  12.846  20.516  0.00  0.00    +0.000 A 
ATOM     22  C   UNL     1      -2.394  12.886  21.498  0.00  0.00    +0.000 A 
ATOM     23  C   UNL     1      -2.251  12.134  22.659  0.00  0.00    +0.000 A 
ATOM     24 CL   UNL     1      -3.494  12.163  23.850  0.00  0.00    +0.000 Cl
ATOM     25  C   UNL     1      -1.114  11.358  22.855  0.00  0.00    +0.000 A 
ATOM     26  C   UNL     1      -0.121  11.307  21.865  0.00  0.00    +0.000 A 
ENDBRANCH  19  20
BRANCH  19  27
ATOM     27  O   UNL     1       0.616  13.091  18.718  0.00  0.00    +0.000 OA
BRANCH  27  28
ATOM     28  C   UNL     1       1.821  13.791  18.417  0.00  0.00    +0.000 C 
ATOM     29  C   UNL     1       2.778  13.785  19.599  0.00  0.00    +0.000 C 
ENDBRANCH  27  28
ENDBRANCH  19  27
ENDBRANCH   2  19
TORSDOF 11
ENDMDL
MODEL 5
REMARK VINA RESULT:      -6.7      2.506      3.389
REMARK  Name = 
REMARK  13 active torsions:
REMARK  status: ('A' for Active; 'I' for Inactive)
REMARK    1  A    between atoms: C_2  and  C_3
REMARK    2  A    between atoms: C_3  and  O_4
REMARK    3  A    between atoms: O_4  and  C_5
REMARK    4  A    between atoms: C_8  and  C_9
REMARK    5  A    between atoms: C_9  and  C_10
REMARK    6  A    between atoms: C_10  and  N_11
REMARK    7  A    between atoms: C_12  and  C_14
REMARK    8  A    between atoms: C_14  and  O_15
REMARK    9  A    between atoms: C_14  and  C_18
REMARK   10  A    between atoms: O_15  and  C_16
REMARK   11  A    between atoms: C_16  and  C_17
REMARK   12  A    between atoms: C_26  and  O_27
REMARK   13  A    between atoms: O_27  and  C_28
REMARK                            x       y       z     vdW  Elec       q    Type
REMARK                         _______ _______ _______ _____ _____    ______ ____
ROOT
ATOM      1  N   UNL     1       1.648  10.212  18.530  0.00  0.00    +0.000 N 
ATOM      2  C   UNL     1       0.404  10.583  19.060  0.00  0.00    +0.000 C 
ATOM      3  O   UNL     1      -0.564   9.861  18.931  0.00  0.00    +0.000 OA
ATOM      4  H   UNL     1       2.466  10.793  18.614  0.00  0.00    +0.000 HD
ENDROOT
BRANCH   1   5
ATOM      5  C   UNL     1       1.753   8.913  17.899  0.00  0.00    +0.000 C 
BRANCH   5   6
ATOM      6  C   UNL     1       2.228   7.812  18.850  0.00  0.00    +0.000 C 
BRANCH   6  10
ATOM      7  C   UNL     1       4.403   4.680  16.799  0.00  0.00    +0.000 A 
ATOM      8  C   UNL     1       4.867   6.011  16.767  0.00  0.00    +0.000 A 
ATOM      9  C   UNL     1       4.201   7.032  17.444  0.00  0.00    +0.000 A 
ATOM     10  C   UNL     1       3.016   6.753  18.111  0.00  0.00    +0.000 A 
ATOM     11  C   UNL     1       2.523   5.444  18.078  0.00  0.00    +0.000 A 
ATOM     12  C   UNL     1       3.209   4.385  17.442  0.00  0.00    +0.000 A 
BRANCH  12  13
ATOM     13  O   UNL     1       2.487   3.256  17.741  0.00  0.00    +0.000 OA
ATOM     14  C   UNL     1       2.972   2.323  18.662  0.00  0.00    +0.000 C 
ENDBRANCH  12  13
BRANCH   7  15
ATOM     15  O   UNL     1       5.194   3.716  16.201  0.00  0.00    +0.000 OA
BRANCH  15  16
ATOM     16  C   UNL     1       6.288   4.306  15.476  0.00  0.00    +0.000 C 
BRANCH  16  18
ATOM     17  C   UNL     1       6.070   3.557  12.762  0.00  0.00    +0.000 C 
ATOM     18  C   UNL     1       6.170   3.903  14.015  0.00  0.00    +0.000 C 
ENDBRANCH  16  18
ENDBRANCH  15  16
ENDBRANCH   7  15
ENDBRANCH   6  10
ENDBRANCH   5   6
ENDBRANCH   1   5
BRANCH   2  19
ATOM     19  C   UNL     1       0.366  11.973  19.769  0.00  0.00    +0.000 C 
BRANCH  19  20
ATOM     20  C   UNL     1      -0.721  12.001  20.850  0.00  0.00    +0.000 A 
ATOM     21  C   UNL     1      -0.513  11.373  22.092  0.00  0.00    +0.000 A 
ATOM     22  C   UNL     1      -1.469  11.457  23.116  0.00  0.00    +0.000 A 
ATOM     23  C   UNL     1      -2.649  12.160  22.901  0.00  0.00    +0.000 A 
ATOM     24 CL   UNL     1      -3.808  12.285  24.167  0.00  0.00    +0.000 Cl
ATOM     25  C   UNL     1      -2.891  12.762  21.671  0.00  0.00    +0.000 A 
ATOM     26  C   UNL     1      -1.927  12.690  20.654  0.00  0.00    +0.000 A 
ENDBRANCH  19  20
BRANCH  19  27
ATOM     27  O   UNL     1       0.147  13.119  18.932  0.00  0.00    +0.000 OA
BRANCH  27  28
ATOM     28  C   UNL     1       1.317  13.896  18.690  0.00  0.00    +0.000 C 
ATOM     29  C   UNL     1       2.043  14.226  19.985  0.00  0.00    +0.000 C 
ENDBRANCH  27  28
ENDBRANCH  19  27
ENDBRANCH   2  19
TORSDOF 11
ENDMDL
MODEL 6
REMARK VINA RESULT:      -6.7      3.828      9.857
REMARK  Name = 
REMARK  13 active torsions:
REMARK  status: ('A' for Active; 'I' for Inactive)
REMARK    1  A    between atoms: C_2  and  C_3
REMARK    2  A    between atoms: C_3  and  O_4
REMARK    3  A    between atoms: O_4  and  C_5
REMARK    4  A    between atoms: C_8  and  C_9
REMARK    5  A    between atoms: C_9  and  C_10
REMARK    6  A    between atoms: C_10  and  N_11
REMARK    7  A    between atoms: C_12  and  C_14
REMARK    8  A    between atoms: C_14  and  O_15
REMARK    9  A    between atoms: C_14  and  C_18
REMARK   10  A    between atoms: O_15  and  C_16
REMARK   11  A    between atoms: C_16  and  C_17
REMARK   12  A    between atoms: C_26  and  O_27
REMARK   13  A    between atoms: O_27  and  C_28
REMARK                            x       y       z     vdW  Elec       q    Type
REMARK                         _______ _______ _______ _____ _____    ______ ____
ROOT
ATOM      1  N   UNL     1       2.664   6.419  20.047  0.00  0.00    +0.000 N 
ATOM      2  C   UNL     1       2.232   5.122  19.736  0.00  0.00    +0.000 C 
ATOM      3  O   UNL     1       1.168   4.708  20.149  0.00  0.00    +0.000 OA
ATOM      4  H   UNL     1       3.544   6.787  19.726  0.00  0.00    +0.000 HD
ENDROOT
BRANCH   1   5
ATOM      5  C   UNL     1       1.766   7.265  20.807  0.00  0.00    +0.000 C 
BRANCH   5   6
ATOM      6  C   UNL     1       1.323   8.517  20.046  0.00  0.00    +0.000 C 
BRANCH   6  10
ATOM      7  C   UNL     1      -0.715  11.379  22.575  0.00  0.00    +0.000 A 
ATOM      8  C   UNL     1      -0.717  10.007  22.903  0.00  0.00    +0.000 A 
ATOM      9  C   UNL     1      -0.043   9.071  22.121  0.00  0.00    +0.000 A 
ATOM     10  C   UNL     1       0.590   9.479  20.955  0.00  0.00    +0.000 A 
ATOM     11  C   UNL     1       0.525  10.830  20.597  0.00  0.00    +0.000 A 
ATOM     12  C   UNL     1      -0.108  11.804  21.402  0.00  0.00    +0.000 A 
BRANCH  12  13
ATOM     13  O   UNL     1       0.157  13.005  20.792  0.00  0.00    +0.000 OA
ATOM     14  C   UNL     1      -0.040  13.165  19.417  0.00  0.00    +0.000 C 
ENDBRANCH  12  13
BRANCH   7  15
ATOM     15  O   UNL     1      -1.306  12.248  23.475  0.00  0.00    +0.000 OA
BRANCH  15  16
ATOM     16  C   UNL     1      -2.496  12.845  22.930  0.00  0.00    +0.000 C 
BRANCH  16  18
ATOM     17  C   UNL     1      -4.640  12.345  24.698  0.00  0.00    +0.000 C 
ATOM     18  C   UNL     1      -3.649  12.575  23.882  0.00  0.00    +0.000 C 
ENDBRANCH  16  18
ENDBRANCH  15  16
ENDBRANCH   7  15
ENDBRANCH   6  10
ENDBRANCH   5   6
ENDBRANCH   1   5
BRANCH   2  19
ATOM     19  C   UNL     1       3.222   4.276  18.876  0.00  0.00    +0.000 C 
BRANCH  19  20
ATOM     20  C   UNL     1       4.428   5.120  18.448  0.00  0.00    +0.000 A 
ATOM     21  C   UNL     1       4.327   6.021  17.372  0.00  0.00    +0.000 A 
ATOM     22  C   UNL     1       5.401   6.853  17.019  0.00  0.00    +0.000 A 
ATOM     23  C   UNL     1       6.592   6.780  17.733  0.00  0.00    +0.000 A 
ATOM     24 CL   UNL     1       7.899   7.821  17.317  0.00  0.00    +0.000 Cl
ATOM     25  C   UNL     1       6.727   5.875  18.780  0.00  0.00    +0.000 A 
ATOM     26  C   UNL     1       5.647   5.055  19.141  0.00  0.00    +0.000 A 
ENDBRANCH  19  20
BRANCH  19  27
ATOM     27  O   UNL     1       2.693   3.676  17.683  0.00  0.00    +0.000 OA
BRANCH  27  28
ATOM     28  C   UNL     1       2.609   2.254  17.734  0.00  0.00    +0.000 C 
ATOM     29  C   UNL     1       3.432   1.689  18.882  0.00  0.00    +0.000 C 
ENDBRANCH  27  28
ENDBRANCH  19  27
ENDBRANCH   2  19
TORSDOF 11
ENDMDL
MODEL 7
REMARK VINA RESULT:      -6.7      5.198      8.846
REMARK  Name = 
REMARK  13 active torsions:
REMARK  status: ('A' for Active; 'I' for Inactive)
REMARK    1  A    between atoms: C_2  and  C_3
REMARK    2  A    between atoms: C_3  and  O_4
REMARK    3  A    between atoms: O_4  and  C_5
REMARK    4  A    between atoms: C_8  and  C_9
REMARK    5  A    between atoms: C_9  and  C_10
REMARK    6  A    between atoms: C_10  and  N_11
REMARK    7  A    between atoms: C_12  and  C_14
REMARK    8  A    between atoms: C_14  and  O_15
REMARK    9  A    between atoms: C_14  and  C_18
REMARK   10  A    between atoms: O_15  and  C_16
REMARK   11  A    between atoms: C_16  and  C_17
REMARK   12  A    between atoms: C_26  and  O_27
REMARK   13  A    between atoms: O_27  and  C_28
REMARK                            x       y       z     vdW  Elec       q    Type
REMARK                         _______ _______ _______ _____ _____    ______ ____
ROOT
ATOM      1  N   UNL     1       7.183   7.207  17.217  0.00  0.00    +0.000 N 
ATOM      2  C   UNL     1       5.806   6.962  17.132  0.00  0.00    +0.000 C 
ATOM      3  O   UNL     1       5.005   7.849  17.351  0.00  0.00    +0.000 OA
ATOM      4  H   UNL     1       7.871   6.490  17.049  0.00  0.00    +0.000 HD
ENDROOT
BRANCH   1   5
ATOM      5  C   UNL     1       7.613   8.562  17.498  0.00  0.00    +0.000 C 
BRANCH   5   6
ATOM      6  C   UNL     1       8.538   8.666  18.712  0.00  0.00    +0.000 C 
BRANCH   6  10
ATOM      7  C   UNL     1      10.194  12.637  19.196  0.00  0.00    +0.000 A 
ATOM      8  C   UNL     1      10.023  12.086  17.909  0.00  0.00    +0.000 A 
ATOM      9  C   UNL     1       9.465  10.822  17.726  0.00  0.00    +0.000 A 
ATOM     10  C   UNL     1       9.129  10.054  18.833  0.00  0.00    +0.000 A 
ATOM     11  C   UNL     1       9.369  10.578  20.108  0.00  0.00    +0.000 A 
ATOM     12  C   UNL     1       9.885  11.877  20.315  0.00  0.00    +0.000 A 
BRANCH  12  13
ATOM     13  O   UNL     1       9.847  12.068  21.674  0.00  0.00    +0.000 OA
ATOM     14  C   UNL     1       8.966  12.994  22.240  0.00  0.00    +0.000 C 
ENDBRANCH  12  13
BRANCH   7  15
ATOM     15  O   UNL     1      10.641  13.943  19.273  0.00  0.00    +0.000 OA
BRANCH  15  16
ATOM     16  C   UNL     1      11.621  14.228  18.259  0.00  0.00    +0.000 C 
BRANCH  16  18
ATOM     17  C   UNL     1      10.793  16.520  16.834  0.00  0.00    +0.000 C 
ATOM     18  C   UNL     1      11.176  15.462  17.492  0.00  0.00    +0.000 C 
ENDBRANCH  16  18
ENDBRANCH  15  16
ENDBRANCH   7  15
ENDBRANCH   6  10
ENDBRANCH   5   6
ENDBRANCH   1   5
BRANCH   2  19
ATOM     19  C   UNL     1       5.407   5.495  16.781  0.00  0.00    +0.000 C 
BRANCH  19  20
ATOM     20  C   UNL     1       4.301   4.994  17.718  0.00  0.00    +0.000 A 
ATOM     21  C   UNL     1       4.373   5.229  19.103  0.00  0.00    +0.000 A 
ATOM     22  C   UNL     1       3.330   4.842  19.959  0.00  0.00    +0.000 A 
ATOM     23  C   UNL     1       2.212   4.203  19.438  0.00  0.00    +0.000 A 
ATOM     24 CL   UNL     1       0.922   3.754  20.485  0.00  0.00    +0.000 Cl
ATOM     25  C   UNL     1       2.131   3.931  18.076  0.00  0.00    +0.000 A 
ATOM     26  C   UNL     1       3.168   4.333  17.219  0.00  0.00    +0.000 A 
ENDBRANCH  19  20
BRANCH  19  27
ATOM     27  O   UNL     1       6.455   4.514  16.818  0.00  0.00    +0.000 OA
BRANCH  27  28
ATOM     28  C   UNL     1       6.737   3.915  15.555  0.00  0.00    +0.000 C 
ATOM     29  C   UNL     1       5.804   4.435  14.472  0.00  0.00    +0.000 C 
ENDBRANCH  27  28
ENDBRANCH  19  27
ENDBRANCH   2  19
TORSDOF 11
ENDMDL
MODEL 8
REMARK VINA RESULT:      -6.6      3.668      9.776
REMARK  Name = 
REMARK  13 active torsions:
REMARK  status: ('A' for Active; 'I' for Inactive)
REMARK    1  A    between atoms: C_2  and  C_3
REMARK    2  A    between atoms: C_3  and  O_4
REMARK    3  A    between atoms: O_4  and  C_5
REMARK    4  A    between atoms: C_8  and  C_9
REMARK    5  A    between atoms: C_9  and  C_10
REMARK    6  A    between atoms: C_10  and  N_11
REMARK    7  A    between atoms: C_12  and  C_14
REMARK    8  A    between atoms: C_14  and  O_15
REMARK    9  A    between atoms: C_14  and  C_18
REMARK   10  A    between atoms: O_15  and  C_16
REMARK   11  A    between atoms: C_16  and  C_17
REMARK   12  A    between atoms: C_26  and  O_27
REMARK   13  A    between atoms: O_27  and  C_28
REMARK                            x       y       z     vdW  Elec       q    Type
REMARK                         _______ _______ _______ _____ _____    ______ ____
ROOT
ATOM      1  N   UNL     1       2.433   7.474  18.418  0.00  0.00    +0.000 N 
ATOM      2  C   UNL     1       2.192   6.753  19.596  0.00  0.00    +0.000 C 
ATOM      3  O   UNL     1       1.839   7.322  20.610  0.00  0.00    +0.000 OA
ATOM      4  H   UNL     1       2.734   7.031  17.566  0.00  0.00    +0.000 HD
ENDROOT
BRANCH   1   5
ATOM      5  C   UNL     1       2.172   8.899  18.433  0.00  0.00    +0.000 C 
BRANCH   5   6
ATOM      6  C   UNL     1       0.808   9.272  17.848  0.00  0.00    +0.000 C 
BRANCH   6  10
ATOM      7  C   UNL     1      -1.525  11.806  20.472  0.00  0.00    +0.000 A 
ATOM      8  C   UNL     1      -0.299  11.260  20.909  0.00  0.00    +0.000 A 
ATOM      9  C   UNL     1       0.484  10.466  20.072  0.00  0.00    +0.000 A 
ATOM     10  C   UNL     1       0.023  10.145  18.803  0.00  0.00    +0.000 A 
ATOM     11  C   UNL     1      -1.227  10.630  18.404  0.00  0.00    +0.000 A 
ATOM     12  C   UNL     1      -2.013  11.478  19.215  0.00  0.00    +0.000 A 
BRANCH  12  13
ATOM     13  O   UNL     1      -3.081  11.841  18.433  0.00  0.00    +0.000 OA
ATOM     14  C   UNL     1      -3.302  11.224  17.198  0.00  0.00    +0.000 C 
ENDBRANCH  12  13
BRANCH   7  15
ATOM     15  O   UNL     1      -2.171  12.679  21.327  0.00  0.00    +0.000 OA
BRANCH  15  16
ATOM     16  C   UNL     1      -1.800  12.451  22.699  0.00  0.00    +0.000 C 
BRANCH  16  18
ATOM     17  C   UNL     1      -4.139  12.495  24.278  0.00  0.00    +0.000 C 
ATOM     18  C   UNL     1      -3.059  12.475  23.549  0.00  0.00    +0.000 C 
ENDBRANCH  16  18
ENDBRANCH  15  16
ENDBRANCH   7  15
ENDBRANCH   6  10
ENDBRANCH   5   6
ENDBRANCH   1   5
BRANCH   2  19
ATOM     19  C   UNL     1       2.446   5.216  19.504  0.00  0.00    +0.000 C 
BRANCH  19  20
ATOM     20  C   UNL     1       3.700   4.922  18.672  0.00  0.00    +0.000 A 
ATOM     21  C   UNL     1       3.591   4.424  17.361  0.00  0.00    +0.000 A 
ATOM     22  C   UNL     1       4.729   4.222  16.565  0.00  0.00    +0.000 A 
ATOM     23  C   UNL     1       5.989   4.505  17.079  0.00  0.00    +0.000 A 
ATOM     24 CL   UNL     1       7.382   4.284  16.092  0.00  0.00    +0.000 Cl
ATOM     25  C   UNL     1       6.125   4.968  18.384  0.00  0.00    +0.000 A 
ATOM     26  C   UNL     1       4.985   5.184  19.173  0.00  0.00    +0.000 A 
ENDBRANCH  19  20
BRANCH  19  27
ATOM     27  O   UNL     1       1.387   4.417  18.952  0.00  0.00    +0.000 OA
BRANCH  27  28
ATOM     28  C   UNL     1       1.060   3.267  19.727  0.00  0.00    +0.000 C 
ATOM     29  C   UNL     1       1.488   3.434  21.177  0.00  0.00    +0.000 C 
ENDBRANCH  27  28
ENDBRANCH  19  27
ENDBRANCH   2  19
TORSDOF 11
ENDMDL
MODEL 9
REMARK VINA RESULT:      -6.6      2.093      3.107
REMARK  Name = 
REMARK  13 active torsions:
REMARK  status: ('A' for Active; 'I' for Inactive)
REMARK    1  A    between atoms: C_2  and  C_3
REMARK    2  A    between atoms: C_3  and  O_4
REMARK    3  A    between atoms: O_4  and  C_5
REMARK    4  A    between atoms: C_8  and  C_9
REMARK    5  A    between atoms: C_9  and  C_10
REMARK    6  A    between atoms: C_10  and  N_11
REMARK    7  A    between atoms: C_12  and  C_14
REMARK    8  A    between atoms: C_14  and  O_15
REMARK    9  A    between atoms: C_14  and  C_18
REMARK   10  A    between atoms: O_15  and  C_16
REMARK   11  A    between atoms: C_16  and  C_17
REMARK   12  A    between atoms: C_26  and  O_27
REMARK   13  A    between atoms: O_27  and  C_28
REMARK                            x       y       z     vdW  Elec       q    Type
REMARK                         _______ _______ _______ _____ _____    ______ ____
ROOT
ATOM      1  N   UNL     1       1.757   8.784  19.132  0.00  0.00    +0.000 N 
ATOM      2  C   UNL     1       0.772   9.736  18.834  0.00  0.00    +0.000 C 
ATOM      3  O   UNL     1       0.337   9.844  17.705  0.00  0.00    +0.000 OA
ATOM      4  H   UNL     1       2.142   8.676  20.056  0.00  0.00    +0.000 HD
ENDROOT
BRANCH   1   5
ATOM      5  C   UNL     1       2.176   7.891  18.071  0.00  0.00    +0.000 C 
BRANCH   5   6
ATOM      6  C   UNL     1       2.397   6.451  18.542  0.00  0.00    +0.000 C 
BRANCH   6  10
ATOM      7  C   UNL     1       5.693   4.703  16.345  0.00  0.00    +0.000 A 
ATOM      8  C   UNL     1       4.572   3.922  16.693  0.00  0.00    +0.000 A 
ATOM      9  C   UNL     1       3.485   4.469  17.374  0.00  0.00    +0.000 A 
ATOM     10  C   UNL     1       3.529   5.795  17.782  0.00  0.00    +0.000 A 
ATOM     11  C   UNL     1       4.676   6.544  17.497  0.00  0.00    +0.000 A 
ATOM     12  C   UNL     1       5.766   6.024  16.763  0.00  0.00    +0.000 A 
BRANCH  12  13
ATOM     13  O   UNL     1       6.617   7.085  16.579  0.00  0.00    +0.000 OA
ATOM     14  C   UNL     1       7.577   7.406  17.544  0.00  0.00    +0.000 C 
ENDBRANCH  12  13
BRANCH   7  15
ATOM     15  O   UNL     1       6.666   4.106  15.565  0.00  0.00    +0.000 OA
BRANCH  15  16
ATOM     16  C   UNL     1       6.810   4.770  14.297  0.00  0.00    +0.000 C 
BRANCH  16  18
ATOM     17  C   UNL     1       5.717   3.114  12.289  0.00  0.00    +0.000 C 
ATOM     18  C   UNL     1       6.221   3.878  13.216  0.00  0.00    +0.000 C 
ENDBRANCH  16  18
ENDBRANCH  15  16
ENDBRANCH   7  15
ENDBRANCH   6  10
ENDBRANCH   5   6
ENDBRANCH   1   5
BRANCH   2  19
ATOM     19  C   UNL     1       0.329  10.637  20.028  0.00  0.00    +0.000 C 
BRANCH  19  20
ATOM     20  C   UNL     1       0.529  12.120  19.693  0.00  0.00    +0.000 A 
ATOM     21  C   UNL     1       1.731  12.773  20.021  0.00  0.00    +0.000 A 
ATOM     22  C   UNL     1       1.954  14.109  19.652  0.00  0.00    +0.000 A 
ATOM     23  C   UNL     1       0.969  14.808  18.963  0.00  0.00    +0.000 A 
ATOM     24 CL   UNL     1       1.256  16.437  18.487  0.00  0.00    +0.000 Cl
ATOM     25  C   UNL     1      -0.240  14.193  18.655  0.00  0.00    +0.000 A 
ATOM     26  C   UNL     1      -0.455  12.853  19.011  0.00  0.00    +0.000 A 
ENDBRANCH  19  20
BRANCH  19  27
ATOM     27  O   UNL     1       0.979  10.406  21.288  0.00  0.00    +0.000 OA
BRANCH  27  28
ATOM     28  C   UNL     1       0.084  10.132  22.363  0.00  0.00    +0.000 C 
ATOM     29  C   UNL     1      -0.459   8.713  22.286  0.00  0.00    +0.000 C 
ENDBRANCH  27  28
ENDBRANCH  19  27
ENDBRANCH   2  19
TORSDOF 11
ENDMDL
