MODEL 1
REMARK VINA RESULT:      -8.0      0.000      0.000
REMARK  Name = 
REMARK  14 active torsions:
REMARK  status: ('A' for Active; 'I' for Inactive)
REMARK    1  A    between atoms: C_1  and  C_2
REMARK    2  A    between atoms: C_2  and  O_3
REMARK    3  A    between atoms: O_3  and  C_4
REMARK    4  A    between atoms: C_7  and  C_8
REMARK    5  A    between atoms: C_8  and  C_9
REMARK    6  A    between atoms: C_14  and  N_15
REMARK    7  A    between atoms: C_16  and  C_18
REMARK    8  A    between atoms: N_25  and  C_26
REMARK    9  A    between atoms: C_26  and  C_27
REMARK   10  A    between atoms: C_27  and  N_28
REMARK   11  A    between atoms: N_28  and  C_29
REMARK   12  A    between atoms: N_28  and  C_31
REMARK   13  A    between atoms: C_29  and  C_30
REMARK   14  A    between atoms: C_31  and  C_32
REMARK                            x       y       z     vdW  Elec       q    Type
REMARK                         _______ _______ _______ _____ _____    ______ ____
ROOT
ATOM      1  C   UNL     1       3.724   6.265  18.544  0.00  0.00    +0.000 A 
ATOM      2  N   UNL     1       3.462   7.248  17.694  0.00  0.00    +0.000 NA
ATOM      3  C   UNL     1       2.567   8.077  18.312  0.00  0.00    +0.000 A 
ATOM      4  C   UNL     1       2.020   9.282  17.865  0.00  0.00    +0.000 A 
ATOM      5  C   UNL     1       1.105   9.956  18.687  0.00  0.00    +0.000 A 
ATOM      6  C   UNL     1       0.724   9.479  19.957  0.00  0.00    +0.000 A 
ATOM      7  C   UNL     1       1.313   8.287  20.423  0.00  0.00    +0.000 A 
ATOM      8  C   UNL     1       2.213   7.591  19.560  0.00  0.00    +0.000 A 
ATOM      9  N   UNL     1       2.871   6.352  19.635  0.00  0.00    +0.000 N 
ENDROOT
BRANCH   6  10
ATOM     10  N   UNL     1      -0.212  10.275  20.652  0.00  0.00    +0.000 N 
ATOM     11  C   UNL     1      -0.178  11.474  21.335  0.00  0.00    +0.000 C 
ATOM     12  N   UNL     1       0.873  12.223  21.452  0.00  0.00    +0.000 NA
ATOM     13  H   UNL     1      -1.156   9.910  20.568  0.00  0.00    +0.000 HD
ATOM     14  H   UNL     1       1.635  11.791  20.933  0.00  0.00    +0.000 HD
BRANCH  11  15
ATOM     15  C   UNL     1      -1.411  12.032  21.930  0.00  0.00    +0.000 A 
ATOM     16  C   UNL     1      -2.083  11.649  23.080  0.00  0.00    +0.000 A 
ATOM     17  C   UNL     1      -3.206  12.482  23.373  0.00  0.00    +0.000 A 
ATOM     18  C   UNL     1      -3.370  13.474  22.432  0.00  0.00    +0.000 A 
ATOM     19  S   UNL     1      -2.182  13.393  21.207  0.00  0.00    +0.000 S 
ENDBRANCH  11  15
ENDBRANCH   6  10
BRANCH   1  20
ATOM     20  C   UNL     1       4.995   5.463  18.453  0.00  0.00    +0.000 C 
BRANCH  20  24
ATOM     21  C   UNL     1       6.356   4.289  14.508  0.00  0.00    +0.000 A 
ATOM     22  C   UNL     1       5.180   3.716  15.011  0.00  0.00    +0.000 A 
ATOM     23  C   UNL     1       4.721   4.004  16.316  0.00  0.00    +0.000 A 
ATOM     24  C   UNL     1       5.466   4.857  17.149  0.00  0.00    +0.000 A 
ATOM     25  C   UNL     1       6.680   5.353  16.645  0.00  0.00    +0.000 A 
ATOM     26  C   UNL     1       7.140   5.062  15.355  0.00  0.00    +0.000 A 
BRANCH  21  27
ATOM     27  O   UNL     1       6.631   4.081  13.179  0.00  0.00    +0.000 OA
BRANCH  27  29
ATOM     28  C   UNL     1       6.114   2.256  11.664  0.00  0.00    +0.000 C 
ATOM     29  C   UNL     1       5.584   3.468  12.411  0.00  0.00    +0.000 C 
ENDBRANCH  27  29
ENDBRANCH  21  27
ENDBRANCH  20  24
ENDBRANCH   1  20
BRANCH   9  30
ATOM     30  C   UNL     1       2.470   5.399  20.656  0.00  0.00    +0.000 C 
BRANCH  30  31
ATOM     31  C   UNL     1       1.350   4.344  20.508  0.00  0.00    +0.000 C 
BRANCH  31  32
ATOM     32  N   UNL     1       1.898   3.015  20.083  0.00  0.00    +0.000 NA
BRANCH  32  33
ATOM     33  C   UNL     1       2.081   2.874  18.624  0.00  0.00    +0.000 C 
ATOM     34  C   UNL     1       1.222   3.778  17.747  0.00  0.00    +0.000 C 
ENDBRANCH  32  33
BRANCH  32  35
ATOM     35  C   UNL     1       3.107   2.644  20.841  0.00  0.00    +0.000 C 
ATOM     36  C   UNL     1       4.324   2.267  19.971  0.00  0.00    +0.000 C 
ENDBRANCH  32  35
ENDBRANCH  31  32
ENDBRANCH  30  31
ENDBRANCH   9  30
TORSDOF 11
ENDMDL
MODEL 2
REMARK VINA RESULT:      -7.6      0.887      1.078
REMARK  Name = 
REMARK  14 active torsions:
REMARK  status: ('A' for Active; 'I' for Inactive)
REMARK    1  A    between atoms: C_1  and  C_2
REMARK    2  A    between atoms: C_2  and  O_3
REMARK    3  A    between atoms: O_3  and  C_4
REMARK    4  A    between atoms: C_7  and  C_8
REMARK    5  A    between atoms: C_8  and  C_9
REMARK    6  A    between atoms: C_14  and  N_15
REMARK    7  A    between atoms: C_16  and  C_18
REMARK    8  A    between atoms: N_25  and  C_26
REMARK    9  A    between atoms: C_26  and  C_27
REMARK   10  A    between atoms: C_27  and  N_28
REMARK   11  A    between atoms: N_28  and  C_29
REMARK   12  A    between atoms: N_28  and  C_31
REMARK   13  A    between atoms: C_29  and  C_30
REMARK   14  A    between atoms: C_31  and  C_32
REMARK                            x       y       z     vdW  Elec       q    Type
REMARK                         _______ _______ _______ _____ _____    ______ ____
ROOT
ATOM      1  C   UNL     1       3.249   6.754  18.487  0.00  0.00    +0.000 A 
ATOM      2  N   UNL     1       2.924   7.783  17.718  0.00  0.00    +0.000 NA
ATOM      3  C   UNL     1       2.118   8.596  18.464  0.00  0.00    +0.000 A 
ATOM      4  C   UNL     1       1.557   9.833  18.134  0.00  0.00    +0.000 A 
ATOM      5  C   UNL     1       0.748  10.481  19.079  0.00  0.00    +0.000 A 
ATOM      6  C   UNL     1       0.489   9.949  20.357  0.00  0.00    +0.000 A 
ATOM      7  C   UNL     1       1.094   8.725  20.702  0.00  0.00    +0.000 A 
ATOM      8  C   UNL     1       1.883   8.056  19.718  0.00  0.00    +0.000 A 
ATOM      9  N   UNL     1       2.516   6.802  19.664  0.00  0.00    +0.000 N 
ENDROOT
BRANCH   6  10
ATOM     10  N   UNL     1      -0.351  10.727  21.184  0.00  0.00    +0.000 N 
ATOM     11  C   UNL     1      -0.275  11.967  21.785  0.00  0.00    +0.000 C 
ATOM     12  N   UNL     1       0.720  12.786  21.654  0.00  0.00    +0.000 NA
ATOM     13  H   UNL     1      -1.263  10.297  21.306  0.00  0.00    +0.000 HD
ATOM     14  H   UNL     1       1.397  12.372  21.017  0.00  0.00    +0.000 HD
BRANCH  11  15
ATOM     15  C   UNL     1      -1.407  12.482  22.584  0.00  0.00    +0.000 A 
ATOM     16  C   UNL     1      -2.593  11.857  22.933  0.00  0.00    +0.000 A 
ATOM     17  C   UNL     1      -3.417  12.656  23.783  0.00  0.00    +0.000 A 
ATOM     18  C   UNL     1      -2.842  13.878  24.053  0.00  0.00    +0.000 A 
ATOM     19  S   UNL     1      -1.328  14.055  23.281  0.00  0.00    +0.000 S 
ENDBRANCH  11  15
ENDBRANCH   6  10
BRANCH   1  20
ATOM     20  C   UNL     1       4.484   5.934  18.226  0.00  0.00    +0.000 C 
BRANCH  20  24
ATOM     21  C   UNL     1       5.926   4.183  14.531  0.00  0.00    +0.000 A 
ATOM     22  C   UNL     1       5.700   5.566  14.576  0.00  0.00    +0.000 A 
ATOM     23  C   UNL     1       5.165   6.186  15.727  0.00  0.00    +0.000 A 
ATOM     24  C   UNL     1       4.819   5.410  16.847  0.00  0.00    +0.000 A 
ATOM     25  C   UNL     1       4.984   4.018  16.743  0.00  0.00    +0.000 A 
ATOM     26  C   UNL     1       5.507   3.401  15.599  0.00  0.00    +0.000 A 
BRANCH  21  27
ATOM     27  O   UNL     1       6.600   3.697  13.438  0.00  0.00    +0.000 OA
BRANCH  27  29
ATOM     28  C   UNL     1       6.443   2.170  11.556  0.00  0.00    +0.000 C 
ATOM     29  C   UNL     1       5.784   3.304  12.323  0.00  0.00    +0.000 C 
ENDBRANCH  27  29
ENDBRANCH  21  27
ENDBRANCH  20  24
ENDBRANCH   1  20
BRANCH   9  30
ATOM     30  C   UNL     1       2.200   5.807  20.675  0.00  0.00    +0.000 C 
BRANCH  30  31
ATOM     31  C   UNL     1       1.135   4.695  20.537  0.00  0.00    +0.000 C 
BRANCH  31  32
ATOM     32  N   UNL     1       1.737   3.413  20.047  0.00  0.00    +0.000 NA
BRANCH  32  33
ATOM     33  C   UNL     1       1.204   2.949  18.750  0.00  0.00    +0.000 C 
ATOM     34  C   UNL     1       1.468   3.854  17.552  0.00  0.00    +0.000 C 
ENDBRANCH  32  33
BRANCH  32  35
ATOM     35  C   UNL     1       3.212   3.447  20.070  0.00  0.00    +0.000 C 
ATOM     36  C   UNL     1       3.893   2.083  19.833  0.00  0.00    +0.000 C 
ENDBRANCH  32  35
ENDBRANCH  31  32
ENDBRANCH  30  31
ENDBRANCH   9  30
TORSDOF 11
ENDMDL
MODEL 3
REMARK VINA RESULT:      -7.5      1.087      1.642
REMARK  Name = 
REMARK  14 active torsions:
REMARK  status: ('A' for Active; 'I' for Inactive)
REMARK    1  A    between atoms: C_1  and  C_2
REMARK    2  A    between atoms: C_2  and  O_3
REMARK    3  A    between atoms: O_3  and  C_4
REMARK    4  A    between atoms: C_7  and  C_8
REMARK    5  A    between atoms: C_8  and  C_9
REMARK    6  A    between atoms: C_14  and  N_15
REMARK    7  A    between atoms: C_16  and  C_18
REMARK    8  A    between atoms: N_25  and  C_26
REMARK    9  A    between atoms: C_26  and  C_27
REMARK   10  A    between atoms: C_27  and  N_28
REMARK   11  A    between atoms: N_28  and  C_29
REMARK   12  A    between atoms: N_28  and  C_31
REMARK   13  A    between atoms: C_29  and  C_30
REMARK   14  A    between atoms: C_31  and  C_32
REMARK                            x       y       z     vdW  Elec       q    Type
REMARK                         _______ _______ _______ _____ _____    ______ ____
ROOT
ATOM      1  C   UNL     1       3.091   6.915  18.478  0.00  0.00    +0.000 A 
ATOM      2  N   UNL     1       2.870   7.923  17.646  0.00  0.00    +0.000 NA
ATOM      3  C   UNL     1       2.069   8.813  18.306  0.00  0.00    +0.000 A 
ATOM      4  C   UNL     1       1.599  10.061  17.891  0.00  0.00    +0.000 A 
ATOM      5  C   UNL     1       0.774  10.795  18.755  0.00  0.00    +0.000 A 
ATOM      6  C   UNL     1       0.410  10.337  20.037  0.00  0.00    +0.000 A 
ATOM      7  C   UNL     1       0.924   9.099  20.470  0.00  0.00    +0.000 A 
ATOM      8  C   UNL     1       1.730   8.344  19.565  0.00  0.00    +0.000 A 
ATOM      9  N   UNL     1       2.294   7.057  19.604  0.00  0.00    +0.000 N 
ENDROOT
BRANCH   6  10
ATOM     10  N   UNL     1      -0.432  11.196  20.777  0.00  0.00    +0.000 N 
ATOM     11  C   UNL     1      -0.762  11.353  22.107  0.00  0.00    +0.000 C 
ATOM     12  N   UNL     1      -0.257  10.657  23.076  0.00  0.00    +0.000 NA
ATOM     13  H   UNL     1      -0.838  11.921  20.193  0.00  0.00    +0.000 HD
ATOM     14  H   UNL     1       0.433  10.017  22.687  0.00  0.00    +0.000 HD
BRANCH  11  15
ATOM     15  C   UNL     1      -1.693  12.422  22.526  0.00  0.00    +0.000 A 
ATOM     16  C   UNL     1      -1.567  13.345  23.553  0.00  0.00    +0.000 A 
ATOM     17  C   UNL     1      -2.649  14.275  23.603  0.00  0.00    +0.000 A 
ATOM     18  C   UNL     1      -3.581  14.033  22.619  0.00  0.00    +0.000 A 
ATOM     19  S   UNL     1      -3.152  12.691  21.652  0.00  0.00    +0.000 S 
ENDBRANCH  11  15
ENDBRANCH   6  10
BRANCH   1  20
ATOM     20  C   UNL     1       4.291   6.019  18.328  0.00  0.00    +0.000 C 
BRANCH  20  24
ATOM     21  C   UNL     1       5.995   4.231  14.765  0.00  0.00    +0.000 A 
ATOM     22  C   UNL     1       5.820   5.621  14.801  0.00  0.00    +0.000 A 
ATOM     23  C   UNL     1       5.207   6.256  15.904  0.00  0.00    +0.000 A 
ATOM     24  C   UNL     1       4.730   5.489  16.980  0.00  0.00    +0.000 A 
ATOM     25  C   UNL     1       4.849   4.093  16.880  0.00  0.00    +0.000 A 
ATOM     26  C   UNL     1       5.449   3.460  15.783  0.00  0.00    +0.000 A 
BRANCH  21  27
ATOM     27  O   UNL     1       6.746   3.724  13.733  0.00  0.00    +0.000 OA
BRANCH  27  29
ATOM     28  C   UNL     1       5.512   2.653  11.938  0.00  0.00    +0.000 C 
ATOM     29  C   UNL     1       6.210   3.915  12.415  0.00  0.00    +0.000 C 
ENDBRANCH  27  29
ENDBRANCH  21  27
ENDBRANCH  20  24
ENDBRANCH   1  20
BRANCH   9  30
ATOM     30  C   UNL     1       1.863   6.129  20.636  0.00  0.00    +0.000 C 
BRANCH  30  31
ATOM     31  C   UNL     1       1.144   4.783  20.388  0.00  0.00    +0.000 C 
BRANCH  31  32
ATOM     32  N   UNL     1       2.050   3.786  19.732  0.00  0.00    +0.000 NA
BRANCH  32  33
ATOM     33  C   UNL     1       2.485   2.688  20.619  0.00  0.00    +0.000 C 
ATOM     34  C   UNL     1       1.697   2.515  21.912  0.00  0.00    +0.000 C 
ENDBRANCH  32  33
BRANCH  32  35
ATOM     35  C   UNL     1       1.502   3.294  18.453  0.00  0.00    +0.000 C 
ATOM     36  C   UNL     1       2.253   2.088  17.851  0.00  0.00    +0.000 C 
ENDBRANCH  32  35
ENDBRANCH  31  32
ENDBRANCH  30  31
ENDBRANCH   9  30
TORSDOF 11
ENDMDL
MODEL 4
REMARK VINA RESULT:      -7.3      0.570      1.324
REMARK  Name = 
REMARK  14 active torsions:
REMARK  status: ('A' for Active; 'I' for Inactive)
REMARK    1  A    between atoms: C_1  and  C_2
REMARK    2  A    between atoms: C_2  and  O_3
REMARK    3  A    between atoms: O_3  and  C_4
REMARK    4  A    between atoms: C_7  and  C_8
REMARK    5  A    between atoms: C_8  and  C_9
REMARK    6  A    between atoms: C_14  and  N_15
REMARK    7  A    between atoms: C_16  and  C_18
REMARK    8  A    between atoms: N_25  and  C_26
REMARK    9  A    between atoms: C_26  and  C_27
REMARK   10  A    between atoms: C_27  and  N_28
REMARK   11  A    between atoms: N_28  and  C_29
REMARK   12  A    between atoms: N_28  and  C_31
REMARK   13  A    between atoms: C_29  and  C_30
REMARK   14  A    between atoms: C_31  and  C_32
REMARK                            x       y       z     vdW  Elec       q    Type
REMARK                         _______ _______ _______ _____ _____    ______ ____
ROOT
ATOM      1  C   UNL     1       3.681   6.171  18.788  0.00  0.00    +0.000 A 
ATOM      2  N   UNL     1       3.366   7.103  17.900  0.00  0.00    +0.000 NA
ATOM      3  C   UNL     1       2.462   7.934  18.501  0.00  0.00    +0.000 A 
ATOM      4  C   UNL     1       1.867   9.100  18.013  0.00  0.00    +0.000 A 
ATOM      5  C   UNL     1       0.953   9.784  18.827  0.00  0.00    +0.000 A 
ATOM      6  C   UNL     1       0.620   9.359  20.128  0.00  0.00    +0.000 A 
ATOM      7  C   UNL     1       1.258   8.209  20.634  0.00  0.00    +0.000 A 
ATOM      8  C   UNL     1       2.156   7.499  19.781  0.00  0.00    +0.000 A 
ATOM      9  N   UNL     1       2.855   6.285  19.896  0.00  0.00    +0.000 N 
ENDROOT
BRANCH   6  10
ATOM     10  N   UNL     1      -0.322  10.159  20.810  0.00  0.00    +0.000 N 
ATOM     11  C   UNL     1      -0.431  11.495  21.140  0.00  0.00    +0.000 C 
ATOM     12  N   UNL     1       0.424  12.407  20.802  0.00  0.00    +0.000 NA
ATOM     13  H   UNL     1      -1.156   9.635  21.056  0.00  0.00    +0.000 HD
ATOM     14  H   UNL     1       1.152  11.973  20.237  0.00  0.00    +0.000 HD
BRANCH  11  15
ATOM     15  C   UNL     1      -1.622  11.993  21.861  0.00  0.00    +0.000 A 
ATOM     16  C   UNL     1      -2.070  11.684  23.136  0.00  0.00    +0.000 A 
ATOM     17  C   UNL     1      -3.229  12.428  23.515  0.00  0.00    +0.000 A 
ATOM     18  C   UNL     1      -3.643  13.280  22.515  0.00  0.00    +0.000 A 
ATOM     19  S   UNL     1      -2.644  13.173  21.133  0.00  0.00    +0.000 S 
ENDBRANCH  11  15
ENDBRANCH   6  10
BRANCH   1  20
ATOM     20  C   UNL     1       4.973   5.404  18.700  0.00  0.00    +0.000 C 
BRANCH  20  24
ATOM     21  C   UNL     1       6.427   4.526  14.711  0.00  0.00    +0.000 A 
ATOM     22  C   UNL     1       5.406   3.728  15.245  0.00  0.00    +0.000 A 
ATOM     23  C   UNL     1       4.938   3.919  16.564  0.00  0.00    +0.000 A 
ATOM     24  C   UNL     1       5.519   4.905  17.380  0.00  0.00    +0.000 A 
ATOM     25  C   UNL     1       6.591   5.636  16.843  0.00  0.00    +0.000 A 
ATOM     26  C   UNL     1       7.062   5.443  15.538  0.00  0.00    +0.000 A 
BRANCH  21  27
ATOM     27  O   UNL     1       6.698   4.378  13.373  0.00  0.00    +0.000 OA
BRANCH  27  29
ATOM     28  C   UNL     1       4.981   3.563  11.862  0.00  0.00    +0.000 C 
ATOM     29  C   UNL     1       6.159   3.201  12.752  0.00  0.00    +0.000 C 
ENDBRANCH  27  29
ENDBRANCH  21  27
ENDBRANCH  20  24
ENDBRANCH   1  20
BRANCH   9  30
ATOM     30  C   UNL     1       2.510   5.372  20.973  0.00  0.00    +0.000 C 
BRANCH  30  31
ATOM     31  C   UNL     1       2.122   3.886  20.798  0.00  0.00    +0.000 C 
BRANCH  31  32
ATOM     32  N   UNL     1       2.415   3.398  19.412  0.00  0.00    +0.000 NA
BRANCH  32  33
ATOM     33  C   UNL     1       3.215   2.157  19.363  0.00  0.00    +0.000 C 
ATOM     34  C   UNL     1       4.432   2.104  20.278  0.00  0.00    +0.000 C 
ENDBRANCH  32  33
BRANCH  32  35
ATOM     35  C   UNL     1       1.197   3.318  18.583  0.00  0.00    +0.000 C 
ATOM     36  C   UNL     1       1.228   4.182  17.305  0.00  0.00    +0.000 C 
ENDBRANCH  32  35
ENDBRANCH  31  32
ENDBRANCH  30  31
ENDBRANCH   9  30
TORSDOF 11
ENDMDL
MODEL 5
REMARK VINA RESULT:      -7.2      1.038      1.500
REMARK  Name = 
REMARK  14 active torsions:
REMARK  status: ('A' for Active; 'I' for Inactive)
REMARK    1  A    between atoms: C_1  and  C_2
REMARK    2  A    between atoms: C_2  and  O_3
REMARK    3  A    between atoms: O_3  and  C_4
REMARK    4  A    between atoms: C_7  and  C_8
REMARK    5  A    between atoms: C_8  and  C_9
REMARK    6  A    between atoms: C_14  and  N_15
REMARK    7  A    between atoms: C_16  and  C_18
REMARK    8  A    between atoms: N_25  and  C_26
REMARK    9  A    between atoms: C_26  and  C_27
REMARK   10  A    between atoms: C_27  and  N_28
REMARK   11  A    between atoms: N_28  and  C_29
REMARK   12  A    between atoms: N_28  and  C_31
REMARK   13  A    between atoms: C_29  and  C_30
REMARK   14  A    between atoms: C_31  and  C_32
REMARK                            x       y       z     vdW  Elec       q    Type
REMARK                         _______ _______ _______ _____ _____    ______ ____
ROOT
ATOM      1  C   UNL     1       3.299   7.004  18.263  0.00  0.00    +0.000 A 
ATOM      2  N   UNL     1       2.987   8.060  17.525  0.00  0.00    +0.000 NA
ATOM      3  C   UNL     1       2.089   8.796  18.247  0.00  0.00    +0.000 A 
ATOM      4  C   UNL     1       1.498  10.024  17.940  0.00  0.00    +0.000 A 
ATOM      5  C   UNL     1       0.590  10.584  18.850  0.00  0.00    +0.000 A 
ATOM      6  C   UNL     1       0.259   9.971  20.074  0.00  0.00    +0.000 A 
ATOM      7  C   UNL     1       0.893   8.756  20.401  0.00  0.00    +0.000 A 
ATOM      8  C   UNL     1       1.784   8.177  19.448  0.00  0.00    +0.000 A 
ATOM      9  N   UNL     1       2.477   6.956  19.379  0.00  0.00    +0.000 N 
ENDROOT
BRANCH   6  10
ATOM     10  N   UNL     1      -0.677  10.665  20.872  0.00  0.00    +0.000 N 
ATOM     11  C   UNL     1      -0.760  11.924  21.430  0.00  0.00    +0.000 C 
ATOM     12  N   UNL     1       0.125  12.857  21.273  0.00  0.00    +0.000 NA
ATOM     13  H   UNL     1      -1.528  10.129  21.008  0.00  0.00    +0.000 HD
ATOM     14  H   UNL     1       0.853  12.509  20.652  0.00  0.00    +0.000 HD
BRANCH  11  15
ATOM     15  C   UNL     1      -1.952  12.321  22.209  0.00  0.00    +0.000 A 
ATOM     16  C   UNL     1      -2.421  11.822  23.414  0.00  0.00    +0.000 A 
ATOM     17  C   UNL     1      -3.574  12.515  23.894  0.00  0.00    +0.000 A 
ATOM     18  C   UNL     1      -3.963  13.520  23.037  0.00  0.00    +0.000 A 
ATOM     19  S   UNL     1      -2.949  13.617  21.665  0.00  0.00    +0.000 S 
ENDBRANCH  11  15
ENDBRANCH   6  10
BRANCH   1  20
ATOM     20  C   UNL     1       4.587   6.253  18.057  0.00  0.00    +0.000 C 
BRANCH  20  24
ATOM     21  C   UNL     1       5.983   4.046  14.596  0.00  0.00    +0.000 A 
ATOM     22  C   UNL     1       5.859   5.439  14.499  0.00  0.00    +0.000 A 
ATOM     23  C   UNL     1       5.345   6.207  15.568  0.00  0.00    +0.000 A 
ATOM     24  C   UNL     1       4.915   5.572  16.746  0.00  0.00    +0.000 A 
ATOM     25  C   UNL     1       4.979   4.169  16.783  0.00  0.00    +0.000 A 
ATOM     26  C   UNL     1       5.482   3.405  15.722  0.00  0.00    +0.000 A 
BRANCH  21  27
ATOM     27  O   UNL     1       6.645   3.407  13.576  0.00  0.00    +0.000 OA
BRANCH  27  29
ATOM     28  C   UNL     1       5.070   3.081  11.757  0.00  0.00    +0.000 C 
ATOM     29  C   UNL     1       6.300   3.827  12.247  0.00  0.00    +0.000 C 
ENDBRANCH  27  29
ENDBRANCH  21  27
ENDBRANCH  20  24
ENDBRANCH   1  20
BRANCH   9  30
ATOM     30  C   UNL     1       2.131   5.894  20.308  0.00  0.00    +0.000 C 
BRANCH  30  31
ATOM     31  C   UNL     1       2.885   4.553  20.459  0.00  0.00    +0.000 C 
BRANCH  31  32
ATOM     32  N   UNL     1       2.272   3.477  19.613  0.00  0.00    +0.000 NA
BRANCH  32  33
ATOM     33  C   UNL     1       3.226   2.446  19.158  0.00  0.00    +0.000 C 
ATOM     34  C   UNL     1       4.437   2.207  20.054  0.00  0.00    +0.000 C 
ENDBRANCH  32  33
BRANCH  32  35
ATOM     35  C   UNL     1       1.070   2.895  20.241  0.00  0.00    +0.000 C 
ATOM     36  C   UNL     1       1.175   2.690  21.767  0.00  0.00    +0.000 C 
ENDBRANCH  32  35
ENDBRANCH  31  32
ENDBRANCH  30  31
ENDBRANCH   9  30
TORSDOF 11
ENDMDL
MODEL 6
REMARK VINA RESULT:      -7.1      1.339      1.954
REMARK  Name = 
REMARK  14 active torsions:
REMARK  status: ('A' for Active; 'I' for Inactive)
REMARK    1  A    between atoms: C_1  and  C_2
REMARK    2  A    between atoms: C_2  and  O_3
REMARK    3  A    between atoms: O_3  and  C_4
REMARK    4  A    between atoms: C_7  and  C_8
REMARK    5  A    between atoms: C_8  and  C_9
REMARK    6  A    between atoms: C_14  and  N_15
REMARK    7  A    between atoms: C_16  and  C_18
REMARK    8  A    between atoms: N_25  and  C_26
REMARK    9  A    between atoms: C_26  and  C_27
REMARK   10  A    between atoms: C_27  and  N_28
REMARK   11  A    between atoms: N_28  and  C_29
REMARK   12  A    between atoms: N_28  and  C_31
REMARK   13  A    between atoms: C_29  and  C_30
REMARK   14  A    between atoms: C_31  and  C_32
REMARK                            x       y       z     vdW  Elec       q    Type
REMARK                         _______ _______ _______ _____ _____    ______ ____
ROOT
ATOM      1  C   UNL     1       2.886   6.908  18.652  0.00  0.00    +0.000 A 
ATOM      2  N   UNL     1       2.781   7.987  17.889  0.00  0.00    +0.000 NA
ATOM      3  C   UNL     1       2.051   8.901  18.595  0.00  0.00    +0.000 A 
ATOM      4  C   UNL     1       1.710  10.214  18.259  0.00  0.00    +0.000 A 
ATOM      5  C   UNL     1       0.937  10.963  19.159  0.00  0.00    +0.000 A 
ATOM      6  C   UNL     1       0.502  10.456  20.398  0.00  0.00    +0.000 A 
ATOM      7  C   UNL     1       0.886   9.148  20.753  0.00  0.00    +0.000 A 
ATOM      8  C   UNL     1       1.640   8.383  19.812  0.00  0.00    +0.000 A 
ATOM      9  N   UNL     1       2.079   7.048  19.771  0.00  0.00    +0.000 N 
ENDROOT
BRANCH   6  10
ATOM     10  N   UNL     1      -0.274  11.339  21.181  0.00  0.00    +0.000 N 
ATOM     11  C   UNL     1      -0.742  11.359  22.479  0.00  0.00    +0.000 C 
ATOM     12  N   UNL     1      -0.489  10.449  23.365  0.00  0.00    +0.000 NA
ATOM     13  H   UNL     1      -0.475  12.204  20.688  0.00  0.00    +0.000 HD
ATOM     14  H   UNL     1       0.128   9.755  22.947  0.00  0.00    +0.000 HD
BRANCH  11  15
ATOM     15  C   UNL     1      -1.527  12.510  22.974  0.00  0.00    +0.000 A 
ATOM     16  C   UNL     1      -1.177  13.849  23.042  0.00  0.00    +0.000 A 
ATOM     17  C   UNL     1      -2.239  14.680  23.515  0.00  0.00    +0.000 A 
ATOM     18  C   UNL     1      -3.370  13.952  23.807  0.00  0.00    +0.000 A 
ATOM     19  S   UNL     1      -3.146  12.282  23.518  0.00  0.00    +0.000 S 
ENDBRANCH  11  15
ENDBRANCH   6  10
BRANCH   1  20
ATOM     20  C   UNL     1       3.999   5.913  18.461  0.00  0.00    +0.000 C 
BRANCH  20  24
ATOM     21  C   UNL     1       5.678   4.291  14.808  0.00  0.00    +0.000 A 
ATOM     22  C   UNL     1       5.677   5.681  14.986  0.00  0.00    +0.000 A 
ATOM     23  C   UNL     1       5.082   6.275  16.122  0.00  0.00    +0.000 A 
ATOM     24  C   UNL     1       4.449   5.471  17.085  0.00  0.00    +0.000 A 
ATOM     25  C   UNL     1       4.399   4.088  16.839  0.00  0.00    +0.000 A 
ATOM     26  C   UNL     1       4.981   3.498  15.710  0.00  0.00    +0.000 A 
BRANCH  21  27
ATOM     27  O   UNL     1       6.422   3.798  13.763  0.00  0.00    +0.000 OA
BRANCH  27  29
ATOM     28  C   UNL     1       7.314   4.565  11.640  0.00  0.00    +0.000 C 
ATOM     29  C   UNL     1       7.332   4.725  13.150  0.00  0.00    +0.000 C 
ENDBRANCH  27  29
ENDBRANCH  21  27
ENDBRANCH  20  24
ENDBRANCH   1  20
BRANCH   9  30
ATOM     30  C   UNL     1       1.538   6.097  20.727  0.00  0.00    +0.000 C 
BRANCH  30  31
ATOM     31  C   UNL     1       2.283   4.863  21.284  0.00  0.00    +0.000 C 
BRANCH  31  32
ATOM     32  N   UNL     1       2.291   3.733  20.299  0.00  0.00    +0.000 NA
BRANCH  32  33
ATOM     33  C   UNL     1       3.048   2.546  20.745  0.00  0.00    +0.000 C 
ATOM     34  C   UNL     1       4.388   2.305  20.060  0.00  0.00    +0.000 C 
ENDBRANCH  32  33
BRANCH  32  35
ATOM     35  C   UNL     1       0.934   3.393  19.832  0.00  0.00    +0.000 C 
ATOM     36  C   UNL     1       0.883   2.327  18.717  0.00  0.00    +0.000 C 
ENDBRANCH  32  35
ENDBRANCH  31  32
ENDBRANCH  30  31
ENDBRANCH   9  30
TORSDOF 11
ENDMDL
MODEL 7
REMARK VINA RESULT:      -7.0      0.953      1.607
REMARK  Name = 
REMARK  14 active torsions:
REMARK  status: ('A' for Active; 'I' for Inactive)
REMARK    1  A    between atoms: C_1  and  C_2
REMARK    2  A    between atoms: C_2  and  O_3
REMARK    3  A    between atoms: O_3  and  C_4
REMARK    4  A    between atoms: C_7  and  C_8
REMARK    5  A    between atoms: C_8  and  C_9
REMARK    6  A    between atoms: C_14  and  N_15
REMARK    7  A    between atoms: C_16  and  C_18
REMARK    8  A    between atoms: N_25  and  C_26
REMARK    9  A    between atoms: C_26  and  C_27
REMARK   10  A    between atoms: C_27  and  N_28
REMARK   11  A    between atoms: N_28  and  C_29
REMARK   12  A    between atoms: N_28  and  C_31
REMARK   13  A    between atoms: C_29  and  C_30
REMARK   14  A    between atoms: C_31  and  C_32
REMARK                            x       y       z     vdW  Elec       q    Type
REMARK                         _______ _______ _______ _____ _____    ______ ____
ROOT
ATOM      1  C   UNL     1       3.320   6.619  18.855  0.00  0.00    +0.000 A 
ATOM      2  N   UNL     1       3.193   7.634  18.012  0.00  0.00    +0.000 NA
ATOM      3  C   UNL     1       2.268   8.483  18.552  0.00  0.00    +0.000 A 
ATOM      4  C   UNL     1       1.822   9.722  18.085  0.00  0.00    +0.000 A 
ATOM      5  C   UNL     1       0.848  10.412  18.821  0.00  0.00    +0.000 A 
ATOM      6  C   UNL     1       0.309   9.918  20.025  0.00  0.00    +0.000 A 
ATOM      7  C   UNL     1       0.795   8.691  20.517  0.00  0.00    +0.000 A 
ATOM      8  C   UNL     1       1.758   7.980  19.738  0.00  0.00    +0.000 A 
ATOM      9  N   UNL     1       2.355   6.713  19.847  0.00  0.00    +0.000 N 
ENDROOT
BRANCH   6  10
ATOM     10  N   UNL     1      -0.668  10.735  20.637  0.00  0.00    +0.000 N 
ATOM     11  C   UNL     1      -0.947  11.148  21.924  0.00  0.00    +0.000 C 
ATOM     12  N   UNL     1      -0.236  10.844  22.963  0.00  0.00    +0.000 NA
ATOM     13  H   UNL     1      -1.268  11.184  19.952  0.00  0.00    +0.000 HD
ATOM     14  H   UNL     1       0.562  10.290  22.657  0.00  0.00    +0.000 HD
BRANCH  11  15
ATOM     15  C   UNL     1      -2.078  12.062  22.188  0.00  0.00    +0.000 A 
ATOM     16  C   UNL     1      -2.810  12.242  23.350  0.00  0.00    +0.000 A 
ATOM     17  C   UNL     1      -3.787  13.278  23.240  0.00  0.00    +0.000 A 
ATOM     18  C   UNL     1      -3.784  13.856  21.991  0.00  0.00    +0.000 A 
ATOM     19  S   UNL     1      -2.617  13.148  20.963  0.00  0.00    +0.000 S 
ENDBRANCH  11  15
ENDBRANCH   6  10
BRANCH   1  20
ATOM     20  C   UNL     1       4.561   5.767  18.881  0.00  0.00    +0.000 C 
BRANCH  20  24
ATOM     21  C   UNL     1       6.476   4.811  15.110  0.00  0.00    +0.000 A 
ATOM     22  C   UNL     1       7.098   4.409  16.300  0.00  0.00    +0.000 A 
ATOM     23  C   UNL     1       6.560   4.750  17.562  0.00  0.00    +0.000 A 
ATOM     24  C   UNL     1       5.397   5.534  17.641  0.00  0.00    +0.000 A 
ATOM     25  C   UNL     1       4.841   5.988  16.433  0.00  0.00    +0.000 A 
ATOM     26  C   UNL     1       5.377   5.657  15.181  0.00  0.00    +0.000 A 
BRANCH  21  27
ATOM     27  O   UNL     1       6.976   4.294  13.941  0.00  0.00    +0.000 OA
BRANCH  27  29
ATOM     28  C   UNL     1       6.700   3.140  11.822  0.00  0.00    +0.000 C 
ATOM     29  C   UNL     1       6.014   3.695  13.059  0.00  0.00    +0.000 C 
ENDBRANCH  27  29
ENDBRANCH  21  27
ENDBRANCH  20  24
ENDBRANCH   1  20
BRANCH   9  30
ATOM     30  C   UNL     1       1.805   5.752  20.787  0.00  0.00    +0.000 C 
BRANCH  30  31
ATOM     31  C   UNL     1       2.306   4.303  20.985  0.00  0.00    +0.000 C 
BRANCH  31  32
ATOM     32  N   UNL     1       2.435   3.580  19.678  0.00  0.00    +0.000 NA
BRANCH  32  33
ATOM     33  C   UNL     1       3.047   2.240  19.784  0.00  0.00    +0.000 C 
ATOM     34  C   UNL     1       4.522   2.202  20.167  0.00  0.00    +0.000 C 
ENDBRANCH  32  33
BRANCH  32  35
ATOM     35  C   UNL     1       1.166   3.562  18.926  0.00  0.00    +0.000 C 
ATOM     36  C   UNL     1       1.272   4.059  17.469  0.00  0.00    +0.000 C 
ENDBRANCH  32  35
ENDBRANCH  31  32
ENDBRANCH  30  31
ENDBRANCH   9  30
TORSDOF 11
ENDMDL
MODEL 8
REMARK VINA RESULT:      -7.0      0.878      1.033
REMARK  Name = 
REMARK  14 active torsions:
REMARK  status: ('A' for Active; 'I' for Inactive)
REMARK    1  A    between atoms: C_1  and  C_2
REMARK    2  A    between atoms: C_2  and  O_3
REMARK    3  A    between atoms: O_3  and  C_4
REMARK    4  A    between atoms: C_7  and  C_8
REMARK    5  A    between atoms: C_8  and  C_9
REMARK    6  A    between atoms: C_14  and  N_15
REMARK    7  A    between atoms: C_16  and  C_18
REMARK    8  A    between atoms: N_25  and  C_26
REMARK    9  A    between atoms: C_26  and  C_27
REMARK   10  A    between atoms: C_27  and  N_28
REMARK   11  A    between atoms: N_28  and  C_29
REMARK   12  A    between atoms: N_28  and  C_31
REMARK   13  A    between atoms: C_29  and  C_30
REMARK   14  A    between atoms: C_31  and  C_32
REMARK                            x       y       z     vdW  Elec       q    Type
REMARK                         _______ _______ _______ _____ _____    ______ ____
ROOT
ATOM      1  C   UNL     1       3.443   6.388  18.660  0.00  0.00    +0.000 A 
ATOM      2  N   UNL     1       3.294   7.397  17.815  0.00  0.00    +0.000 NA
ATOM      3  C   UNL     1       2.387   8.252  18.375  0.00  0.00    +0.000 A 
ATOM      4  C   UNL     1       1.931   9.489  17.912  0.00  0.00    +0.000 A 
ATOM      5  C   UNL     1       0.980  10.186  18.672  0.00  0.00    +0.000 A 
ATOM      6  C   UNL     1       0.475   9.703  19.895  0.00  0.00    +0.000 A 
ATOM      7  C   UNL     1       0.973   8.478  20.381  0.00  0.00    +0.000 A 
ATOM      8  C   UNL     1       1.910   7.759  19.579  0.00  0.00    +0.000 A 
ATOM      9  N   UNL     1       2.508   6.491  19.679  0.00  0.00    +0.000 N 
ENDROOT
BRANCH   6  10
ATOM     10  N   UNL     1      -0.481  10.526  20.530  0.00  0.00    +0.000 N 
ATOM     11  C   UNL     1      -0.732  11.881  20.595  0.00  0.00    +0.000 C 
ATOM     12  N   UNL     1      -0.053  12.785  19.963  0.00  0.00    +0.000 NA
ATOM     13  H   UNL     1      -1.201   9.980  20.992  0.00  0.00    +0.000 HD
ATOM     14  H   UNL     1       0.655  12.320  19.398  0.00  0.00    +0.000 HD
BRANCH  11  15
ATOM     15  C   UNL     1      -1.886  12.392  21.364  0.00  0.00    +0.000 A 
ATOM     16  C   UNL     1      -2.944  13.182  20.941  0.00  0.00    +0.000 A 
ATOM     17  C   UNL     1      -3.913  13.412  21.965  0.00  0.00    +0.000 A 
ATOM     18  C   UNL     1      -3.566  12.799  23.148  0.00  0.00    +0.000 A 
ATOM     19  S   UNL     1      -2.081  11.963  23.021  0.00  0.00    +0.000 S 
ENDBRANCH  11  15
ENDBRANCH   6  10
BRANCH   1  20
ATOM     20  C   UNL     1       4.682   5.533  18.656  0.00  0.00    +0.000 C 
BRANCH  20  24
ATOM     21  C   UNL     1       6.332   4.576  14.762  0.00  0.00    +0.000 A 
ATOM     22  C   UNL     1       5.253   3.819  15.238  0.00  0.00    +0.000 A 
ATOM     23  C   UNL     1       4.716   4.036  16.527  0.00  0.00    +0.000 A 
ATOM     24  C   UNL     1       5.285   5.005  17.372  0.00  0.00    +0.000 A 
ATOM     25  C   UNL     1       6.413   5.693  16.895  0.00  0.00    +0.000 A 
ATOM     26  C   UNL     1       6.952   5.474  15.621  0.00  0.00    +0.000 A 
BRANCH  21  27
ATOM     27  O   UNL     1       6.676   4.409  13.443  0.00  0.00    +0.000 OA
BRANCH  27  29
ATOM     28  C   UNL     1       5.036   3.516  11.891  0.00  0.00    +0.000 C 
ATOM     29  C   UNL     1       6.198   3.207  12.819  0.00  0.00    +0.000 C 
ENDBRANCH  27  29
ENDBRANCH  21  27
ENDBRANCH  20  24
ENDBRANCH   1  20
BRANCH   9  30
ATOM     30  C   UNL     1       1.984   5.538  20.643  0.00  0.00    +0.000 C 
BRANCH  30  31
ATOM     31  C   UNL     1       2.731   4.291  21.169  0.00  0.00    +0.000 C 
BRANCH  31  32
ATOM     32  N   UNL     1       2.287   3.044  20.466  0.00  0.00    +0.000 NA
BRANCH  32  33
ATOM     33  C   UNL     1       0.983   3.165  19.783  0.00  0.00    +0.000 C 
ATOM     34  C   UNL     1       1.017   3.153  18.259  0.00  0.00    +0.000 C 
ENDBRANCH  32  33
BRANCH  32  35
ATOM     35  C   UNL     1       3.336   2.500  19.585  0.00  0.00    +0.000 C 
ATOM     36  C   UNL     1       4.604   2.011  20.316  0.00  0.00    +0.000 C 
ENDBRANCH  32  35
ENDBRANCH  31  32
ENDBRANCH  30  31
ENDBRANCH   9  30
TORSDOF 11
ENDMDL
MODEL 9
REMARK VINA RESULT:      -7.0      1.223      1.589
REMARK  Name = 
REMARK  14 active torsions:
REMARK  status: ('A' for Active; 'I' for Inactive)
REMARK    1  A    between atoms: C_1  and  C_2
REMARK    2  A    between atoms: C_2  and  O_3
REMARK    3  A    between atoms: O_3  and  C_4
REMARK    4  A    between atoms: C_7  and  C_8
REMARK    5  A    between atoms: C_8  and  C_9
REMARK    6  A    between atoms: C_14  and  N_15
REMARK    7  A    between atoms: C_16  and  C_18
REMARK    8  A    between atoms: N_25  and  C_26
REMARK    9  A    between atoms: C_26  and  C_27
REMARK   10  A    between atoms: C_27  and  N_28
REMARK   11  A    between atoms: N_28  and  C_29
REMARK   12  A    between atoms: N_28  and  C_31
REMARK   13  A    between atoms: C_29  and  C_30
REMARK   14  A    between atoms: C_31  and  C_32
REMARK                            x       y       z     vdW  Elec       q    Type
REMARK                         _______ _______ _______ _____ _____    ______ ____
ROOT
ATOM      1  C   UNL     1       2.982   6.290  18.633  0.00  0.00    +0.000 A 
ATOM      2  N   UNL     1       2.818   7.326  17.823  0.00  0.00    +0.000 NA
ATOM      3  C   UNL     1       2.141   8.279  18.531  0.00  0.00    +0.000 A 
ATOM      4  C   UNL     1       1.774   9.573  18.152  0.00  0.00    +0.000 A 
ATOM      5  C   UNL     1       1.068  10.370  19.065  0.00  0.00    +0.000 A 
ATOM      6  C   UNL     1       0.727   9.931  20.359  0.00  0.00    +0.000 A 
ATOM      7  C   UNL     1       1.140   8.644  20.754  0.00  0.00    +0.000 A 
ATOM      8  C   UNL     1       1.822   7.827  19.802  0.00  0.00    +0.000 A 
ATOM      9  N   UNL     1       2.260   6.491  19.800  0.00  0.00    +0.000 N 
ENDROOT
BRANCH   6  10
ATOM     10  N   UNL     1       0.010  10.857  21.149  0.00  0.00    +0.000 N 
ATOM     11  C   UNL     1      -0.681  10.812  22.342  0.00  0.00    +0.000 C 
ATOM     12  N   UNL     1      -0.789   9.760  23.089  0.00  0.00    +0.000 NA
ATOM     13  H   UNL     1       0.084  11.801  20.784  0.00  0.00    +0.000 HD
ATOM     14  H   UNL     1      -0.256   9.005  22.662  0.00  0.00    +0.000 HD
BRANCH  11  15
ATOM     15  C   UNL     1      -1.300  12.036  22.895  0.00  0.00    +0.000 A 
ATOM     16  C   UNL     1      -0.783  13.319  22.983  0.00  0.00    +0.000 A 
ATOM     17  C   UNL     1      -1.716  14.260  23.517  0.00  0.00    +0.000 A 
ATOM     18  C   UNL     1      -2.918  13.669  23.834  0.00  0.00    +0.000 A 
ATOM     19  S   UNL     1      -2.914  11.995  23.495  0.00  0.00    +0.000 S 
ENDBRANCH  11  15
ENDBRANCH   6  10
BRANCH   1  20
ATOM     20  C   UNL     1       4.080   5.284  18.413  0.00  0.00    +0.000 C 
BRANCH  20  24
ATOM     21  C   UNL     1       6.871   4.925  15.114  0.00  0.00    +0.000 A 
ATOM     22  C   UNL     1       7.053   5.964  16.037  0.00  0.00    +0.000 A 
ATOM     23  C   UNL     1       6.138   6.176  17.094  0.00  0.00    +0.000 A 
ATOM     24  C   UNL     1       5.003   5.357  17.216  0.00  0.00    +0.000 A 
ATOM     25  C   UNL     1       4.808   4.375  16.230  0.00  0.00    +0.000 A 
ATOM     26  C   UNL     1       5.708   4.168  15.178  0.00  0.00    +0.000 A 
BRANCH  21  27
ATOM     27  O   UNL     1       7.893   4.694  14.227  0.00  0.00    +0.000 OA
BRANCH  27  29
ATOM     28  C   UNL     1       7.148   4.050  12.008  0.00  0.00    +0.000 C 
ATOM     29  C   UNL     1       7.680   5.168  12.889  0.00  0.00    +0.000 C 
ENDBRANCH  27  29
ENDBRANCH  21  27
ENDBRANCH  20  24
ENDBRANCH   1  20
BRANCH   9  30
ATOM     30  C   UNL     1       1.794   5.594  20.843  0.00  0.00    +0.000 C 
BRANCH  30  31
ATOM     31  C   UNL     1       0.880   4.366  20.628  0.00  0.00    +0.000 C 
BRANCH  31  32
ATOM     32  N   UNL     1       1.672   3.094  20.565  0.00  0.00    +0.000 NA
BRANCH  32  33
ATOM     33  C   UNL     1       1.815   2.537  19.205  0.00  0.00    +0.000 C 
ATOM     34  C   UNL     1       0.521   2.166  18.489  0.00  0.00    +0.000 C 
ENDBRANCH  32  33
BRANCH  32  35
ATOM     35  C   UNL     1       2.964   3.210  21.266  0.00  0.00    +0.000 C 
ATOM     36  C   UNL     1       4.104   2.363  20.661  0.00  0.00    +0.000 C 
ENDBRANCH  32  35
ENDBRANCH  31  32
ENDBRANCH  30  31
ENDBRANCH   9  30
TORSDOF 11
ENDMDL
