MODEL 1
REMARK VINA RESULT:      -5.3      0.000      0.000
REMARK  Name = 
REMARK  7 active torsions:
REMARK  status: ('A' for Active; 'I' for Inactive)
REMARK    1  A    between atoms: C_1  and  O_2
REMARK    2  A    between atoms: O_2  and  C_3
REMARK    3  A    between atoms: C_3  and  C_4
REMARK    4  A    between atoms: C_4  and  C_5
REMARK    5  A    between atoms: C_5  and  N_6
REMARK    6  A    between atoms: N_6  and  C_7
REMARK    7  A    between atoms: N_6  and  C_8
REMARK                            x       y       z     vdW  Elec       q    Type
REMARK                         _______ _______ _______ _____ _____    ______ ____
ROOT
ATOM      1  N   UNL     1       4.640   4.510  18.102  0.00  0.00    +0.000 N 
ATOM      2  C   UNL     1       4.415   3.472  17.084  0.00  0.00    +0.000 C 
ENDROOT
BRANCH   1   3
ATOM      3  C   UNL     1       3.678   4.332  19.145  0.00  0.00    +0.000 A 
ATOM      4  N   UNL     1       3.719   3.176  19.862  0.00  0.00    +0.000 NA
ATOM      5  C   UNL     1       2.813   2.977  20.841  0.00  0.00    +0.000 A 
ATOM      6  C   UNL     1       1.818   3.872  21.161  0.00  0.00    +0.000 A 
ATOM      7  C   UNL     1       1.759   5.059  20.438  0.00  0.00    +0.000 A 
ATOM      8  C   UNL     1       2.697   5.304  19.426  0.00  0.00    +0.000 A 
ATOM      9  I   UNL     1       2.586   7.176  18.480  0.00  0.00    +0.000 I 
ENDBRANCH   1   3
BRANCH   1  10
ATOM     10  C   UNL     1       6.014   4.495  18.668  0.00  0.00    +0.000 C 
BRANCH  10  11
ATOM     11  C   UNL     1       7.082   4.645  17.578  0.00  0.00    +0.000 C 
BRANCH  11  12
ATOM     12  C   UNL     1       7.114   6.064  17.015  0.00  0.00    +0.000 C 
BRANCH  12  14
ATOM     13  C   UNL     1       7.022   4.843  14.996  0.00  0.00    +0.000 C 
ATOM     14  O   UNL     1       7.499   6.016  15.642  0.00  0.00    +0.000 OA
ENDBRANCH  12  14
ENDBRANCH  11  12
ENDBRANCH  10  11
ENDBRANCH   1  10
TORSDOF 5
ENDMDL
MODEL 2
REMARK VINA RESULT:      -5.3      3.030      5.431
REMARK  Name = 
REMARK  7 active torsions:
REMARK  status: ('A' for Active; 'I' for Inactive)
REMARK    1  A    between atoms: C_1  and  O_2
REMARK    2  A    between atoms: O_2  and  C_3
REMARK    3  A    between atoms: C_3  and  C_4
REMARK    4  A    between atoms: C_4  and  C_5
REMARK    5  A    between atoms: C_5  and  N_6
REMARK    6  A    between atoms: N_6  and  C_7
REMARK    7  A    between atoms: N_6  and  C_8
REMARK                            x       y       z     vdW  Elec       q    Type
REMARK                         _______ _______ _______ _____ _____    ______ ____
ROOT
ATOM      1  N   UNL     1       3.683   4.931  17.456  0.00  0.00    +0.000 N 
ATOM      2  C   UNL     1       2.983   6.110  17.989  0.00  0.00    +0.000 C 
ENDROOT
BRANCH   1   3
ATOM      3  C   UNL     1       5.065   5.034  17.807  0.00  0.00    +0.000 A 
ATOM      4  N   UNL     1       5.377   5.315  19.101  0.00  0.00    +0.000 NA
ATOM      5  C   UNL     1       6.673   5.432  19.456  0.00  0.00    +0.000 A 
ATOM      6  C   UNL     1       7.724   5.300  18.578  0.00  0.00    +0.000 A 
ATOM      7  C   UNL     1       7.426   5.014  17.249  0.00  0.00    +0.000 A 
ATOM      8  C   UNL     1       6.089   4.869  16.853  0.00  0.00    +0.000 A 
ATOM      9  I   UNL     1       5.761   4.322  14.852  0.00  0.00    +0.000 I 
ENDBRANCH   1   3
BRANCH   1  10
ATOM     10  C   UNL     1       3.127   3.642  17.944  0.00  0.00    +0.000 C 
BRANCH  10  11
ATOM     11  C   UNL     1       1.594   3.657  17.974  0.00  0.00    +0.000 C 
BRANCH  11  12
ATOM     12  C   UNL     1       1.039   2.557  18.875  0.00  0.00    +0.000 C 
BRANCH  12  14
ATOM     13  C   UNL     1       1.381   2.819  21.197  0.00  0.00    +0.000 C 
ATOM     14  O   UNL     1       1.930   2.354  19.971  0.00  0.00    +0.000 OA
ENDBRANCH  12  14
ENDBRANCH  11  12
ENDBRANCH  10  11
ENDBRANCH   1  10
TORSDOF 5
ENDMDL
MODEL 3
REMARK VINA RESULT:      -5.1      2.980      5.339
REMARK  Name = 
REMARK  7 active torsions:
REMARK  status: ('A' for Active; 'I' for Inactive)
REMARK    1  A    between atoms: C_1  and  O_2
REMARK    2  A    between atoms: O_2  and  C_3
REMARK    3  A    between atoms: C_3  and  C_4
REMARK    4  A    between atoms: C_4  and  C_5
REMARK    5  A    between atoms: C_5  and  N_6
REMARK    6  A    between atoms: N_6  and  C_7
REMARK    7  A    between atoms: N_6  and  C_8
REMARK                            x       y       z     vdW  Elec       q    Type
REMARK                         _______ _______ _______ _____ _____    ______ ____
ROOT
ATOM      1  N   UNL     1       4.335   3.638  17.856  0.00  0.00    +0.000 N 
ATOM      2  C   UNL     1       3.193   4.552  17.706  0.00  0.00    +0.000 C 
ENDROOT
BRANCH   1   3
ATOM      3  C   UNL     1       5.517   4.423  18.031  0.00  0.00    +0.000 A 
ATOM      4  N   UNL     1       5.863   4.785  19.296  0.00  0.00    +0.000 NA
ATOM      5  C   UNL     1       6.966   5.538  19.488  0.00  0.00    +0.000 A 
ATOM      6  C   UNL     1       7.773   5.990  18.469  0.00  0.00    +0.000 A 
ATOM      7  C   UNL     1       7.435   5.632  17.168  0.00  0.00    +0.000 A 
ATOM      8  C   UNL     1       6.305   4.835  16.938  0.00  0.00    +0.000 A 
ATOM      9  I   UNL     1       5.958   4.259  14.948  0.00  0.00    +0.000 I 
ENDBRANCH   1   3
BRANCH   1  10
ATOM     10  C   UNL     1       4.185   2.683  18.985  0.00  0.00    +0.000 C 
BRANCH  10  11
ATOM     11  C   UNL     1       2.758   2.683  19.546  0.00  0.00    +0.000 C 
BRANCH  11  12
ATOM     12  C   UNL     1       2.755   2.721  21.072  0.00  0.00    +0.000 C 
BRANCH  12  14
ATOM     13  C   UNL     1       1.076   4.301  20.558  0.00  0.00    +0.000 C 
ATOM     14  O   UNL     1       2.044   3.878  21.510  0.00  0.00    +0.000 OA
ENDBRANCH  12  14
ENDBRANCH  11  12
ENDBRANCH  10  11
ENDBRANCH   1  10
TORSDOF 5
ENDMDL
MODEL 4
REMARK VINA RESULT:      -5.1      2.816      5.443
REMARK  Name = 
REMARK  7 active torsions:
REMARK  status: ('A' for Active; 'I' for Inactive)
REMARK    1  A    between atoms: C_1  and  O_2
REMARK    2  A    between atoms: O_2  and  C_3
REMARK    3  A    between atoms: C_3  and  C_4
REMARK    4  A    between atoms: C_4  and  C_5
REMARK    5  A    between atoms: C_5  and  N_6
REMARK    6  A    between atoms: N_6  and  C_7
REMARK    7  A    between atoms: N_6  and  C_8
REMARK                            x       y       z     vdW  Elec       q    Type
REMARK                         _______ _______ _______ _____ _____    ______ ____
ROOT
ATOM      1  N   UNL     1       3.783   3.962  18.456  0.00  0.00    +0.000 N 
ATOM      2  C   UNL     1       4.790   3.420  19.381  0.00  0.00    +0.000 C 
ENDROOT
BRANCH   1   3
ATOM      3  C   UNL     1       4.462   4.495  17.317  0.00  0.00    +0.000 A 
ATOM      4  N   UNL     1       5.209   3.645  16.561  0.00  0.00    +0.000 NA
ATOM      5  C   UNL     1       5.871   4.126  15.489  0.00  0.00    +0.000 A 
ATOM      6  C   UNL     1       5.858   5.448  15.108  0.00  0.00    +0.000 A 
ATOM      7  C   UNL     1       5.103   6.333  15.869  0.00  0.00    +0.000 A 
ATOM      8  C   UNL     1       4.388   5.861  16.979  0.00  0.00    +0.000 A 
ATOM      9  I   UNL     1       3.189   7.262  17.983  0.00  0.00    +0.000 I 
ENDBRANCH   1   3
BRANCH   1  10
ATOM     10  C   UNL     1       2.775   2.958  18.025  0.00  0.00    +0.000 C 
BRANCH  10  11
ATOM     11  C   UNL     1       1.343   3.485  18.183  0.00  0.00    +0.000 C 
BRANCH  11  12
ATOM     12  C   UNL     1       0.649   2.869  19.395  0.00  0.00    +0.000 C 
BRANCH  12  14
ATOM     13  C   UNL     1       1.584   2.702  21.557  0.00  0.00    +0.000 C 
ATOM     14  O   UNL     1       1.622   2.227  20.218  0.00  0.00    +0.000 OA
ENDBRANCH  12  14
ENDBRANCH  11  12
ENDBRANCH  10  11
ENDBRANCH   1  10
TORSDOF 5
ENDMDL
MODEL 5
REMARK VINA RESULT:      -5.0      2.757      5.166
REMARK  Name = 
REMARK  7 active torsions:
REMARK  status: ('A' for Active; 'I' for Inactive)
REMARK    1  A    between atoms: C_1  and  O_2
REMARK    2  A    between atoms: O_2  and  C_3
REMARK    3  A    between atoms: C_3  and  C_4
REMARK    4  A    between atoms: C_4  and  C_5
REMARK    5  A    between atoms: C_5  and  N_6
REMARK    6  A    between atoms: N_6  and  C_7
REMARK    7  A    between atoms: N_6  and  C_8
REMARK                            x       y       z     vdW  Elec       q    Type
REMARK                         _______ _______ _______ _____ _____    ______ ____
ROOT
ATOM      1  N   UNL     1       4.204   3.796  18.731  0.00  0.00    +0.000 N 
ATOM      2  C   UNL     1       4.764   2.936  19.784  0.00  0.00    +0.000 C 
ENDROOT
BRANCH   1   3
ATOM      3  C   UNL     1       5.239   4.664  18.263  0.00  0.00    +0.000 A 
ATOM      4  N   UNL     1       6.495   4.155  18.142  0.00  0.00    +0.000 NA
ATOM      5  C   UNL     1       7.493   4.957  17.717  0.00  0.00    +0.000 A 
ATOM      6  C   UNL     1       7.329   6.287  17.406  0.00  0.00    +0.000 A 
ATOM      7  C   UNL     1       6.052   6.827  17.525  0.00  0.00    +0.000 A 
ATOM      8  C   UNL     1       4.991   6.015  17.947  0.00  0.00    +0.000 A 
ATOM      9  I   UNL     1       3.088   6.904  17.977  0.00  0.00    +0.000 I 
ENDBRANCH   1   3
BRANCH   1  10
ATOM     10  C   UNL     1       3.622   3.037  17.594  0.00  0.00    +0.000 C 
BRANCH  10  11
ATOM     11  C   UNL     1       2.336   2.304  17.995  0.00  0.00    +0.000 C 
BRANCH  11  12
ATOM     12  C   UNL     1       1.239   3.281  18.408  0.00  0.00    +0.000 C 
BRANCH  12  14
ATOM     13  C   UNL     1       1.231   3.050  20.758  0.00  0.00    +0.000 C 
ATOM     14  O   UNL     1       0.550   2.761  19.544  0.00  0.00    +0.000 OA
ENDBRANCH  12  14
ENDBRANCH  11  12
ENDBRANCH  10  11
ENDBRANCH   1  10
TORSDOF 5
ENDMDL
MODEL 6
REMARK VINA RESULT:      -4.9      1.945      2.410
REMARK  Name = 
REMARK  7 active torsions:
REMARK  status: ('A' for Active; 'I' for Inactive)
REMARK    1  A    between atoms: C_1  and  O_2
REMARK    2  A    between atoms: O_2  and  C_3
REMARK    3  A    between atoms: C_3  and  C_4
REMARK    4  A    between atoms: C_4  and  C_5
REMARK    5  A    between atoms: C_5  and  N_6
REMARK    6  A    between atoms: N_6  and  C_7
REMARK    7  A    between atoms: N_6  and  C_8
REMARK                            x       y       z     vdW  Elec       q    Type
REMARK                         _______ _______ _______ _____ _____    ______ ____
ROOT
ATOM      1  N   UNL     1       5.313   5.195  16.889  0.00  0.00    +0.000 N 
ATOM      2  C   UNL     1       5.178   5.471  15.451  0.00  0.00    +0.000 C 
ENDROOT
BRANCH   1   3
ATOM      3  C   UNL     1       4.121   4.542  17.334  0.00  0.00    +0.000 A 
ATOM      4  N   UNL     1       4.082   3.183  17.290  0.00  0.00    +0.000 NA
ATOM      5  C   UNL     1       2.963   2.543  17.691  0.00  0.00    +0.000 A 
ATOM      6  C   UNL     1       1.829   3.184  18.133  0.00  0.00    +0.000 A 
ATOM      7  C   UNL     1       1.848   4.574  18.182  0.00  0.00    +0.000 A 
ATOM      8  C   UNL     1       3.002   5.267  17.790  0.00  0.00    +0.000 A 
ATOM      9  I   UNL     1       2.961   7.355  18.017  0.00  0.00    +0.000 I 
ENDBRANCH   1   3
BRANCH   1  10
ATOM     10  C   UNL     1       6.502   4.368  17.224  0.00  0.00    +0.000 C 
BRANCH  10  11
ATOM     11  C   UNL     1       7.585   5.189  17.935  0.00  0.00    +0.000 C 
BRANCH  11  12
ATOM     12  C   UNL     1       7.131   6.625  18.181  0.00  0.00    +0.000 C 
BRANCH  12  14
ATOM     13  C   UNL     1       7.970   8.783  17.717  0.00  0.00    +0.000 C 
ATOM     14  O   UNL     1       7.726   7.479  17.206  0.00  0.00    +0.000 OA
ENDBRANCH  12  14
ENDBRANCH  11  12
ENDBRANCH  10  11
ENDBRANCH   1  10
TORSDOF 5
ENDMDL
MODEL 7
REMARK VINA RESULT:      -4.8      3.006      5.416
REMARK  Name = 
REMARK  7 active torsions:
REMARK  status: ('A' for Active; 'I' for Inactive)
REMARK    1  A    between atoms: C_1  and  O_2
REMARK    2  A    between atoms: O_2  and  C_3
REMARK    3  A    between atoms: C_3  and  C_4
REMARK    4  A    between atoms: C_4  and  C_5
REMARK    5  A    between atoms: C_5  and  N_6
REMARK    6  A    between atoms: N_6  and  C_7
REMARK    7  A    between atoms: N_6  and  C_8
REMARK                            x       y       z     vdW  Elec       q    Type
REMARK                         _______ _______ _______ _____ _____    ______ ____
ROOT
ATOM      1  N   UNL     1       4.683   4.195  19.367  0.00  0.00    +0.000 N 
ATOM      2  C   UNL     1       4.444   2.776  19.669  0.00  0.00    +0.000 C 
ENDROOT
BRANCH   1   3
ATOM      3  C   UNL     1       5.183   4.291  18.032  0.00  0.00    +0.000 A 
ATOM      4  N   UNL     1       4.403   3.820  17.021  0.00  0.00    +0.000 NA
ATOM      5  C   UNL     1       4.859   3.885  15.753  0.00  0.00    +0.000 A 
ATOM      6  C   UNL     1       6.090   4.390  15.404  0.00  0.00    +0.000 A 
ATOM      7  C   UNL     1       6.904   4.874  16.423  0.00  0.00    +0.000 A 
ATOM      8  C   UNL     1       6.451   4.837  17.750  0.00  0.00    +0.000 A 
ATOM      9  I   UNL     1       7.711   5.702  19.191  0.00  0.00    +0.000 I 
ENDBRANCH   1   3
BRANCH   1  10
ATOM     10  C   UNL     1       3.473   5.045  19.521  0.00  0.00    +0.000 C 
BRANCH  10  11
ATOM     11  C   UNL     1       2.582   4.565  20.673  0.00  0.00    +0.000 C 
BRANCH  11  12
ATOM     12  C   UNL     1       1.139   4.359  20.218  0.00  0.00    +0.000 C 
BRANCH  12  14
ATOM     13  C   UNL     1       0.872   2.474  18.822  0.00  0.00    +0.000 C 
ATOM     14  O   UNL     1       0.861   2.961  20.157  0.00  0.00    +0.000 OA
ENDBRANCH  12  14
ENDBRANCH  11  12
ENDBRANCH  10  11
ENDBRANCH   1  10
TORSDOF 5
ENDMDL
MODEL 8
REMARK VINA RESULT:      -4.8      2.890      5.711
REMARK  Name = 
REMARK  7 active torsions:
REMARK  status: ('A' for Active; 'I' for Inactive)
REMARK    1  A    between atoms: C_1  and  O_2
REMARK    2  A    between atoms: O_2  and  C_3
REMARK    3  A    between atoms: C_3  and  C_4
REMARK    4  A    between atoms: C_4  and  C_5
REMARK    5  A    between atoms: C_5  and  N_6
REMARK    6  A    between atoms: N_6  and  C_7
REMARK    7  A    between atoms: N_6  and  C_8
REMARK                            x       y       z     vdW  Elec       q    Type
REMARK                         _______ _______ _______ _____ _____    ______ ____
ROOT
ATOM      1  N   UNL     1       4.433   4.185  18.319  0.00  0.00    +0.000 N 
ATOM      2  C   UNL     1       3.914   2.811  18.252  0.00  0.00    +0.000 C 
ENDROOT
BRANCH   1   3
ATOM      3  C   UNL     1       5.212   4.428  17.145  0.00  0.00    +0.000 A 
ATOM      4  N   UNL     1       4.670   4.105  15.939  0.00  0.00    +0.000 NA
ATOM      5  C   UNL     1       5.391   4.311  14.817  0.00  0.00    +0.000 A 
ATOM      6  C   UNL     1       6.669   4.819  14.808  0.00  0.00    +0.000 A 
ATOM      7  C   UNL     1       7.241   5.154  16.031  0.00  0.00    +0.000 A 
ATOM      8  C   UNL     1       6.511   4.969  17.213  0.00  0.00    +0.000 A 
ATOM      9  I   UNL     1       7.428   5.617  18.989  0.00  0.00    +0.000 I 
ENDBRANCH   1   3
BRANCH   1  10
ATOM     10  C   UNL     1       3.368   5.214  18.446  0.00  0.00    +0.000 C 
BRANCH  10  11
ATOM     11  C   UNL     1       1.979   4.582  18.598  0.00  0.00    +0.000 C 
BRANCH  11  12
ATOM     12  C   UNL     1       1.489   4.644  20.043  0.00  0.00    +0.000 C 
BRANCH  12  14
ATOM     13  C   UNL     1       1.621   2.837  21.557  0.00  0.00    +0.000 C 
ATOM     14  O   UNL     1       0.964   3.371  20.415  0.00  0.00    +0.000 OA
ENDBRANCH  12  14
ENDBRANCH  11  12
ENDBRANCH  10  11
ENDBRANCH   1  10
TORSDOF 5
ENDMDL
MODEL 9
REMARK VINA RESULT:      -4.8      1.994      2.423
REMARK  Name = 
REMARK  7 active torsions:
REMARK  status: ('A' for Active; 'I' for Inactive)
REMARK    1  A    between atoms: C_1  and  O_2
REMARK    2  A    between atoms: O_2  and  C_3
REMARK    3  A    between atoms: C_3  and  C_4
REMARK    4  A    between atoms: C_4  and  C_5
REMARK    5  A    between atoms: C_5  and  N_6
REMARK    6  A    between atoms: N_6  and  C_7
REMARK    7  A    between atoms: N_6  and  C_8
REMARK                            x       y       z     vdW  Elec       q    Type
REMARK                         _______ _______ _______ _____ _____    ______ ____
ROOT
ATOM      1  N   UNL     1       4.731   5.141  18.348  0.00  0.00    +0.000 N 
ATOM      2  C   UNL     1       5.839   5.241  19.311  0.00  0.00    +0.000 C 
ENDROOT
BRANCH   1   3
ATOM      3  C   UNL     1       3.512   5.000  19.081  0.00  0.00    +0.000 A 
ATOM      4  N   UNL     1       3.021   6.095  19.723  0.00  0.00    +0.000 NA
ATOM      5  C   UNL     1       1.879   5.985  20.434  0.00  0.00    +0.000 A 
ATOM      6  C   UNL     1       1.171   4.814  20.572  0.00  0.00    +0.000 A 
ATOM      7  C   UNL     1       1.658   3.682  19.926  0.00  0.00    +0.000 A 
ATOM      8  C   UNL     1       2.832   3.768  19.165  0.00  0.00    +0.000 A 
ATOM      9  I   UNL     1       3.410   2.029  18.138  0.00  0.00    +0.000 I 
ENDBRANCH   1   3
BRANCH   1  10
ATOM     10  C   UNL     1       4.641   6.304  17.428  0.00  0.00    +0.000 C 
BRANCH  10  11
ATOM     11  C   UNL     1       5.206   5.978  16.040  0.00  0.00    +0.000 C 
BRANCH  11  12
ATOM     12  C   UNL     1       6.456   5.107  16.133  0.00  0.00    +0.000 C 
BRANCH  12  14
ATOM     13  C   UNL     1       7.030   4.706  13.878  0.00  0.00    +0.000 C 
ATOM     14  O   UNL     1       7.337   5.434  15.059  0.00  0.00    +0.000 OA
ENDBRANCH  12  14
ENDBRANCH  11  12
ENDBRANCH  10  11
ENDBRANCH   1  10
TORSDOF 5
ENDMDL
