MODEL 1
REMARK VINA RESULT:      -6.6      0.000      0.000
REMARK  Name = 
REMARK  5 active torsions:
REMARK  status: ('A' for Active; 'I' for Inactive)
REMARK    1  A    between atoms: C_1  and  C_2
REMARK    2  A    between atoms: C_2  and  N_3
REMARK    3  A    between atoms: N_6  and  C_7
REMARK    4  A    between atoms: C_7  and  N_8
REMARK    5  A    between atoms: C_10  and  C_11
REMARK                            x       y       z     vdW  Elec       q    Type
REMARK                         _______ _______ _______ _____ _____    ______ ____
ROOT
ATOM      1  N   UNL     1       3.143   5.821  19.646  0.00  0.00    +0.000 N 
ATOM      2  N   UNL     1       2.878   7.173  19.512  0.00  0.00    +0.000 NA
ATOM      3  C   UNL     1       1.848   7.342  20.283  0.00  0.00    +0.000 A 
ATOM      4  O   UNL     1       1.402   6.236  20.924  0.00  0.00    +0.000 OA
ATOM      5  C   UNL     1       2.270   5.264  20.544  0.00  0.00    +0.000 A 
ATOM      6  S   UNL     1       2.147   3.767  21.229  0.00  0.00    +0.000 S 
ENDROOT
BRANCH   3   7
ATOM      7  C   UNL     1       1.134   8.583  20.605  0.00  0.00    +0.000 A 
ATOM      8  C   UNL     1       0.652   8.795  21.898  0.00  0.00    +0.000 A 
ATOM      9  C   UNL     1      -0.067   9.954  22.137  0.00  0.00    +0.000 A 
ATOM     10  N   UNL     1      -0.325  10.886  21.194  0.00  0.00    +0.000 NA
ATOM     11  C   UNL     1       0.156  10.657  19.954  0.00  0.00    +0.000 A 
ATOM     12  C   UNL     1       0.887   9.535  19.613  0.00  0.00    +0.000 A 
ENDBRANCH   3   7
BRANCH   1  13
ATOM     13  C   UNL     1       4.401   5.263  19.178  0.00  0.00    +0.000 C 
BRANCH  13  17
ATOM     14  N   UNL     1       6.539   4.049  16.352  0.00  0.00    +0.000 NA
ATOM     15  C   UNL     1       7.061   4.675  17.586  0.00  0.00    +0.000 C 
ATOM     16  C   UNL     1       6.401   6.021  17.972  0.00  0.00    +0.000 C 
ATOM     17  N   UNL     1       4.925   6.001  18.022  0.00  0.00    +0.000 NA
ATOM     18  C   UNL     1       4.417   5.395  16.771  0.00  0.00    +0.000 C 
ATOM     19  C   UNL     1       5.060   4.029  16.413  0.00  0.00    +0.000 C 
BRANCH  14  21
ATOM     20  C   UNL     1       6.378   4.125  13.838  0.00  0.00    +0.000 C 
ATOM     21  C   UNL     1       6.984   4.705  15.112  0.00  0.00    +0.000 C 
ENDBRANCH  14  21
ENDBRANCH  13  17
ENDBRANCH   1  13
TORSDOF 4
ENDMDL
MODEL 2
REMARK VINA RESULT:      -6.6      0.086      1.028
REMARK  Name = 
REMARK  5 active torsions:
REMARK  status: ('A' for Active; 'I' for Inactive)
REMARK    1  A    between atoms: C_1  and  C_2
REMARK    2  A    between atoms: C_2  and  N_3
REMARK    3  A    between atoms: N_6  and  C_7
REMARK    4  A    between atoms: C_7  and  N_8
REMARK    5  A    between atoms: C_10  and  C_11
REMARK                            x       y       z     vdW  Elec       q    Type
REMARK                         _______ _______ _______ _____ _____    ______ ____
ROOT
ATOM      1  N   UNL     1       3.128   5.807  19.665  0.00  0.00    +0.000 N 
ATOM      2  N   UNL     1       2.844   7.154  19.514  0.00  0.00    +0.000 NA
ATOM      3  C   UNL     1       1.803   7.314  20.272  0.00  0.00    +0.000 A 
ATOM      4  O   UNL     1       1.366   6.208  20.919  0.00  0.00    +0.000 OA
ATOM      5  C   UNL     1       2.253   5.246  20.560  0.00  0.00    +0.000 A 
ATOM      6  S   UNL     1       2.146   3.755  21.258  0.00  0.00    +0.000 S 
ENDROOT
BRANCH   3   7
ATOM      7  C   UNL     1       1.066   8.548  20.574  0.00  0.00    +0.000 A 
ATOM      8  C   UNL     1       1.002   9.571  19.628  0.00  0.00    +0.000 A 
ATOM      9  C   UNL     1       0.346  10.738  19.982  0.00  0.00    +0.000 A 
ATOM     10  N   UNL     1      -0.233  10.938  21.186  0.00  0.00    +0.000 NA
ATOM     11  C   UNL     1      -0.159   9.931  22.080  0.00  0.00    +0.000 A 
ATOM     12  C   UNL     1       0.469   8.727  21.824  0.00  0.00    +0.000 A 
ENDBRANCH   3   7
BRANCH   1  13
ATOM     13  C   UNL     1       4.399   5.264  19.216  0.00  0.00    +0.000 C 
BRANCH  13  17
ATOM     14  N   UNL     1       6.525   4.050  16.381  0.00  0.00    +0.000 NA
ATOM     15  C   UNL     1       7.053   4.661  17.620  0.00  0.00    +0.000 C 
ATOM     16  C   UNL     1       6.406   6.011  18.016  0.00  0.00    +0.000 C 
ATOM     17  N   UNL     1       4.930   6.005  18.066  0.00  0.00    +0.000 NA
ATOM     18  C   UNL     1       4.416   5.413  16.811  0.00  0.00    +0.000 C 
ATOM     19  C   UNL     1       5.046   4.044  16.443  0.00  0.00    +0.000 C 
BRANCH  14  21
ATOM     20  C   UNL     1       6.352   4.155  13.869  0.00  0.00    +0.000 C 
ATOM     21  C   UNL     1       6.975   4.710  15.145  0.00  0.00    +0.000 C 
ENDBRANCH  14  21
ENDBRANCH  13  17
ENDBRANCH   1  13
TORSDOF 4
ENDMDL
MODEL 3
REMARK VINA RESULT:      -6.5      3.788      7.844
REMARK  Name = 
REMARK  5 active torsions:
REMARK  status: ('A' for Active; 'I' for Inactive)
REMARK    1  A    between atoms: C_1  and  C_2
REMARK    2  A    between atoms: C_2  and  N_3
REMARK    3  A    between atoms: N_6  and  C_7
REMARK    4  A    between atoms: C_7  and  N_8
REMARK    5  A    between atoms: C_10  and  C_11
REMARK                            x       y       z     vdW  Elec       q    Type
REMARK                         _______ _______ _______ _____ _____    ______ ____
ROOT
ATOM      1  N   UNL     1       5.357   5.882  17.371  0.00  0.00    +0.000 N 
ATOM      2  N   UNL     1       5.057   5.529  16.066  0.00  0.00    +0.000 NA
ATOM      3  C   UNL     1       6.224   5.252  15.568  0.00  0.00    +0.000 A 
ATOM      4  O   UNL     1       7.273   5.380  16.414  0.00  0.00    +0.000 OA
ATOM      5  C   UNL     1       6.703   5.744  17.591  0.00  0.00    +0.000 A 
ATOM      6  S   UNL     1       7.652   5.869  18.936  0.00  0.00    +0.000 S 
ENDROOT
BRANCH   3   7
ATOM      7  C   UNL     1       6.558   4.758  14.226  0.00  0.00    +0.000 A 
ATOM      8  C   UNL     1       7.609   5.335  13.513  0.00  0.00    +0.000 A 
ATOM      9  C   UNL     1       7.847   4.875  12.229  0.00  0.00    +0.000 A 
ATOM     10  N   UNL     1       7.122   3.904  11.633  0.00  0.00    +0.000 NA
ATOM     11  C   UNL     1       6.114   3.362  12.347  0.00  0.00    +0.000 A 
ATOM     12  C   UNL     1       5.797   3.747  13.636  0.00  0.00    +0.000 A 
ENDBRANCH   3   7
BRANCH   1  13
ATOM     13  C   UNL     1       4.306   5.985  18.370  0.00  0.00    +0.000 C 
BRANCH  13  17
ATOM     14  N   UNL     1       1.265   3.971  19.221  0.00  0.00    +0.000 NA
ATOM     15  C   UNL     1       1.827   5.039  20.076  0.00  0.00    +0.000 C 
ATOM     16  C   UNL     1       3.343   4.923  20.364  0.00  0.00    +0.000 C 
ATOM     17  N   UNL     1       4.195   4.758  19.168  0.00  0.00    +0.000 NA
ATOM     18  C   UNL     1       3.635   3.671  18.335  0.00  0.00    +0.000 C 
ATOM     19  C   UNL     1       2.122   3.816  18.024  0.00  0.00    +0.000 C 
BRANCH  14  21
ATOM     20  C   UNL     1       1.249   2.738  21.419  0.00  0.00    +0.000 C 
ATOM     21  C   UNL     1       1.110   2.675  19.901  0.00  0.00    +0.000 C 
ENDBRANCH  14  21
ENDBRANCH  13  17
ENDBRANCH   1  13
TORSDOF 4
ENDMDL
MODEL 4
REMARK VINA RESULT:      -6.4      3.416      7.924
REMARK  Name = 
REMARK  5 active torsions:
REMARK  status: ('A' for Active; 'I' for Inactive)
REMARK    1  A    between atoms: C_1  and  C_2
REMARK    2  A    between atoms: C_2  and  N_3
REMARK    3  A    between atoms: N_6  and  C_7
REMARK    4  A    between atoms: C_7  and  N_8
REMARK    5  A    between atoms: C_10  and  C_11
REMARK                            x       y       z     vdW  Elec       q    Type
REMARK                         _______ _______ _______ _____ _____    ______ ____
ROOT
ATOM      1  N   UNL     1       5.531   6.237  17.101  0.00  0.00    +0.000 N 
ATOM      2  N   UNL     1       5.210   5.909  15.795  0.00  0.00    +0.000 NA
ATOM      3  C   UNL     1       6.297   5.348  15.363  0.00  0.00    +0.000 A 
ATOM      4  O   UNL     1       7.313   5.263  16.255  0.00  0.00    +0.000 OA
ATOM      5  C   UNL     1       6.797   5.798  17.391  0.00  0.00    +0.000 A 
ATOM      6  S   UNL     1       7.693   5.755  18.776  0.00  0.00    +0.000 S 
ENDROOT
BRANCH   3   7
ATOM      7  C   UNL     1       6.561   4.734  14.055  0.00  0.00    +0.000 A 
ATOM      8  C   UNL     1       7.580   5.234  13.244  0.00  0.00    +0.000 A 
ATOM      9  C   UNL     1       7.750   4.660  11.995  0.00  0.00    +0.000 A 
ATOM     10  N   UNL     1       6.988   3.650  11.523  0.00  0.00    +0.000 NA
ATOM     11  C   UNL     1       6.012   3.184  12.331  0.00  0.00    +0.000 A 
ATOM     12  C   UNL     1       5.763   3.685  13.594  0.00  0.00    +0.000 A 
ENDBRANCH   3   7
BRANCH   1  13
ATOM     13  C   UNL     1       4.494   6.623  18.044  0.00  0.00    +0.000 C 
BRANCH  13  17
ATOM     14  N   UNL     1       2.368   4.984  20.656  0.00  0.00    +0.000 NA
ATOM     15  C   UNL     1       3.481   4.319  19.945  0.00  0.00    +0.000 C 
ATOM     16  C   UNL     1       3.441   4.434  18.402  0.00  0.00    +0.000 C 
ATOM     17  N   UNL     1       3.284   5.808  17.883  0.00  0.00    +0.000 NA
ATOM     18  C   UNL     1       2.152   6.452  18.585  0.00  0.00    +0.000 C 
ATOM     19  C   UNL     1       2.221   6.361  20.132  0.00  0.00    +0.000 C 
BRANCH  14  21
ATOM     20  C   UNL     1       1.178   2.768  20.806  0.00  0.00    +0.000 C 
ATOM     21  C   UNL     1       1.084   4.270  20.563  0.00  0.00    +0.000 C 
ENDBRANCH  14  21
ENDBRANCH  13  17
ENDBRANCH   1  13
TORSDOF 4
ENDMDL
MODEL 5
REMARK VINA RESULT:      -6.4      3.778      7.814
REMARK  Name = 
REMARK  5 active torsions:
REMARK  status: ('A' for Active; 'I' for Inactive)
REMARK    1  A    between atoms: C_1  and  C_2
REMARK    2  A    between atoms: C_2  and  N_3
REMARK    3  A    between atoms: N_6  and  C_7
REMARK    4  A    between atoms: C_7  and  N_8
REMARK    5  A    between atoms: C_10  and  C_11
REMARK                            x       y       z     vdW  Elec       q    Type
REMARK                         _______ _______ _______ _____ _____    ______ ____
ROOT
ATOM      1  N   UNL     1       5.348   5.872  17.408  0.00  0.00    +0.000 N 
ATOM      2  N   UNL     1       5.017   5.548  16.104  0.00  0.00    +0.000 NA
ATOM      3  C   UNL     1       6.169   5.272  15.575  0.00  0.00    +0.000 A 
ATOM      4  O   UNL     1       7.238   5.374  16.400  0.00  0.00    +0.000 OA
ATOM      5  C   UNL     1       6.697   5.718  17.597  0.00  0.00    +0.000 A 
ATOM      6  S   UNL     1       7.675   5.808  18.923  0.00  0.00    +0.000 S 
ENDROOT
BRANCH   3   7
ATOM      7  C   UNL     1       6.470   4.803  14.217  0.00  0.00    +0.000 A 
ATOM      8  C   UNL     1       5.703   3.787  13.644  0.00  0.00    +0.000 A 
ATOM      9  C   UNL     1       6.063   3.339  12.384  0.00  0.00    +0.000 A 
ATOM     10  N   UNL     1       7.109   3.828  11.684  0.00  0.00    +0.000 NA
ATOM     11  C   UNL     1       7.831   4.812  12.261  0.00  0.00    +0.000 A 
ATOM     12  C   UNL     1       7.553   5.331  13.511  0.00  0.00    +0.000 A 
ENDBRANCH   3   7
BRANCH   1  13
ATOM     13  C   UNL     1       4.319   5.964  18.432  0.00  0.00    +0.000 C 
BRANCH  13  17
ATOM     14  N   UNL     1       1.234   4.034  19.318  0.00  0.00    +0.000 NA
ATOM     15  C   UNL     1       1.870   5.042  20.194  0.00  0.00    +0.000 C 
ATOM     16  C   UNL     1       3.390   4.857  20.417  0.00  0.00    +0.000 C 
ATOM     17  N   UNL     1       4.189   4.709  19.183  0.00  0.00    +0.000 NA
ATOM     18  C   UNL     1       3.555   3.681  18.329  0.00  0.00    +0.000 C 
ATOM     19  C   UNL     1       2.038   3.897  18.083  0.00  0.00    +0.000 C 
BRANCH  14  21
ATOM     20  C   UNL     1       1.262   2.708  21.462  0.00  0.00    +0.000 C 
ATOM     21  C   UNL     1       1.053   2.717  19.951  0.00  0.00    +0.000 C 
ENDBRANCH  14  21
ENDBRANCH  13  17
ENDBRANCH   1  13
TORSDOF 4
ENDMDL
MODEL 6
REMARK VINA RESULT:      -6.3      3.212      8.258
REMARK  Name = 
REMARK  5 active torsions:
REMARK  status: ('A' for Active; 'I' for Inactive)
REMARK    1  A    between atoms: C_1  and  C_2
REMARK    2  A    between atoms: C_2  and  N_3
REMARK    3  A    between atoms: N_6  and  C_7
REMARK    4  A    between atoms: C_7  and  N_8
REMARK    5  A    between atoms: C_10  and  C_11
REMARK                            x       y       z     vdW  Elec       q    Type
REMARK                         _______ _______ _______ _____ _____    ______ ____
ROOT
ATOM      1  N   UNL     1       1.717   7.399  19.961  0.00  0.00    +0.000 N 
ATOM      2  N   UNL     1       1.917   6.076  20.315  0.00  0.00    +0.000 NA
ATOM      3  C   UNL     1       2.408   5.560  19.230  0.00  0.00    +0.000 A 
ATOM      4  O   UNL     1       2.561   6.410  18.187  0.00  0.00    +0.000 OA
ATOM      5  C   UNL     1       2.155   7.608  18.679  0.00  0.00    +0.000 A 
ATOM      6  S   UNL     1       2.320   8.956  17.741  0.00  0.00    +0.000 S 
ENDROOT
BRANCH   3   7
ATOM      7  C   UNL     1       2.879   4.189  18.994  0.00  0.00    +0.000 A 
ATOM      8  C   UNL     1       2.398   3.464  17.903  0.00  0.00    +0.000 A 
ATOM      9  C   UNL     1       2.827   2.156  17.757  0.00  0.00    +0.000 A 
ATOM     10  N   UNL     1       3.681   1.547  18.608  0.00  0.00    +0.000 NA
ATOM     11  C   UNL     1       4.133   2.272  19.652  0.00  0.00    +0.000 A 
ATOM     12  C   UNL     1       3.769   3.585  19.884  0.00  0.00    +0.000 A 
ENDBRANCH   3   7
BRANCH   1  13
ATOM     13  C   UNL     1       1.452   8.405  20.977  0.00  0.00    +0.000 C 
BRANCH  13  17
ATOM     14  N   UNL     1      -0.250  11.095  22.950  0.00  0.00    +0.000 NA
ATOM     15  C   UNL     1      -0.124   9.689  23.390  0.00  0.00    +0.000 C 
ATOM     16  C   UNL     1      -0.570   8.631  22.351  0.00  0.00    +0.000 C 
ATOM     17  N   UNL     1       0.033   8.780  21.011  0.00  0.00    +0.000 NA
ATOM     18  C   UNL     1      -0.123  10.184  20.574  0.00  0.00    +0.000 C 
ATOM     19  C   UNL     1       0.361  11.235  21.609  0.00  0.00    +0.000 C 
BRANCH  14  21
ATOM     20  C   UNL     1      -1.767  13.095  23.172  0.00  0.00    +0.000 C 
ATOM     21  C   UNL     1      -1.634  11.596  22.928  0.00  0.00    +0.000 C 
ENDBRANCH  14  21
ENDBRANCH  13  17
ENDBRANCH   1  13
TORSDOF 4
ENDMDL
MODEL 7
REMARK VINA RESULT:      -6.3      3.786      7.823
REMARK  Name = 
REMARK  5 active torsions:
REMARK  status: ('A' for Active; 'I' for Inactive)
REMARK    1  A    between atoms: C_1  and  C_2
REMARK    2  A    between atoms: C_2  and  N_3
REMARK    3  A    between atoms: N_6  and  C_7
REMARK    4  A    between atoms: C_7  and  N_8
REMARK    5  A    between atoms: C_10  and  C_11
REMARK                            x       y       z     vdW  Elec       q    Type
REMARK                         _______ _______ _______ _____ _____    ______ ____
ROOT
ATOM      1  N   UNL     1       5.403   6.054  17.198  0.00  0.00    +0.000 N 
ATOM      2  N   UNL     1       5.074   5.739  15.890  0.00  0.00    +0.000 NA
ATOM      3  C   UNL     1       6.202   5.320  15.403  0.00  0.00    +0.000 A 
ATOM      4  O   UNL     1       7.251   5.319  16.258  0.00  0.00    +0.000 OA
ATOM      5  C   UNL     1       6.720   5.752  17.430  0.00  0.00    +0.000 A 
ATOM      6  S   UNL     1       7.665   5.761  18.783  0.00  0.00    +0.000 S 
ENDROOT
BRANCH   3   7
ATOM      7  C   UNL     1       6.484   4.787  14.064  0.00  0.00    +0.000 A 
ATOM      8  C   UNL     1       5.742   3.714  13.570  0.00  0.00    +0.000 A 
ATOM      9  C   UNL     1       6.086   3.210  12.327  0.00  0.00    +0.000 A 
ATOM     10  N   UNL     1       7.094   3.697  11.572  0.00  0.00    +0.000 NA
ATOM     11  C   UNL     1       7.792   4.737  12.073  0.00  0.00    +0.000 A 
ATOM     12  C   UNL     1       7.527   5.315  13.300  0.00  0.00    +0.000 A 
ENDBRANCH   3   7
BRANCH   1  13
ATOM     13  C   UNL     1       4.364   6.286  18.188  0.00  0.00    +0.000 C 
BRANCH  13  17
ATOM     14  N   UNL     1       3.227   3.500  20.417  0.00  0.00    +0.000 NA
ATOM     15  C   UNL     1       4.149   3.332  19.273  0.00  0.00    +0.000 C 
ATOM     16  C   UNL     1       3.662   3.947  17.939  0.00  0.00    +0.000 C 
ATOM     17  N   UNL     1       3.239   5.360  18.020  0.00  0.00    +0.000 NA
ATOM     18  C   UNL     1       2.298   5.507  19.153  0.00  0.00    +0.000 C 
ATOM     19  C   UNL     1       2.812   4.919  20.493  0.00  0.00    +0.000 C 
BRANCH  14  21
ATOM     20  C   UNL     1       1.248   2.566  21.666  0.00  0.00    +0.000 C 
ATOM     21  C   UNL     1       2.041   2.630  20.366  0.00  0.00    +0.000 C 
ENDBRANCH  14  21
ENDBRANCH  13  17
ENDBRANCH   1  13
TORSDOF 4
ENDMDL
MODEL 8
REMARK VINA RESULT:      -6.2      3.253      8.162
REMARK  Name = 
REMARK  5 active torsions:
REMARK  status: ('A' for Active; 'I' for Inactive)
REMARK    1  A    between atoms: C_1  and  C_2
REMARK    2  A    between atoms: C_2  and  N_3
REMARK    3  A    between atoms: N_6  and  C_7
REMARK    4  A    between atoms: C_7  and  N_8
REMARK    5  A    between atoms: C_10  and  C_11
REMARK                            x       y       z     vdW  Elec       q    Type
REMARK                         _______ _______ _______ _____ _____    ______ ____
ROOT
ATOM      1  N   UNL     1       1.680   7.362  19.966  0.00  0.00    +0.000 N 
ATOM      2  N   UNL     1       1.828   6.034  20.328  0.00  0.00    +0.000 NA
ATOM      3  C   UNL     1       2.328   5.499  19.257  0.00  0.00    +0.000 A 
ATOM      4  O   UNL     1       2.533   6.339  18.216  0.00  0.00    +0.000 OA
ATOM      5  C   UNL     1       2.155   7.552  18.694  0.00  0.00    +0.000 A 
ATOM      6  S   UNL     1       2.386   8.891  17.757  0.00  0.00    +0.000 S 
ENDROOT
BRANCH   3   7
ATOM      7  C   UNL     1       2.759   4.112  19.036  0.00  0.00    +0.000 A 
ATOM      8  C   UNL     1       3.763   3.560  19.833  0.00  0.00    +0.000 A 
ATOM      9  C   UNL     1       4.176   2.270  19.547  0.00  0.00    +0.000 A 
ATOM     10  N   UNL     1       3.664   1.521  18.547  0.00  0.00    +0.000 NA
ATOM     11  C   UNL     1       2.692   2.079  17.795  0.00  0.00    +0.000 A 
ATOM     12  C   UNL     1       2.207   3.357  18.000  0.00  0.00    +0.000 A 
ENDBRANCH   3   7
BRANCH   1  13
ATOM     13  C   UNL     1       1.423   8.380  20.972  0.00  0.00    +0.000 C 
BRANCH  13  17
ATOM     14  N   UNL     1      -0.263  11.129  22.876  0.00  0.00    +0.000 NA
ATOM     15  C   UNL     1      -0.099   9.746  23.374  0.00  0.00    +0.000 C 
ATOM     16  C   UNL     1      -0.559   8.636  22.398  0.00  0.00    +0.000 C 
ATOM     17  N   UNL     1      -0.001   8.733  21.034  0.00  0.00    +0.000 NA
ATOM     18  C   UNL     1      -0.193  10.115  20.540  0.00  0.00    +0.000 C 
ATOM     19  C   UNL     1       0.304  11.218  21.511  0.00  0.00    +0.000 C 
BRANCH  14  21
ATOM     20  C   UNL     1      -1.862  12.950  22.184  0.00  0.00    +0.000 C 
ATOM     21  C   UNL     1      -1.655  11.607  22.876  0.00  0.00    +0.000 C 
ENDBRANCH  14  21
ENDBRANCH  13  17
ENDBRANCH   1  13
TORSDOF 4
ENDMDL
MODEL 9
REMARK VINA RESULT:      -6.1      4.202      7.981
REMARK  Name = 
REMARK  5 active torsions:
REMARK  status: ('A' for Active; 'I' for Inactive)
REMARK    1  A    between atoms: C_1  and  C_2
REMARK    2  A    between atoms: C_2  and  N_3
REMARK    3  A    between atoms: N_6  and  C_7
REMARK    4  A    between atoms: C_7  and  N_8
REMARK    5  A    between atoms: C_10  and  C_11
REMARK                            x       y       z     vdW  Elec       q    Type
REMARK                         _______ _______ _______ _____ _____    ______ ____
ROOT
ATOM      1  N   UNL     1       5.895   4.888  17.696  0.00  0.00    +0.000 N 
ATOM      2  N   UNL     1       5.607   4.307  16.472  0.00  0.00    +0.000 NA
ATOM      3  C   UNL     1       6.493   4.839  15.687  0.00  0.00    +0.000 A 
ATOM      4  O   UNL     1       7.348   5.713  16.266  0.00  0.00    +0.000 OA
ATOM      5  C   UNL     1       6.987   5.708  17.574  0.00  0.00    +0.000 A 
ATOM      6  S   UNL     1       7.894   6.559  18.660  0.00  0.00    +0.000 S 
ENDROOT
BRANCH   3   7
ATOM      7  C   UNL     1       6.735   4.576  14.262  0.00  0.00    +0.000 A 
ATOM      8  C   UNL     1       7.670   5.340  13.562  0.00  0.00    +0.000 A 
ATOM      9  C   UNL     1       7.820   5.093  12.208  0.00  0.00    +0.000 A 
ATOM     10  N   UNL     1       7.116   4.159  11.532  0.00  0.00    +0.000 NA
ATOM     11  C   UNL     1       6.222   3.433  12.236  0.00  0.00    +0.000 A 
ATOM     12  C   UNL     1       6.000   3.598  13.589  0.00  0.00    +0.000 A 
ENDBRANCH   3   7
BRANCH   1  13
ATOM     13  C   UNL     1       5.327   4.352  18.922  0.00  0.00    +0.000 C 
BRANCH  13  17
ATOM     14  N   UNL     1       2.599   3.339  21.279  0.00  0.00    +0.000 NA
ATOM     15  C   UNL     1       3.775   2.504  20.954  0.00  0.00    +0.000 C 
ATOM     16  C   UNL     1       4.054   2.318  19.443  0.00  0.00    +0.000 C 
ATOM     17  N   UNL     1       4.113   3.569  18.661  0.00  0.00    +0.000 NA
ATOM     18  C   UNL     1       2.918   4.382  18.977  0.00  0.00    +0.000 C 
ATOM     19  C   UNL     1       2.669   4.592  20.494  0.00  0.00    +0.000 C 
BRANCH  14  21
ATOM     20  C   UNL     1       0.468   3.285  19.933  0.00  0.00    +0.000 C 
ATOM     21  C   UNL     1       1.307   2.672  21.049  0.00  0.00    +0.000 C 
ENDBRANCH  14  21
ENDBRANCH  13  17
ENDBRANCH   1  13
TORSDOF 4
ENDMDL
