MODEL 1
REMARK VINA RESULT:      -8.2      0.000      0.000
REMARK  Name = 
REMARK  9 active torsions:
REMARK  status: ('A' for Active; 'I' for Inactive)
REMARK    1  A    between atoms: C_1  and  O_2
REMARK    2  A    between atoms: O_2  and  C_3
REMARK    3  A    between atoms: C_6  and  C_7
REMARK    4  A    between atoms: C_12  and  C_14
REMARK    5  A    between atoms: C_14  and  C_15
REMARK    6  A    between atoms: C_15  and  N_16
REMARK    7  A    between atoms: C_15  and  C_20
REMARK    8  A    between atoms: C_27  and  O_28
REMARK    9  A    between atoms: O_28  and  C_29
REMARK                            x       y       z     vdW  Elec       q    Type
REMARK                         _______ _______ _______ _____ _____    ______ ____
ROOT
ATOM      1  C   UNL     1       3.811   5.939  19.302  0.00  0.00    +0.000 C 
ATOM      2  C   UNL     1       3.259   4.664  19.958  0.00  0.00    +0.000 C 
ATOM      3  C   UNL     1       2.141   5.184  20.845  0.00  0.00    +0.000 C 
ATOM      4  C   UNL     1       1.583   6.370  20.071  0.00  0.00    +0.000 C 
ATOM      5  N   UNL     1       2.590   6.717  19.074  0.00  0.00    +0.000 N 
ATOM      6  C   UNL     1       2.479   7.793  18.200  0.00  0.00    +0.000 C 
ATOM      7  O   UNL     1       3.431   8.277  17.592  0.00  0.00    +0.000 OA
ENDROOT
BRANCH   1  11
ATOM      8  C   UNL     1       6.185   4.995  15.811  0.00  0.00    +0.000 A 
ATOM      9  C   UNL     1       5.059   4.222  16.140  0.00  0.00    +0.000 A 
ATOM     10  C   UNL     1       4.284   4.524  17.255  0.00  0.00    +0.000 A 
ATOM     11  C   UNL     1       4.638   5.580  18.094  0.00  0.00    +0.000 A 
ATOM     12  C   UNL     1       5.819   6.288  17.817  0.00  0.00    +0.000 A 
ATOM     13  C   UNL     1       6.610   5.998  16.693  0.00  0.00    +0.000 A 
BRANCH   8  15
ATOM     14  C   UNL     1       6.150   3.999  13.678  0.00  0.00    +0.000 C 
ATOM     15  O   UNL     1       6.863   4.776  14.641  0.00  0.00    +0.000 OA
ENDBRANCH   8  15
BRANCH  13  16
ATOM     16  O   UNL     1       7.712   6.808  16.611  0.00  0.00    +0.000 OA
ATOM     17  C   UNL     1       7.817   7.910  17.497  0.00  0.00    +0.000 C 
ENDBRANCH  13  16
ENDBRANCH   1  11
BRANCH   6  18
ATOM     18  C   UNL     1       1.069   8.351  18.064  0.00  0.00    +0.000 C 
BRANCH  18  19
ATOM     19  C   UNL     1       0.892   9.816  18.495  0.00  0.00    +0.000 C 
BRANCH  19  20
ATOM     20  N   UNL     1       1.745  10.809  17.853  0.00  0.00    +0.000 N 
ATOM     21  C   UNL     1       2.198  11.961  18.418  0.00  0.00    +0.000 C 
ATOM     22  N   UNL     1       2.998  12.661  17.575  0.00  0.00    +0.000 N 
ATOM     23  O   UNL     1       1.947  12.375  19.540  0.00  0.00    +0.000 OA
ATOM     24  H   UNL     1       2.301  10.471  17.080  0.00  0.00    +0.000 HD
ATOM     25  H   UNL     1       2.754  12.628  16.596  0.00  0.00    +0.000 HD
ATOM     26  H   UNL     1       3.223  13.583  17.922  0.00  0.00    +0.000 HD
ENDBRANCH  19  20
BRANCH  19  27
ATOM     27  C   UNL     1      -0.577  10.226  18.352  0.00  0.00    +0.000 A 
ATOM     28  C   UNL     1      -1.359   9.717  17.306  0.00  0.00    +0.000 A 
ATOM     29  C   UNL     1      -2.693  10.123  17.152  0.00  0.00    +0.000 A 
ATOM     30  C   UNL     1      -3.253  11.039  18.038  0.00  0.00    +0.000 A 
ATOM     31  C   UNL     1      -2.492  11.547  19.086  0.00  0.00    +0.000 A 
ATOM     32  C   UNL     1      -1.166  11.141  19.241  0.00  0.00    +0.000 A 
ENDBRANCH  19  27
ENDBRANCH  18  19
ENDBRANCH   6  18
TORSDOF 7
ENDMDL
MODEL 2
REMARK VINA RESULT:      -7.9      1.846      2.437
REMARK  Name = 
REMARK  9 active torsions:
REMARK  status: ('A' for Active; 'I' for Inactive)
REMARK    1  A    between atoms: C_1  and  O_2
REMARK    2  A    between atoms: O_2  and  C_3
REMARK    3  A    between atoms: C_6  and  C_7
REMARK    4  A    between atoms: C_12  and  C_14
REMARK    5  A    between atoms: C_14  and  C_15
REMARK    6  A    between atoms: C_15  and  N_16
REMARK    7  A    between atoms: C_15  and  C_20
REMARK    8  A    between atoms: C_27  and  O_28
REMARK    9  A    between atoms: O_28  and  C_29
REMARK                            x       y       z     vdW  Elec       q    Type
REMARK                         _______ _______ _______ _____ _____    ______ ____
ROOT
ATOM      1  C   UNL     1       3.817   5.826  19.384  0.00  0.00    +0.000 C 
ATOM      2  C   UNL     1       3.305   4.479  19.917  0.00  0.00    +0.000 C 
ATOM      3  C   UNL     1       2.246   4.883  20.927  0.00  0.00    +0.000 C 
ATOM      4  C   UNL     1       1.642   6.150  20.335  0.00  0.00    +0.000 C 
ATOM      5  N   UNL     1       2.586   6.618  19.326  0.00  0.00    +0.000 N 
ATOM      6  C   UNL     1       2.423   7.790  18.594  0.00  0.00    +0.000 C 
ATOM      7  O   UNL     1       3.336   8.348  17.991  0.00  0.00    +0.000 OA
ENDROOT
BRANCH   1  11
ATOM      8  C   UNL     1       5.972   5.317  15.668  0.00  0.00    +0.000 A 
ATOM      9  C   UNL     1       4.823   4.556  15.937  0.00  0.00    +0.000 A 
ATOM     10  C   UNL     1       4.117   4.720  17.125  0.00  0.00    +0.000 A 
ATOM     11  C   UNL     1       4.567   5.618  18.093  0.00  0.00    +0.000 A 
ATOM     12  C   UNL     1       5.770   6.303  17.862  0.00  0.00    +0.000 A 
ATOM     13  C   UNL     1       6.492   6.152  16.666  0.00  0.00    +0.000 A 
BRANCH   8  15
ATOM     14  C   UNL     1       6.268   4.076  13.688  0.00  0.00    +0.000 C 
ATOM     15  O   UNL     1       6.583   5.247  14.443  0.00  0.00    +0.000 OA
ENDBRANCH   8  15
BRANCH  13  16
ATOM     16  O   UNL     1       7.631   6.912  16.648  0.00  0.00    +0.000 OA
ATOM     17  C   UNL     1       7.824   7.879  17.667  0.00  0.00    +0.000 C 
ENDBRANCH  13  16
ENDBRANCH   1  11
BRANCH   6  18
ATOM     18  C   UNL     1       1.008   8.352  18.614  0.00  0.00    +0.000 C 
BRANCH  18  19
ATOM     19  C   UNL     1       0.892   9.844  18.965  0.00  0.00    +0.000 C 
BRANCH  19  20
ATOM     20  N   UNL     1       0.128  10.688  18.052  0.00  0.00    +0.000 N 
ATOM     21  C   UNL     1      -1.213  10.623  17.835  0.00  0.00    +0.000 C 
ATOM     22  N   UNL     1      -1.632  11.562  16.950  0.00  0.00    +0.000 N 
ATOM     23  O   UNL     1      -2.000   9.833  18.338  0.00  0.00    +0.000 OA
ATOM     24  H   UNL     1       0.549  11.577  17.827  0.00  0.00    +0.000 HD
ATOM     25  H   UNL     1      -0.997  11.780  16.196  0.00  0.00    +0.000 HD
ATOM     26  H   UNL     1      -2.593  11.434  16.667  0.00  0.00    +0.000 HD
ENDBRANCH  19  20
BRANCH  19  27
ATOM     27  C   UNL     1       0.353  10.003  20.389  0.00  0.00    +0.000 A 
ATOM     28  C   UNL     1       0.059   8.875  21.169  0.00  0.00    +0.000 A 
ATOM     29  C   UNL     1      -0.471   9.021  22.459  0.00  0.00    +0.000 A 
ATOM     30  C   UNL     1      -0.712  10.290  22.979  0.00  0.00    +0.000 A 
ATOM     31  C   UNL     1      -0.418  11.419  22.221  0.00  0.00    +0.000 A 
ATOM     32  C   UNL     1       0.112  11.274  20.938  0.00  0.00    +0.000 A 
ENDBRANCH  19  27
ENDBRANCH  18  19
ENDBRANCH   6  18
TORSDOF 7
ENDMDL
MODEL 3
REMARK VINA RESULT:      -7.4      1.697      2.368
REMARK  Name = 
REMARK  9 active torsions:
REMARK  status: ('A' for Active; 'I' for Inactive)
REMARK    1  A    between atoms: C_1  and  O_2
REMARK    2  A    between atoms: O_2  and  C_3
REMARK    3  A    between atoms: C_6  and  C_7
REMARK    4  A    between atoms: C_12  and  C_14
REMARK    5  A    between atoms: C_14  and  C_15
REMARK    6  A    between atoms: C_15  and  N_16
REMARK    7  A    between atoms: C_15  and  C_20
REMARK    8  A    between atoms: C_27  and  O_28
REMARK    9  A    between atoms: O_28  and  C_29
REMARK                            x       y       z     vdW  Elec       q    Type
REMARK                         _______ _______ _______ _____ _____    ______ ____
ROOT
ATOM      1  C   UNL     1       3.778   5.847  19.325  0.00  0.00    +0.000 C 
ATOM      2  C   UNL     1       3.218   4.512  19.843  0.00  0.00    +0.000 C 
ATOM      3  C   UNL     1       2.148   4.943  20.832  0.00  0.00    +0.000 C 
ATOM      4  C   UNL     1       1.592   6.226  20.230  0.00  0.00    +0.000 C 
ATOM      5  N   UNL     1       2.570   6.671  19.243  0.00  0.00    +0.000 N 
ATOM      6  C   UNL     1       2.454   7.848  18.511  0.00  0.00    +0.000 C 
ATOM      7  O   UNL     1       3.394   8.383  17.929  0.00  0.00    +0.000 OA
ENDROOT
BRANCH   1  11
ATOM      8  C   UNL     1       5.997   5.288  15.654  0.00  0.00    +0.000 A 
ATOM      9  C   UNL     1       4.840   4.535  15.911  0.00  0.00    +0.000 A 
ATOM     10  C   UNL     1       4.114   4.714  17.084  0.00  0.00    +0.000 A 
ATOM     11  C   UNL     1       4.550   5.621  18.050  0.00  0.00    +0.000 A 
ATOM     12  C   UNL     1       5.760   6.299  17.834  0.00  0.00    +0.000 A 
ATOM     13  C   UNL     1       6.502   6.132  16.653  0.00  0.00    +0.000 A 
BRANCH   8  15
ATOM     14  C   UNL     1       6.329   4.020  13.697  0.00  0.00    +0.000 C 
ATOM     15  O   UNL     1       6.630   5.202  14.442  0.00  0.00    +0.000 OA
ENDBRANCH   8  15
BRANCH  13  16
ATOM     16  O   UNL     1       7.645   6.886  16.646  0.00  0.00    +0.000 OA
ATOM     17  C   UNL     1       7.779   7.931  17.597  0.00  0.00    +0.000 C 
ENDBRANCH  13  16
ENDBRANCH   1  11
BRANCH   6  18
ATOM     18  C   UNL     1       1.054   8.448  18.501  0.00  0.00    +0.000 C 
BRANCH  18  19
ATOM     19  C   UNL     1       0.944   9.882  19.043  0.00  0.00    +0.000 C 
BRANCH  19  20
ATOM     20  N   UNL     1       0.037  10.790  18.350  0.00  0.00    +0.000 N 
ATOM     21  C   UNL     1       0.147  12.145  18.296  0.00  0.00    +0.000 C 
ATOM     22  N   UNL     1      -0.835  12.707  17.548  0.00  0.00    +0.000 N 
ATOM     23  O   UNL     1       0.999  12.833  18.840  0.00  0.00    +0.000 OA
ATOM     24  H   UNL     1      -0.499  10.381  17.599  0.00  0.00    +0.000 HD
ATOM     25  H   UNL     1      -1.741  12.264  17.595  0.00  0.00    +0.000 HD
ATOM     26  H   UNL     1      -0.855  13.715  17.617  0.00  0.00    +0.000 HD
ENDBRANCH  19  20
BRANCH  19  27
ATOM     27  C   UNL     1       0.602   9.850  20.536  0.00  0.00    +0.000 A 
ATOM     28  C   UNL     1       1.456   9.212  21.447  0.00  0.00    +0.000 A 
ATOM     29  C   UNL     1       1.124   9.148  22.808  0.00  0.00    +0.000 A 
ATOM     30  C   UNL     1      -0.060   9.718  23.268  0.00  0.00    +0.000 A 
ATOM     31  C   UNL     1      -0.914  10.361  22.378  0.00  0.00    +0.000 A 
ATOM     32  C   UNL     1      -0.582  10.427  21.023  0.00  0.00    +0.000 A 
ENDBRANCH  19  27
ENDBRANCH  18  19
ENDBRANCH   6  18
TORSDOF 7
ENDMDL
MODEL 4
REMARK VINA RESULT:      -7.3      2.741      7.803
REMARK  Name = 
REMARK  9 active torsions:
REMARK  status: ('A' for Active; 'I' for Inactive)
REMARK    1  A    between atoms: C_1  and  O_2
REMARK    2  A    between atoms: O_2  and  C_3
REMARK    3  A    between atoms: C_6  and  C_7
REMARK    4  A    between atoms: C_12  and  C_14
REMARK    5  A    between atoms: C_14  and  C_15
REMARK    6  A    between atoms: C_15  and  N_16
REMARK    7  A    between atoms: C_15  and  C_20
REMARK    8  A    between atoms: C_27  and  O_28
REMARK    9  A    between atoms: O_28  and  C_29
REMARK                            x       y       z     vdW  Elec       q    Type
REMARK                         _______ _______ _______ _____ _____    ______ ____
ROOT
ATOM      1  C   UNL     1      -0.185  10.279  20.507  0.00  0.00    +0.000 C 
ATOM      2  C   UNL     1      -0.358  10.423  22.027  0.00  0.00    +0.000 C 
ATOM      3  C   UNL     1      -0.407   8.984  22.511  0.00  0.00    +0.000 C 
ATOM      4  C   UNL     1       0.530   8.250  21.561  0.00  0.00    +0.000 C 
ATOM      5  N   UNL     1       0.718   9.129  20.412  0.00  0.00    +0.000 N 
ATOM      6  C   UNL     1       1.467   8.791  19.290  0.00  0.00    +0.000 C 
ATOM      7  O   UNL     1       1.374   9.371  18.211  0.00  0.00    +0.000 OA
ENDROOT
BRANCH   1  11
ATOM      8  C   UNL     1       1.188  14.054  18.900  0.00  0.00    +0.000 A 
ATOM      9  C   UNL     1       0.072  13.405  18.346  0.00  0.00    +0.000 A 
ATOM     10  C   UNL     1      -0.383  12.195  18.862  0.00  0.00    +0.000 A 
ATOM     11  C   UNL     1       0.291  11.583  19.918  0.00  0.00    +0.000 A 
ATOM     12  C   UNL     1       1.463  12.185  20.403  0.00  0.00    +0.000 A 
ATOM     13  C   UNL     1       1.933  13.408  19.896  0.00  0.00    +0.000 A 
BRANCH   8  15
ATOM     14  C   UNL     1       0.745  16.365  19.000  0.00  0.00    +0.000 C 
ATOM     15  O   UNL     1       1.548  15.306  18.475  0.00  0.00    +0.000 OA
ENDBRANCH   8  15
BRANCH  13  16
ATOM     16  O   UNL     1       3.087  13.817  20.510  0.00  0.00    +0.000 OA
ATOM     17  C   UNL     1       2.995  14.698  21.618  0.00  0.00    +0.000 C 
ENDBRANCH  13  16
ENDBRANCH   1  11
BRANCH   6  18
ATOM     18  C   UNL     1       2.412   7.615  19.495  0.00  0.00    +0.000 C 
BRANCH  18  19
ATOM     19  C   UNL     1       2.436   6.578  18.361  0.00  0.00    +0.000 C 
BRANCH  19  20
ATOM     20  N   UNL     1       3.704   6.372  17.671  0.00  0.00    +0.000 N 
ATOM     21  C   UNL     1       4.840   5.861  18.218  0.00  0.00    +0.000 C 
ATOM     22  N   UNL     1       5.844   5.765  17.311  0.00  0.00    +0.000 N 
ATOM     23  O   UNL     1       5.003   5.517  19.380  0.00  0.00    +0.000 OA
ATOM     24  H   UNL     1       3.644   6.285  16.667  0.00  0.00    +0.000 HD
ATOM     25  H   UNL     1       5.890   6.495  16.616  0.00  0.00    +0.000 HD
ATOM     26  H   UNL     1       6.732   5.527  17.731  0.00  0.00    +0.000 HD
ENDBRANCH  19  20
BRANCH  19  27
ATOM     27  C   UNL     1       1.900   5.237  18.871  0.00  0.00    +0.000 A 
ATOM     28  C   UNL     1       1.694   5.029  20.242  0.00  0.00    +0.000 A 
ATOM     29  C   UNL     1       1.241   3.787  20.712  0.00  0.00    +0.000 A 
ATOM     30  C   UNL     1       0.993   2.748  19.820  0.00  0.00    +0.000 A 
ATOM     31  C   UNL     1       1.185   2.941  18.456  0.00  0.00    +0.000 A 
ATOM     32  C   UNL     1       1.634   4.178  17.988  0.00  0.00    +0.000 A 
ENDBRANCH  19  27
ENDBRANCH  18  19
ENDBRANCH   6  18
TORSDOF 7
ENDMDL
MODEL 5
REMARK VINA RESULT:      -7.2      3.438      8.920
REMARK  Name = 
REMARK  9 active torsions:
REMARK  status: ('A' for Active; 'I' for Inactive)
REMARK    1  A    between atoms: C_1  and  O_2
REMARK    2  A    between atoms: O_2  and  C_3
REMARK    3  A    between atoms: C_6  and  C_7
REMARK    4  A    between atoms: C_12  and  C_14
REMARK    5  A    between atoms: C_14  and  C_15
REMARK    6  A    between atoms: C_15  and  N_16
REMARK    7  A    between atoms: C_15  and  C_20
REMARK    8  A    between atoms: C_27  and  O_28
REMARK    9  A    between atoms: O_28  and  C_29
REMARK                            x       y       z     vdW  Elec       q    Type
REMARK                         _______ _______ _______ _____ _____    ______ ____
ROOT
ATOM      1  C   UNL     1      -0.980  12.166  18.609  0.00  0.00    +0.000 C 
ATOM      2  C   UNL     1      -2.459  11.761  18.515  0.00  0.00    +0.000 C 
ATOM      3  C   UNL     1      -2.458  10.680  17.449  0.00  0.00    +0.000 C 
ATOM      4  C   UNL     1      -1.121   9.978  17.644  0.00  0.00    +0.000 C 
ATOM      5  N   UNL     1      -0.301  10.878  18.449  0.00  0.00    +0.000 N 
ATOM      6  C   UNL     1       1.020  10.621  18.797  0.00  0.00    +0.000 C 
ATOM      7  O   UNL     1       1.801  11.485  19.189  0.00  0.00    +0.000 OA
ENDROOT
BRANCH   1  11
ATOM      8  C   UNL     1      -0.359  14.320  22.310  0.00  0.00    +0.000 A 
ATOM      9  C   UNL     1       0.060  14.867  21.086  0.00  0.00    +0.000 A 
ATOM     10  C   UNL     1      -0.143  14.186  19.889  0.00  0.00    +0.000 A 
ATOM     11  C   UNL     1      -0.734  12.922  19.890  0.00  0.00    +0.000 A 
ATOM     12  C   UNL     1      -1.061  12.338  21.124  0.00  0.00    +0.000 A 
ATOM     13  C   UNL     1      -0.865  13.013  22.340  0.00  0.00    +0.000 A 
BRANCH   8  15
ATOM     14  C   UNL     1      -0.539  16.447  23.304  0.00  0.00    +0.000 C 
ATOM     15  O   UNL     1      -0.276  15.052  23.465  0.00  0.00    +0.000 OA
ENDBRANCH   8  15
BRANCH  13  16
ATOM     16  O   UNL     1      -1.253  12.264  23.419  0.00  0.00    +0.000 OA
ATOM     17  C   UNL     1      -2.620  11.907  23.546  0.00  0.00    +0.000 C 
ENDBRANCH  13  16
ENDBRANCH   1  11
BRANCH   6  18
ATOM     18  C   UNL     1       1.444   9.167  18.634  0.00  0.00    +0.000 C 
BRANCH  18  19
ATOM     19  C   UNL     1       1.675   8.393  19.942  0.00  0.00    +0.000 C 
BRANCH  19  20
ATOM     20  N   UNL     1       0.624   8.458  20.951  0.00  0.00    +0.000 N 
ATOM     21  C   UNL     1       0.649   9.207  22.087  0.00  0.00    +0.000 C 
ATOM     22  N   UNL     1      -0.492   9.077  22.809  0.00  0.00    +0.000 N 
ATOM     23  O   UNL     1       1.561   9.926  22.470  0.00  0.00    +0.000 OA
ATOM     24  H   UNL     1      -0.301   8.205  20.634  0.00  0.00    +0.000 HD
ATOM     25  H   UNL     1      -0.923   8.164  22.802  0.00  0.00    +0.000 HD
ATOM     26  H   UNL     1      -0.431   9.508  23.721  0.00  0.00    +0.000 HD
ENDBRANCH  19  20
BRANCH  19  27
ATOM     27  C   UNL     1       2.002   6.931  19.630  0.00  0.00    +0.000 A 
ATOM     28  C   UNL     1       2.504   6.567  18.373  0.00  0.00    +0.000 A 
ATOM     29  C   UNL     1       2.768   5.221  18.073  0.00  0.00    +0.000 A 
ATOM     30  C   UNL     1       2.531   4.233  19.025  0.00  0.00    +0.000 A 
ATOM     31  C   UNL     1       2.041   4.579  20.280  0.00  0.00    +0.000 A 
ATOM     32  C   UNL     1       1.782   5.918  20.578  0.00  0.00    +0.000 A 
ENDBRANCH  19  27
ENDBRANCH  18  19
ENDBRANCH   6  18
TORSDOF 7
ENDMDL
MODEL 6
REMARK VINA RESULT:      -7.1      2.840      7.596
REMARK  Name = 
REMARK  9 active torsions:
REMARK  status: ('A' for Active; 'I' for Inactive)
REMARK    1  A    between atoms: C_1  and  O_2
REMARK    2  A    between atoms: O_2  and  C_3
REMARK    3  A    between atoms: C_6  and  C_7
REMARK    4  A    between atoms: C_12  and  C_14
REMARK    5  A    between atoms: C_14  and  C_15
REMARK    6  A    between atoms: C_15  and  N_16
REMARK    7  A    between atoms: C_15  and  C_20
REMARK    8  A    between atoms: C_27  and  O_28
REMARK    9  A    between atoms: O_28  and  C_29
REMARK                            x       y       z     vdW  Elec       q    Type
REMARK                         _______ _______ _______ _____ _____    ______ ____
ROOT
ATOM      1  C   UNL     1       0.002  10.425  20.498  0.00  0.00    +0.000 C 
ATOM      2  C   UNL     1      -0.271  10.547  22.006  0.00  0.00    +0.000 C 
ATOM      3  C   UNL     1      -0.494   9.109  22.438  0.00  0.00    +0.000 C 
ATOM      4  C   UNL     1       0.435   8.309  21.535  0.00  0.00    +0.000 C 
ATOM      5  N   UNL     1       0.793   9.194  20.431  0.00  0.00    +0.000 N 
ATOM      6  C   UNL     1       1.588   8.811  19.356  0.00  0.00    +0.000 C 
ATOM      7  O   UNL     1       1.633   9.424  18.292  0.00  0.00    +0.000 OA
ENDROOT
BRANCH   1  11
ATOM      8  C   UNL     1       1.837  14.089  19.113  0.00  0.00    +0.000 A 
ATOM      9  C   UNL     1       0.833  13.463  18.357  0.00  0.00    +0.000 A 
ATOM     10  C   UNL     1       0.230  12.289  18.798  0.00  0.00    +0.000 A 
ATOM     11  C   UNL     1       0.645  11.689  19.987  0.00  0.00    +0.000 A 
ATOM     12  C   UNL     1       1.716  12.265  20.689  0.00  0.00    +0.000 A 
ATOM     13  C   UNL     1       2.332  13.451  20.259  0.00  0.00    +0.000 A 
BRANCH   8  15
ATOM     14  C   UNL     1       3.265  15.270  17.660  0.00  0.00    +0.000 C 
ATOM     15  O   UNL     1       2.331  15.312  18.740  0.00  0.00    +0.000 OA
ENDBRANCH   8  15
BRANCH  13  16
ATOM     16  O   UNL     1       3.351  13.838  21.089  0.00  0.00    +0.000 OA
ATOM     17  C   UNL     1       3.146  14.947  21.950  0.00  0.00    +0.000 C 
ENDBRANCH  13  16
ENDBRANCH   1  11
BRANCH   6  18
ATOM     18  C   UNL     1       2.396   7.543  19.590  0.00  0.00    +0.000 C 
BRANCH  18  19
ATOM     19  C   UNL     1       2.417   6.544  18.422  0.00  0.00    +0.000 C 
BRANCH  19  20
ATOM     20  N   UNL     1       3.678   6.378  17.708  0.00  0.00    +0.000 N 
ATOM     21  C   UNL     1       4.833   5.882  18.228  0.00  0.00    +0.000 C 
ATOM     22  N   UNL     1       5.824   5.824  17.303  0.00  0.00    +0.000 N 
ATOM     23  O   UNL     1       5.023   5.523  19.381  0.00  0.00    +0.000 OA
ATOM     24  H   UNL     1       3.603   6.306  16.704  0.00  0.00    +0.000 HD
ATOM     25  H   UNL     1       5.842   6.567  16.621  0.00  0.00    +0.000 HD
ATOM     26  H   UNL     1       6.724   5.598  17.705  0.00  0.00    +0.000 HD
ENDBRANCH  19  20
BRANCH  19  27
ATOM     27  C   UNL     1       1.906   5.180  18.894  0.00  0.00    +0.000 A 
ATOM     28  C   UNL     1       1.632   4.164  17.968  0.00  0.00    +0.000 A 
ATOM     29  C   UNL     1       1.126   2.927  18.396  0.00  0.00    +0.000 A 
ATOM     30  C   UNL     1       0.890   2.698  19.749  0.00  0.00    +0.000 A 
ATOM     31  C   UNL     1       1.165   3.693  20.682  0.00  0.00    +0.000 A 
ATOM     32  C   UNL     1       1.670   4.923  20.255  0.00  0.00    +0.000 A 
ENDBRANCH  19  27
ENDBRANCH  18  19
ENDBRANCH   6  18
TORSDOF 7
ENDMDL
MODEL 7
REMARK VINA RESULT:      -7.0      3.524      9.023
REMARK  Name = 
REMARK  9 active torsions:
REMARK  status: ('A' for Active; 'I' for Inactive)
REMARK    1  A    between atoms: C_1  and  O_2
REMARK    2  A    between atoms: O_2  and  C_3
REMARK    3  A    between atoms: C_6  and  C_7
REMARK    4  A    between atoms: C_12  and  C_14
REMARK    5  A    between atoms: C_14  and  C_15
REMARK    6  A    between atoms: C_15  and  N_16
REMARK    7  A    between atoms: C_15  and  C_20
REMARK    8  A    between atoms: C_27  and  O_28
REMARK    9  A    between atoms: O_28  and  C_29
REMARK                            x       y       z     vdW  Elec       q    Type
REMARK                         _______ _______ _______ _____ _____    ______ ____
ROOT
ATOM      1  C   UNL     1      -1.272  12.143  18.775  0.00  0.00    +0.000 C 
ATOM      2  C   UNL     1      -2.711  11.619  18.657  0.00  0.00    +0.000 C 
ATOM      3  C   UNL     1      -2.614  10.577  17.556  0.00  0.00    +0.000 C 
ATOM      4  C   UNL     1      -1.224   9.983  17.739  0.00  0.00    +0.000 C 
ATOM      5  N   UNL     1      -0.487  10.922  18.579  0.00  0.00    +0.000 N 
ATOM      6  C   UNL     1       0.850  10.766  18.929  0.00  0.00    +0.000 C 
ATOM      7  O   UNL     1       1.553  11.680  19.354  0.00  0.00    +0.000 OA
ENDROOT
BRANCH   1  11
ATOM      8  C   UNL     1      -0.687  14.274  22.495  0.00  0.00    +0.000 A 
ATOM      9  C   UNL     1      -1.159  12.951  22.495  0.00  0.00    +0.000 A 
ATOM     10  C   UNL     1      -1.341  12.254  21.305  0.00  0.00    +0.000 A 
ATOM     11  C   UNL     1      -1.096  12.876  20.081  0.00  0.00    +0.000 A 
ATOM     12  C   UNL     1      -0.720  14.229  20.081  0.00  0.00    +0.000 A 
ATOM     13  C   UNL     1      -0.528  14.945  21.274  0.00  0.00    +0.000 A 
BRANCH   8  15
ATOM     14  C   UNL     1      -1.458  14.957  24.612  0.00  0.00    +0.000 C 
ATOM     15  O   UNL     1      -0.384  14.906  23.672  0.00  0.00    +0.000 OA
ENDBRANCH   8  15
BRANCH  13  16
ATOM     16  O   UNL     1      -0.162  16.245  21.047  0.00  0.00    +0.000 OA
ATOM     17  C   UNL     1      -1.018  17.070  20.274  0.00  0.00    +0.000 C 
ENDBRANCH  13  16
ENDBRANCH   1  11
BRANCH   6  18
ATOM     18  C   UNL     1       1.395   9.359  18.724  0.00  0.00    +0.000 C 
BRANCH  18  19
ATOM     19  C   UNL     1       1.623   8.542  20.006  0.00  0.00    +0.000 C 
BRANCH  19  20
ATOM     20  N   UNL     1       0.561   8.559  21.006  0.00  0.00    +0.000 N 
ATOM     21  C   UNL     1       0.616   9.169  22.221  0.00  0.00    +0.000 C 
ATOM     22  N   UNL     1      -0.543   9.031  22.913  0.00  0.00    +0.000 N 
ATOM     23  O   UNL     1       1.565   9.778  22.694  0.00  0.00    +0.000 OA
ATOM     24  H   UNL     1      -0.372   8.405  20.653  0.00  0.00    +0.000 HD
ATOM     25  H   UNL     1      -1.031   8.155  22.797  0.00  0.00    +0.000 HD
ATOM     26  H   UNL     1      -0.470   9.349  23.869  0.00  0.00    +0.000 HD
ENDBRANCH  19  20
BRANCH  19  27
ATOM     27  C   UNL     1       1.972   7.096  19.647  0.00  0.00    +0.000 A 
ATOM     28  C   UNL     1       2.470   6.779  18.375  0.00  0.00    +0.000 A 
ATOM     29  C   UNL     1       2.753   5.448  18.032  0.00  0.00    +0.000 A 
ATOM     30  C   UNL     1       2.539   4.427  18.954  0.00  0.00    +0.000 A 
ATOM     31  C   UNL     1       2.053   4.726  20.223  0.00  0.00    +0.000 A 
ATOM     32  C   UNL     1       1.774   6.050  20.564  0.00  0.00    +0.000 A 
ENDBRANCH  19  27
ENDBRANCH  18  19
ENDBRANCH   6  18
TORSDOF 7
ENDMDL
MODEL 8
REMARK VINA RESULT:      -7.0      3.771      8.765
REMARK  Name = 
REMARK  9 active torsions:
REMARK  status: ('A' for Active; 'I' for Inactive)
REMARK    1  A    between atoms: C_1  and  O_2
REMARK    2  A    between atoms: O_2  and  C_3
REMARK    3  A    between atoms: C_6  and  C_7
REMARK    4  A    between atoms: C_12  and  C_14
REMARK    5  A    between atoms: C_14  and  C_15
REMARK    6  A    between atoms: C_15  and  N_16
REMARK    7  A    between atoms: C_15  and  C_20
REMARK    8  A    between atoms: C_27  and  O_28
REMARK    9  A    between atoms: O_28  and  C_29
REMARK                            x       y       z     vdW  Elec       q    Type
REMARK                         _______ _______ _______ _____ _____    ______ ____
ROOT
ATOM      1  C   UNL     1      -0.622  12.471  19.122  0.00  0.00    +0.000 C 
ATOM      2  C   UNL     1       0.001  13.552  18.225  0.00  0.00    +0.000 C 
ATOM      3  C   UNL     1       1.488  13.430  18.511  0.00  0.00    +0.000 C 
ATOM      4  C   UNL     1       1.688  11.942  18.767  0.00  0.00    +0.000 C 
ATOM      5  N   UNL     1       0.361  11.390  19.023  0.00  0.00    +0.000 N 
ATOM      6  C   UNL     1       0.126  10.061  19.359  0.00  0.00    +0.000 C 
ATOM      7  O   UNL     1      -0.916   9.665  19.877  0.00  0.00    +0.000 OA
ENDROOT
BRANCH   1  11
ATOM      8  C   UNL     1      -4.642  11.664  17.744  0.00  0.00    +0.000 A 
ATOM      9  C   UNL     1      -4.403  12.016  19.083  0.00  0.00    +0.000 A 
ATOM     10  C   UNL     1      -3.115  12.287  19.533  0.00  0.00    +0.000 A 
ATOM     11  C   UNL     1      -2.027  12.172  18.667  0.00  0.00    +0.000 A 
ATOM     12  C   UNL     1      -2.260  11.723  17.357  0.00  0.00    +0.000 A 
ATOM     13  C   UNL     1      -3.555  11.450  16.886  0.00  0.00    +0.000 A 
BRANCH   8  15
ATOM     14  C   UNL     1      -6.889  11.201  18.278  0.00  0.00    +0.000 C 
ATOM     15  O   UNL     1      -5.923  11.530  17.277  0.00  0.00    +0.000 OA
ENDBRANCH   8  15
BRANCH  13  16
ATOM     16  O   UNL     1      -3.556  11.029  15.583  0.00  0.00    +0.000 OA
ATOM     17  C   UNL     1      -2.953   9.784  15.268  0.00  0.00    +0.000 C 
ENDBRANCH  13  16
ENDBRANCH   1  11
BRANCH   6  18
ATOM     18  C   UNL     1       1.282   9.119  19.052  0.00  0.00    +0.000 C 
BRANCH  18  19
ATOM     19  C   UNL     1       1.759   8.251  20.226  0.00  0.00    +0.000 C 
BRANCH  19  20
ATOM     20  N   UNL     1       0.937   8.246  21.431  0.00  0.00    +0.000 N 
ATOM     21  C   UNL     1       0.918   9.209  22.392  0.00  0.00    +0.000 C 
ATOM     22  N   UNL     1       0.025   8.932  23.374  0.00  0.00    +0.000 N 
ATOM     23  O   UNL     1       1.602  10.222  22.427  0.00  0.00    +0.000 OA
ATOM     24  H   UNL     1       0.103   7.678  21.387  0.00  0.00    +0.000 HD
ATOM     25  H   UNL     1      -0.083   7.958  23.618  0.00  0.00    +0.000 HD
ATOM     26  H   UNL     1       0.102   9.558  24.164  0.00  0.00    +0.000 HD
ENDBRANCH  19  20
BRANCH  19  27
ATOM     27  C   UNL     1       1.989   6.813  19.752  0.00  0.00    +0.000 A 
ATOM     28  C   UNL     1       2.448   6.558  18.452  0.00  0.00    +0.000 A 
ATOM     29  C   UNL     1       2.622   5.240  18.003  0.00  0.00    +0.000 A 
ATOM     30  C   UNL     1       2.337   4.170  18.847  0.00  0.00    +0.000 A 
ATOM     31  C   UNL     1       1.888   4.407  20.143  0.00  0.00    +0.000 A 
ATOM     32  C   UNL     1       1.719   5.719  20.589  0.00  0.00    +0.000 A 
ENDBRANCH  19  27
ENDBRANCH  18  19
ENDBRANCH   6  18
TORSDOF 7
ENDMDL
MODEL 9
REMARK VINA RESULT:      -6.9      3.395      8.901
REMARK  Name = 
REMARK  9 active torsions:
REMARK  status: ('A' for Active; 'I' for Inactive)
REMARK    1  A    between atoms: C_1  and  O_2
REMARK    2  A    between atoms: O_2  and  C_3
REMARK    3  A    between atoms: C_6  and  C_7
REMARK    4  A    between atoms: C_12  and  C_14
REMARK    5  A    between atoms: C_14  and  C_15
REMARK    6  A    between atoms: C_15  and  N_16
REMARK    7  A    between atoms: C_15  and  C_20
REMARK    8  A    between atoms: C_27  and  O_28
REMARK    9  A    between atoms: O_28  and  C_29
REMARK                            x       y       z     vdW  Elec       q    Type
REMARK                         _______ _______ _______ _____ _____    ______ ____
ROOT
ATOM      1  C   UNL     1      -1.195  12.130  18.659  0.00  0.00    +0.000 C 
ATOM      2  C   UNL     1      -2.654  11.661  18.545  0.00  0.00    +0.000 C 
ATOM      3  C   UNL     1      -2.593  10.587  17.473  0.00  0.00    +0.000 C 
ATOM      4  C   UNL     1      -1.229   9.943  17.681  0.00  0.00    +0.000 C 
ATOM      5  N   UNL     1      -0.459  10.874  18.500  0.00  0.00    +0.000 N 
ATOM      6  C   UNL     1       0.868  10.672  18.864  0.00  0.00    +0.000 C 
ATOM      7  O   UNL     1       1.605  11.568  19.270  0.00  0.00    +0.000 OA
ENDROOT
BRANCH   1  11
ATOM      8  C   UNL     1      -0.544  14.324  22.330  0.00  0.00    +0.000 A 
ATOM      9  C   UNL     1      -1.173  13.068  22.351  0.00  0.00    +0.000 A 
ATOM     10  C   UNL     1      -1.378  12.351  21.177  0.00  0.00    +0.000 A 
ATOM     11  C   UNL     1      -0.998  12.889  19.947  0.00  0.00    +0.000 A 
ATOM     12  C   UNL     1      -0.461  14.186  19.922  0.00  0.00    +0.000 A 
ATOM     13  C   UNL     1      -0.243  14.921  21.098  0.00  0.00    +0.000 A 
BRANCH   8  15
ATOM     14  C   UNL     1      -1.246  14.917  24.499  0.00  0.00    +0.000 C 
ATOM     15  O   UNL     1      -0.225  14.963  23.500  0.00  0.00    +0.000 OA
ENDBRANCH   8  15
BRANCH  13  16
ATOM     16  O   UNL     1       0.289  16.158  20.847  0.00  0.00    +0.000 OA
ATOM     17  C   UNL     1       1.629  16.244  20.390  0.00  0.00    +0.000 C 
ENDBRANCH  13  16
ENDBRANCH   1  11
BRANCH   6  18
ATOM     18  C   UNL     1       1.356   9.240  18.699  0.00  0.00    +0.000 C 
BRANCH  18  19
ATOM     19  C   UNL     1       1.640   8.481  20.005  0.00  0.00    +0.000 C 
BRANCH  19  20
ATOM     20  N   UNL     1       0.577   8.447  21.002  0.00  0.00    +0.000 N 
ATOM     21  C   UNL     1       0.479   9.249  22.097  0.00  0.00    +0.000 C 
ATOM     22  N   UNL     1      -0.642   8.994  22.817  0.00  0.00    +0.000 N 
ATOM     23  O   UNL     1       1.273  10.109  22.448  0.00  0.00    +0.000 OA
ATOM     24  H   UNL     1      -0.298   8.048  20.692  0.00  0.00    +0.000 HD
ATOM     25  H   UNL     1      -0.938   8.029  22.856  0.00  0.00    +0.000 HD
ATOM     26  H   UNL     1      -0.657   9.475  23.705  0.00  0.00    +0.000 HD
ENDBRANCH  19  20
BRANCH  19  27
ATOM     27  C   UNL     1       2.100   7.055  19.690  0.00  0.00    +0.000 A 
ATOM     28  C   UNL     1       1.827   6.007  20.579  0.00  0.00    +0.000 A 
ATOM     29  C   UNL     1       2.282   4.707  20.310  0.00  0.00    +0.000 A 
ATOM     30  C   UNL     1       3.012   4.447  19.154  0.00  0.00    +0.000 A 
ATOM     31  C   UNL     1       3.285   5.475  18.257  0.00  0.00    +0.000 A 
ATOM     32  C   UNL     1       2.830   6.767  18.524  0.00  0.00    +0.000 A 
ENDBRANCH  19  27
ENDBRANCH  18  19
ENDBRANCH   6  18
TORSDOF 7
ENDMDL
