MODEL 1
REMARK VINA RESULT:      -6.5      0.000      0.000
REMARK  Name = 
REMARK  12 active torsions:
REMARK  status: ('A' for Active; 'I' for Inactive)
REMARK    1  A    between atoms: C_1  and  C_2
REMARK    2  A    between atoms: C_2  and  O_3
REMARK    3  A    between atoms: O_3  and  C_4
REMARK    4  A    between atoms: N_9  and  C_10
REMARK    5  A    between atoms: C_10  and  C_11
REMARK    6  A    between atoms: C_11  and  O_12
REMARK    7  A    between atoms: C_11  and  C_13
REMARK    8  A    between atoms: C_13  and  O_14
REMARK    9  A    between atoms: O_14  and  C_15
REMARK   10  A    between atoms: C_17  and  C_18
REMARK   11  A    between atoms: C_20  and  C_21
REMARK   12  A    between atoms: C_20  and  C_22
REMARK                            x       y       z     vdW  Elec       q    Type
REMARK                         _______ _______ _______ _____ _____    ______ ____
ROOT
ATOM      1  C   UNL     1       1.824   6.421  19.873  0.00  0.00    +0.000 C 
ENDROOT
BRANCH   1   2
ATOM      2  O   UNL     1       2.002   5.702  21.107  0.00  0.00    +0.000 OA
ATOM      3  H   UNL     1       1.571   4.834  21.006  0.00  0.00    +0.000 HD
ENDBRANCH   1   2
BRANCH   1   4
ATOM      4  C   UNL     1       2.779   5.879  18.785  0.00  0.00    +0.000 C 
BRANCH   4  10
ATOM      5  C   UNL     1       7.029   4.807  16.338  0.00  0.00    +0.000 C 
ATOM      6  O   UNL     1       7.965   4.221  16.860  0.00  0.00    +0.000 OA
ATOM      7  N   UNL     1       5.746   4.866  16.851  0.00  0.00    +0.000 N 
ATOM      8  C   UNL     1       5.452   4.248  18.153  0.00  0.00    +0.000 C 
ATOM      9  C   UNL     1       5.168   5.316  19.234  0.00  0.00    +0.000 C 
ATOM     10  N   UNL     1       4.181   6.360  18.848  0.00  0.00    +0.000 NA
ATOM     11  C   UNL     1       4.599   6.935  17.543  0.00  0.00    +0.000 C 
ATOM     12  C   UNL     1       4.782   5.882  16.430  0.00  0.00    +0.000 C 
BRANCH   5  13
ATOM     13  O   UNL     1       7.121   5.521  15.181  0.00  0.00    +0.000 OA
BRANCH  13  15
ATOM     14  C   UNL     1       6.189   3.917  13.696  0.00  0.00    +0.000 C 
ATOM     15  C   UNL     1       7.404   4.776  13.995  0.00  0.00    +0.000 C 
ENDBRANCH  13  15
ENDBRANCH   5  13
ENDBRANCH   4  10
ENDBRANCH   1   4
BRANCH   1  16
ATOM     16  C   UNL     1       2.066   7.908  20.187  0.00  0.00    +0.000 C 
BRANCH  16  17
ATOM     17  O   UNL     1       0.930   8.779  20.054  0.00  0.00    +0.000 OA
BRANCH  17  18
ATOM     18  C   UNL     1       1.121   9.729  18.982  0.00  0.00    +0.000 C 
ATOM     19  C   UNL     1       0.103   9.533  17.844  0.00  0.00    +0.000 C 
ATOM     20  C   UNL     1      -1.270  10.172  18.106  0.00  0.00    +0.000 C 
ATOM     21  C   UNL     1      -2.178  10.047  16.879  0.00  0.00    +0.000 C 
ATOM     22  C   UNL     1      -1.131  11.654  18.502  0.00  0.00    +0.000 C 
ATOM     23  C   UNL     1      -0.215  11.857  19.725  0.00  0.00    +0.000 C 
ATOM     24  C   UNL     1      -0.915  11.328  20.992  0.00  0.00    +0.000 C 
ATOM     25  C   UNL     1       0.058  13.360  19.950  0.00  0.00    +0.000 C 
ATOM     26  C   UNL     1       1.153  11.194  19.445  0.00  0.00    +0.000 C 
ENDBRANCH  17  18
ENDBRANCH  16  17
ENDBRANCH   1  16
TORSDOF 8
ENDMDL
MODEL 2
REMARK VINA RESULT:      -6.5      3.460      9.403
REMARK  Name = 
REMARK  12 active torsions:
REMARK  status: ('A' for Active; 'I' for Inactive)
REMARK    1  A    between atoms: C_1  and  C_2
REMARK    2  A    between atoms: C_2  and  O_3
REMARK    3  A    between atoms: O_3  and  C_4
REMARK    4  A    between atoms: N_9  and  C_10
REMARK    5  A    between atoms: C_10  and  C_11
REMARK    6  A    between atoms: C_11  and  O_12
REMARK    7  A    between atoms: C_11  and  C_13
REMARK    8  A    between atoms: C_13  and  O_14
REMARK    9  A    between atoms: O_14  and  C_15
REMARK   10  A    between atoms: C_17  and  C_18
REMARK   11  A    between atoms: C_20  and  C_21
REMARK   12  A    between atoms: C_20  and  C_22
REMARK                            x       y       z     vdW  Elec       q    Type
REMARK                         _______ _______ _______ _____ _____    ______ ____
ROOT
ATOM      1  C   UNL     1       1.509   9.515  18.088  0.00  0.00    +0.000 C 
ENDROOT
BRANCH   1   2
ATOM      2  O   UNL     1       2.102  10.609  17.365  0.00  0.00    +0.000 OA
ATOM      3  H   UNL     1       2.923  10.280  16.956  0.00  0.00    +0.000 HD
ENDBRANCH   1   2
BRANCH   1   4
ATOM      4  C   UNL     1       1.144   9.948  19.527  0.00  0.00    +0.000 C 
BRANCH   4  10
ATOM      5  C   UNL     1      -2.333  12.180  22.377  0.00  0.00    +0.000 C 
ATOM      6  O   UNL     1      -2.636  11.778  23.490  0.00  0.00    +0.000 OA
ATOM      7  N   UNL     1      -1.200  11.802  21.679  0.00  0.00    +0.000 N 
ATOM      8  C   UNL     1      -0.296  10.793  22.250  0.00  0.00    +0.000 C 
ATOM      9  C   UNL     1      -0.359   9.465  21.459  0.00  0.00    +0.000 C 
ATOM     10  N   UNL     1      -0.225   9.601  19.984  0.00  0.00    +0.000 NA
ATOM     11  C   UNL     1      -1.206  10.614  19.519  0.00  0.00    +0.000 C 
ATOM     12  C   UNL     1      -1.078  11.977  20.233  0.00  0.00    +0.000 C 
BRANCH   5  13
ATOM     13  O   UNL     1      -3.090  13.042  21.641  0.00  0.00    +0.000 OA
BRANCH  13  15
ATOM     14  C   UNL     1      -4.996  13.228  20.234  0.00  0.00    +0.000 C 
ATOM     15  C   UNL     1      -4.492  12.774  21.591  0.00  0.00    +0.000 C 
ENDBRANCH  13  15
ENDBRANCH   5  13
ENDBRANCH   4  10
ENDBRANCH   1   4
BRANCH   1  16
ATOM     16  C   UNL     1       2.524   8.359  18.055  0.00  0.00    +0.000 C 
BRANCH  16  17
ATOM     17  O   UNL     1       2.094   7.118  18.638  0.00  0.00    +0.000 OA
BRANCH  17  18
ATOM     18  C   UNL     1       2.610   5.987  17.902  0.00  0.00    +0.000 C 
ATOM     19  C   UNL     1       4.148   5.924  17.934  0.00  0.00    +0.000 C 
ATOM     20  C   UNL     1       4.729   5.300  19.213  0.00  0.00    +0.000 C 
ATOM     21  C   UNL     1       6.251   5.154  19.111  0.00  0.00    +0.000 C 
ATOM     22  C   UNL     1       4.093   3.927  19.504  0.00  0.00    +0.000 C 
ATOM     23  C   UNL     1       2.557   3.996  19.606  0.00  0.00    +0.000 C 
ATOM     24  C   UNL     1       2.153   4.735  20.897  0.00  0.00    +0.000 C 
ATOM     25  C   UNL     1       1.959   2.575  19.689  0.00  0.00    +0.000 C 
ATOM     26  C   UNL     1       1.996   4.639  18.318  0.00  0.00    +0.000 C 
ENDBRANCH  17  18
ENDBRANCH  16  17
ENDBRANCH   1  16
TORSDOF 8
ENDMDL
MODEL 3
REMARK VINA RESULT:      -6.5      5.415      7.715
REMARK  Name = 
REMARK  12 active torsions:
REMARK  status: ('A' for Active; 'I' for Inactive)
REMARK    1  A    between atoms: C_1  and  C_2
REMARK    2  A    between atoms: C_2  and  O_3
REMARK    3  A    between atoms: O_3  and  C_4
REMARK    4  A    between atoms: N_9  and  C_10
REMARK    5  A    between atoms: C_10  and  C_11
REMARK    6  A    between atoms: C_11  and  O_12
REMARK    7  A    between atoms: C_11  and  C_13
REMARK    8  A    between atoms: C_13  and  O_14
REMARK    9  A    between atoms: O_14  and  C_15
REMARK   10  A    between atoms: C_17  and  C_18
REMARK   11  A    between atoms: C_20  and  C_21
REMARK   12  A    between atoms: C_20  and  C_22
REMARK                            x       y       z     vdW  Elec       q    Type
REMARK                         _______ _______ _______ _____ _____    ______ ____
ROOT
ATOM      1  C   UNL     1       7.630   7.863  18.086  0.00  0.00    +0.000 C 
ENDROOT
BRANCH   1   2
ATOM      2  O   UNL     1       8.562   7.284  19.019  0.00  0.00    +0.000 OA
ATOM      3  H   UNL     1       8.389   7.683  19.891  0.00  0.00    +0.000 HD
ENDBRANCH   1   2
BRANCH   1   4
ATOM      4  C   UNL     1       7.269   6.847  16.977  0.00  0.00    +0.000 C 
BRANCH   4  10
ATOM      5  C   UNL     1       3.183   3.995  17.587  0.00  0.00    +0.000 C 
ATOM      6  O   UNL     1       2.717   3.306  16.693  0.00  0.00    +0.000 OA
ATOM      7  N   UNL     1       4.447   4.557  17.576  0.00  0.00    +0.000 N 
ATOM      8  C   UNL     1       5.307   4.394  16.394  0.00  0.00    +0.000 C 
ATOM      9  C   UNL     1       5.485   5.731  15.637  0.00  0.00    +0.000 C 
ATOM     10  N   UNL     1       5.870   6.891  16.483  0.00  0.00    +0.000 NA
ATOM     11  C   UNL     1       4.915   6.977  17.618  0.00  0.00    +0.000 C 
ATOM     12  C   UNL     1       4.812   5.676  18.443  0.00  0.00    +0.000 C 
BRANCH   5  13
ATOM     13  O   UNL     1       2.509   4.342  18.719  0.00  0.00    +0.000 OA
BRANCH  13  15
ATOM     14  C   UNL     1       0.899   3.722  20.354  0.00  0.00    +0.000 C 
ATOM     15  C   UNL     1       2.127   3.271  19.584  0.00  0.00    +0.000 C 
ENDBRANCH  13  15
ENDBRANCH   5  13
ENDBRANCH   4  10
ENDBRANCH   1   4
BRANCH   1  16
ATOM     16  C   UNL     1       8.291   9.137  17.531  0.00  0.00    +0.000 C 
BRANCH  16  17
ATOM     17  O   UNL     1       8.347  10.263  18.422  0.00  0.00    +0.000 OA
BRANCH  17  18
ATOM     18  C   UNL     1       9.697  10.506  18.875  0.00  0.00    +0.000 C 
ATOM     19  C   UNL     1      10.567  11.162  17.787  0.00  0.00    +0.000 C 
ATOM     20  C   UNL     1      10.383  12.682  17.661  0.00  0.00    +0.000 C 
ATOM     21  C   UNL     1      11.373  13.275  16.654  0.00  0.00    +0.000 C 
ATOM     22  C   UNL     1      10.548  13.380  19.025  0.00  0.00    +0.000 C 
ATOM     23  C   UNL     1       9.590  12.823  20.096  0.00  0.00    +0.000 C 
ATOM     24  C   UNL     1       8.144  13.249  19.773  0.00  0.00    +0.000 C 
ATOM     25  C   UNL     1       9.937  13.403  21.484  0.00  0.00    +0.000 C 
ATOM     26  C   UNL     1       9.781  11.292  20.194  0.00  0.00    +0.000 C 
ENDBRANCH  17  18
ENDBRANCH  16  17
ENDBRANCH   1  16
TORSDOF 8
ENDMDL
MODEL 4
REMARK VINA RESULT:      -6.4      5.811      7.756
REMARK  Name = 
REMARK  12 active torsions:
REMARK  status: ('A' for Active; 'I' for Inactive)
REMARK    1  A    between atoms: C_1  and  C_2
REMARK    2  A    between atoms: C_2  and  O_3
REMARK    3  A    between atoms: O_3  and  C_4
REMARK    4  A    between atoms: N_9  and  C_10
REMARK    5  A    between atoms: C_10  and  C_11
REMARK    6  A    between atoms: C_11  and  O_12
REMARK    7  A    between atoms: C_11  and  C_13
REMARK    8  A    between atoms: C_13  and  O_14
REMARK    9  A    between atoms: O_14  and  C_15
REMARK   10  A    between atoms: C_17  and  C_18
REMARK   11  A    between atoms: C_20  and  C_21
REMARK   12  A    between atoms: C_20  and  C_22
REMARK                            x       y       z     vdW  Elec       q    Type
REMARK                         _______ _______ _______ _____ _____    ______ ____
ROOT
ATOM      1  C   UNL     1       7.857   8.363  18.354  0.00  0.00    +0.000 C 
ENDROOT
BRANCH   1   2
ATOM      2  O   UNL     1       8.857   7.633  19.089  0.00  0.00    +0.000 OA
ATOM      3  H   UNL     1       9.612   7.486  18.491  0.00  0.00    +0.000 HD
ENDBRANCH   1   2
BRANCH   1   4
ATOM      4  C   UNL     1       7.285   7.498  17.208  0.00  0.00    +0.000 C 
BRANCH   4  10
ATOM      5  C   UNL     1       4.615   3.512  18.685  0.00  0.00    +0.000 C 
ATOM      6  O   UNL     1       4.859   2.893  19.709  0.00  0.00    +0.000 OA
ATOM      7  N   UNL     1       5.108   4.768  18.382  0.00  0.00    +0.000 N 
ATOM      8  C   UNL     1       6.054   5.421  19.300  0.00  0.00    +0.000 C 
ATOM      9  C   UNL     1       7.473   5.498  18.688  0.00  0.00    +0.000 C 
ATOM     10  N   UNL     1       7.536   6.038  17.304  0.00  0.00    +0.000 NA
ATOM     11  C   UNL     1       6.571   5.282  16.465  0.00  0.00    +0.000 C 
ATOM     12  C   UNL     1       5.129   5.291  17.016  0.00  0.00    +0.000 C 
BRANCH   5  13
ATOM     13  O   UNL     1       3.840   3.038  17.669  0.00  0.00    +0.000 OA
BRANCH  13  15
ATOM     14  C   UNL     1       1.633   2.464  18.338  0.00  0.00    +0.000 C 
ATOM     15  C   UNL     1       3.003   1.921  17.976  0.00  0.00    +0.000 C 
ENDBRANCH  13  15
ENDBRANCH   5  13
ENDBRANCH   4  10
ENDBRANCH   1   4
BRANCH   1  16
ATOM     16  C   UNL     1       8.530   9.650  17.848  0.00  0.00    +0.000 C 
BRANCH  16  17
ATOM     17  O   UNL     1       8.613  10.735  18.787  0.00  0.00    +0.000 OA
BRANCH  17  18
ATOM     18  C   UNL     1       9.987  11.030  19.125  0.00  0.00    +0.000 C 
ATOM     19  C   UNL     1      10.792  11.525  17.910  0.00  0.00    +0.000 C 
ATOM     20  C   UNL     1      10.599  13.015  17.586  0.00  0.00    +0.000 C 
ATOM     21  C   UNL     1      11.529  13.456  16.452  0.00  0.00    +0.000 C 
ATOM     22  C   UNL     1      10.839  13.893  18.829  0.00  0.00    +0.000 C 
ATOM     23  C   UNL     1       9.944  13.494  20.019  0.00  0.00    +0.000 C 
ATOM     24  C   UNL     1       8.482  13.881  19.722  0.00  0.00    +0.000 C 
ATOM     25  C   UNL     1      10.368  14.258  21.291  0.00  0.00    +0.000 C 
ATOM     26  C   UNL     1      10.144  11.991  20.316  0.00  0.00    +0.000 C 
ENDBRANCH  17  18
ENDBRANCH  16  17
ENDBRANCH   1  16
TORSDOF 8
ENDMDL
MODEL 5
REMARK VINA RESULT:      -6.4      3.532      9.657
REMARK  Name = 
REMARK  12 active torsions:
REMARK  status: ('A' for Active; 'I' for Inactive)
REMARK    1  A    between atoms: C_1  and  C_2
REMARK    2  A    between atoms: C_2  and  O_3
REMARK    3  A    between atoms: O_3  and  C_4
REMARK    4  A    between atoms: N_9  and  C_10
REMARK    5  A    between atoms: C_10  and  C_11
REMARK    6  A    between atoms: C_11  and  O_12
REMARK    7  A    between atoms: C_11  and  C_13
REMARK    8  A    between atoms: C_13  and  O_14
REMARK    9  A    between atoms: O_14  and  C_15
REMARK   10  A    between atoms: C_17  and  C_18
REMARK   11  A    between atoms: C_20  and  C_21
REMARK   12  A    between atoms: C_20  and  C_22
REMARK                            x       y       z     vdW  Elec       q    Type
REMARK                         _______ _______ _______ _____ _____    ______ ____
ROOT
ATOM      1  C   UNL     1       1.512   9.437  17.860  0.00  0.00    +0.000 C 
ENDROOT
BRANCH   1   2
ATOM      2  O   UNL     1       2.201  10.585  17.332  0.00  0.00    +0.000 OA
ATOM      3  H   UNL     1       1.889  11.367  17.823  0.00  0.00    +0.000 HD
ENDBRANCH   1   2
BRANCH   1   4
ATOM      4  C   UNL     1       0.722   9.815  19.134  0.00  0.00    +0.000 C 
BRANCH   4  10
ATOM      5  C   UNL     1      -2.420  12.876  21.573  0.00  0.00    +0.000 C 
ATOM      6  O   UNL     1      -3.053  13.760  21.014  0.00  0.00    +0.000 OA
ATOM      7  N   UNL     1      -1.784  11.830  20.930  0.00  0.00    +0.000 N 
ATOM      8  C   UNL     1      -1.784  11.769  19.461  0.00  0.00    +0.000 C 
ATOM      9  C   UNL     1      -0.374  12.042  18.884  0.00  0.00    +0.000 C 
ATOM     10  N   UNL     1       0.725  11.253  19.501  0.00  0.00    +0.000 NA
ATOM     11  C   UNL     1       0.646  11.419  20.976  0.00  0.00    +0.000 C 
ATOM     12  C   UNL     1      -0.728  11.046  21.570  0.00  0.00    +0.000 C 
BRANCH   5  13
ATOM     13  O   UNL     1      -2.222  12.810  22.920  0.00  0.00    +0.000 OA
BRANCH  13  15
ATOM     14  C   UNL     1      -3.839  13.543  24.500  0.00  0.00    +0.000 C 
ATOM     15  C   UNL     1      -3.327  12.357  23.704  0.00  0.00    +0.000 C 
ENDBRANCH  13  15
ENDBRANCH   5  13
ENDBRANCH   4  10
ENDBRANCH   1   4
BRANCH   1  16
ATOM     16  C   UNL     1       2.579   8.360  18.119  0.00  0.00    +0.000 C 
BRANCH  16  17
ATOM     17  O   UNL     1       2.107   7.115  18.661  0.00  0.00    +0.000 OA
BRANCH  17  18
ATOM     18  C   UNL     1       2.630   5.990  17.920  0.00  0.00    +0.000 C 
ATOM     19  C   UNL     1       4.168   5.932  17.959  0.00  0.00    +0.000 C 
ATOM     20  C   UNL     1       4.745   5.303  19.237  0.00  0.00    +0.000 C 
ATOM     21  C   UNL     1       6.268   5.163  19.142  0.00  0.00    +0.000 C 
ATOM     22  C   UNL     1       4.113   3.926  19.517  0.00  0.00    +0.000 C 
ATOM     23  C   UNL     1       2.575   3.989  19.612  0.00  0.00    +0.000 C 
ATOM     24  C   UNL     1       2.163   4.719  20.905  0.00  0.00    +0.000 C 
ATOM     25  C   UNL     1       1.982   2.565  19.683  0.00  0.00    +0.000 C 
ATOM     26  C   UNL     1       2.019   4.638  18.325  0.00  0.00    +0.000 C 
ENDBRANCH  17  18
ENDBRANCH  16  17
ENDBRANCH   1  16
TORSDOF 8
ENDMDL
MODEL 6
REMARK VINA RESULT:      -6.3      5.295      7.922
REMARK  Name = 
REMARK  12 active torsions:
REMARK  status: ('A' for Active; 'I' for Inactive)
REMARK    1  A    between atoms: C_1  and  C_2
REMARK    2  A    between atoms: C_2  and  O_3
REMARK    3  A    between atoms: O_3  and  C_4
REMARK    4  A    between atoms: N_9  and  C_10
REMARK    5  A    between atoms: C_10  and  C_11
REMARK    6  A    between atoms: C_11  and  O_12
REMARK    7  A    between atoms: C_11  and  C_13
REMARK    8  A    between atoms: C_13  and  O_14
REMARK    9  A    between atoms: O_14  and  C_15
REMARK   10  A    between atoms: C_17  and  C_18
REMARK   11  A    between atoms: C_20  and  C_21
REMARK   12  A    between atoms: C_20  and  C_22
REMARK                            x       y       z     vdW  Elec       q    Type
REMARK                         _______ _______ _______ _____ _____    ______ ____
ROOT
ATOM      1  C   UNL     1       7.591   7.532  18.156  0.00  0.00    +0.000 C 
ENDROOT
BRANCH   1   2
ATOM      2  O   UNL     1       8.503   6.951  19.105  0.00  0.00    +0.000 OA
ATOM      3  H   UNL     1       9.265   7.553  19.186  0.00  0.00    +0.000 HD
ENDBRANCH   1   2
BRANCH   1   4
ATOM      4  C   UNL     1       7.267   6.527  17.026  0.00  0.00    +0.000 C 
BRANCH   4  10
ATOM      5  C   UNL     1       2.917   4.085  17.583  0.00  0.00    +0.000 C 
ATOM      6  O   UNL     1       2.454   3.351  16.723  0.00  0.00    +0.000 OA
ATOM      7  N   UNL     1       4.222   4.539  17.617  0.00  0.00    +0.000 N 
ATOM      8  C   UNL     1       5.143   4.193  16.524  0.00  0.00    +0.000 C 
ATOM      9  C   UNL     1       5.488   5.431  15.662  0.00  0.00    +0.000 C 
ATOM     10  N   UNL     1       5.914   6.634  16.426  0.00  0.00    +0.000 NA
ATOM     11  C   UNL     1       4.895   6.906  17.472  0.00  0.00    +0.000 C 
ATOM     12  C   UNL     1       4.624   5.705  18.402  0.00  0.00    +0.000 C 
BRANCH   5  13
ATOM     13  O   UNL     1       2.199   4.593  18.624  0.00  0.00    +0.000 OA
BRANCH  13  15
ATOM     14  C   UNL     1       1.949   4.403  20.980  0.00  0.00    +0.000 C 
ATOM     15  C   UNL     1       1.835   3.673  19.654  0.00  0.00    +0.000 C 
ENDBRANCH  13  15
ENDBRANCH   5  13
ENDBRANCH   4  10
ENDBRANCH   1   4
BRANCH   1  16
ATOM     16  C   UNL     1       8.253   8.819  17.634  0.00  0.00    +0.000 C 
BRANCH  16  17
ATOM     17  O   UNL     1       9.016   9.574  18.589  0.00  0.00    +0.000 OA
BRANCH  17  18
ATOM     18  C   UNL     1       8.617  10.962  18.598  0.00  0.00    +0.000 C 
ATOM     19  C   UNL     1       8.545  11.536  20.025  0.00  0.00    +0.000 C 
ATOM     20  C   UNL     1       9.901  11.967  20.604  0.00  0.00    +0.000 C 
ATOM     21  C   UNL     1       9.728  12.645  21.967  0.00  0.00    +0.000 C 
ATOM     22  C   UNL     1      10.644  12.915  19.642  0.00  0.00    +0.000 C 
ATOM     23  C   UNL     1      10.842  12.303  18.242  0.00  0.00    +0.000 C 
ATOM     24  C   UNL     1      11.877  11.163  18.315  0.00  0.00    +0.000 C 
ATOM     25  C   UNL     1      11.397  13.361  17.265  0.00  0.00    +0.000 C 
ATOM     26  C   UNL     1       9.468  11.863  17.687  0.00  0.00    +0.000 C 
ENDBRANCH  17  18
ENDBRANCH  16  17
ENDBRANCH   1  16
TORSDOF 8
ENDMDL
MODEL 7
REMARK VINA RESULT:      -6.2      3.553      9.515
REMARK  Name = 
REMARK  12 active torsions:
REMARK  status: ('A' for Active; 'I' for Inactive)
REMARK    1  A    between atoms: C_1  and  C_2
REMARK    2  A    between atoms: C_2  and  O_3
REMARK    3  A    between atoms: O_3  and  C_4
REMARK    4  A    between atoms: N_9  and  C_10
REMARK    5  A    between atoms: C_10  and  C_11
REMARK    6  A    between atoms: C_11  and  O_12
REMARK    7  A    between atoms: C_11  and  C_13
REMARK    8  A    between atoms: C_13  and  O_14
REMARK    9  A    between atoms: O_14  and  C_15
REMARK   10  A    between atoms: C_17  and  C_18
REMARK   11  A    between atoms: C_20  and  C_21
REMARK   12  A    between atoms: C_20  and  C_22
REMARK                            x       y       z     vdW  Elec       q    Type
REMARK                         _______ _______ _______ _____ _____    ______ ____
ROOT
ATOM      1  C   UNL     1       1.475   9.149  18.201  0.00  0.00    +0.000 C 
ENDROOT
BRANCH   1   2
ATOM      2  O   UNL     1       2.247  10.052  17.389  0.00  0.00    +0.000 OA
ATOM      3  H   UNL     1       2.281  10.908  17.853  0.00  0.00    +0.000 HD
ENDBRANCH   1   2
BRANCH   1   4
ATOM      4  C   UNL     1       1.059   9.829  19.526  0.00  0.00    +0.000 C 
BRANCH   4  10
ATOM      5  C   UNL     1      -2.286  12.212  22.411  0.00  0.00    +0.000 C 
ATOM      6  O   UNL     1      -2.589  11.828  23.531  0.00  0.00    +0.000 OA
ATOM      7  N   UNL     1      -1.179  11.785  21.701  0.00  0.00    +0.000 N 
ATOM      8  C   UNL     1      -0.308  10.744  22.265  0.00  0.00    +0.000 C 
ATOM      9  C   UNL     1      -0.434   9.416  21.482  0.00  0.00    +0.000 C 
ATOM     10  N   UNL     1      -0.315   9.539  20.005  0.00  0.00    +0.000 NA
ATOM     11  C   UNL     1      -1.263  10.588  19.547  0.00  0.00    +0.000 C 
ATOM     12  C   UNL     1      -1.070  11.948  20.252  0.00  0.00    +0.000 C 
BRANCH   5  13
ATOM     13  O   UNL     1      -3.018  13.100  21.681  0.00  0.00    +0.000 OA
BRANCH  13  15
ATOM     14  C   UNL     1      -4.820  14.434  22.471  0.00  0.00    +0.000 C 
ATOM     15  C   UNL     1      -3.313  14.349  22.310  0.00  0.00    +0.000 C 
ENDBRANCH  13  15
ENDBRANCH   5  13
ENDBRANCH   4  10
ENDBRANCH   1   4
BRANCH   1  16
ATOM     16  C   UNL     1       2.343   7.898  18.422  0.00  0.00    +0.000 C 
BRANCH  16  17
ATOM     17  O   UNL     1       1.864   6.955  19.395  0.00  0.00    +0.000 OA
BRANCH  17  18
ATOM     18  C   UNL     1       2.910   6.045  19.802  0.00  0.00    +0.000 C 
ATOM     19  C   UNL     1       2.455   5.107  20.934  0.00  0.00    +0.000 C 
ATOM     20  C   UNL     1       1.643   3.891  20.461  0.00  0.00    +0.000 C 
ATOM     21  C   UNL     1       1.343   2.942  21.626  0.00  0.00    +0.000 C 
ATOM     22  C   UNL     1       2.379   3.127  19.344  0.00  0.00    +0.000 C 
ATOM     23  C   UNL     1       2.727   4.025  18.141  0.00  0.00    +0.000 C 
ATOM     24  C   UNL     1       1.439   4.397  17.380  0.00  0.00    +0.000 C 
ATOM     25  C   UNL     1       3.640   3.271  17.151  0.00  0.00    +0.000 C 
ATOM     26  C   UNL     1       3.529   5.248  18.642  0.00  0.00    +0.000 C 
ENDBRANCH  17  18
ENDBRANCH  16  17
ENDBRANCH   1  16
TORSDOF 8
ENDMDL
MODEL 8
REMARK VINA RESULT:      -6.2      3.286      9.356
REMARK  Name = 
REMARK  12 active torsions:
REMARK  status: ('A' for Active; 'I' for Inactive)
REMARK    1  A    between atoms: C_1  and  C_2
REMARK    2  A    between atoms: C_2  and  O_3
REMARK    3  A    between atoms: O_3  and  C_4
REMARK    4  A    between atoms: N_9  and  C_10
REMARK    5  A    between atoms: C_10  and  C_11
REMARK    6  A    between atoms: C_11  and  O_12
REMARK    7  A    between atoms: C_11  and  C_13
REMARK    8  A    between atoms: C_13  and  O_14
REMARK    9  A    between atoms: O_14  and  C_15
REMARK   10  A    between atoms: C_17  and  C_18
REMARK   11  A    between atoms: C_20  and  C_21
REMARK   12  A    between atoms: C_20  and  C_22
REMARK                            x       y       z     vdW  Elec       q    Type
REMARK                         _______ _______ _______ _____ _____    ______ ____
ROOT
ATOM      1  C   UNL     1       1.480   9.244  18.164  0.00  0.00    +0.000 C 
ENDROOT
BRANCH   1   2
ATOM      2  O   UNL     1       1.941  10.284  17.282  0.00  0.00    +0.000 OA
ATOM      3  H   UNL     1       1.155  10.710  16.895  0.00  0.00    +0.000 HD
ENDBRANCH   1   2
BRANCH   1   4
ATOM      4  C   UNL     1       1.151   9.822  19.560  0.00  0.00    +0.000 C 
BRANCH   4  10
ATOM      5  C   UNL     1      -2.322  12.848  21.555  0.00  0.00    +0.000 C 
ATOM      6  O   UNL     1      -2.690  12.760  22.716  0.00  0.00    +0.000 OA
ATOM      7  N   UNL     1      -1.182  12.259  21.038  0.00  0.00    +0.000 N 
ATOM      8  C   UNL     1      -0.354  11.398  21.896  0.00  0.00    +0.000 C 
ATOM      9  C   UNL     1      -0.452   9.914  21.470  0.00  0.00    +0.000 C 
ATOM     10  N   UNL     1      -0.251   9.658  20.019  0.00  0.00    +0.000 NA
ATOM     11  C   UNL     1      -1.161  10.553  19.258  0.00  0.00    +0.000 C 
ATOM     12  C   UNL     1      -0.993  12.048  19.604  0.00  0.00    +0.000 C 
BRANCH   5  13
ATOM     13  O   UNL     1      -3.003  13.519  20.584  0.00  0.00    +0.000 OA
BRANCH  13  15
ATOM     14  C   UNL     1      -4.708  12.321  19.441  0.00  0.00    +0.000 C 
ATOM     15  C   UNL     1      -4.417  13.319  20.546  0.00  0.00    +0.000 C 
ENDBRANCH  13  15
ENDBRANCH   5  13
ENDBRANCH   4  10
ENDBRANCH   1   4
BRANCH   1  16
ATOM     16  C   UNL     1       2.586   8.177  18.208  0.00  0.00    +0.000 C 
BRANCH  16  17
ATOM     17  O   UNL     1       2.178   6.826  17.939  0.00  0.00    +0.000 OA
BRANCH  17  18
ATOM     18  C   UNL     1       2.682   5.916  18.942  0.00  0.00    +0.000 C 
ATOM     19  C   UNL     1       2.131   4.489  18.762  0.00  0.00    +0.000 C 
ATOM     20  C   UNL     1       2.865   3.656  17.700  0.00  0.00    +0.000 C 
ATOM     21  C   UNL     1       2.345   2.215  17.674  0.00  0.00    +0.000 C 
ATOM     22  C   UNL     1       4.387   3.656  17.943  0.00  0.00    +0.000 C 
ATOM     23  C   UNL     1       4.979   5.078  17.995  0.00  0.00    +0.000 C 
ATOM     24  C   UNL     1       4.953   5.704  16.587  0.00  0.00    +0.000 C 
ATOM     25  C   UNL     1       6.454   5.031  18.446  0.00  0.00    +0.000 C 
ATOM     26  C   UNL     1       4.215   5.902  19.057  0.00  0.00    +0.000 C 
ENDBRANCH  17  18
ENDBRANCH  16  17
ENDBRANCH   1  16
TORSDOF 8
ENDMDL
MODEL 9
REMARK VINA RESULT:      -6.2      3.338      9.530
REMARK  Name = 
REMARK  12 active torsions:
REMARK  status: ('A' for Active; 'I' for Inactive)
REMARK    1  A    between atoms: C_1  and  C_2
REMARK    2  A    between atoms: C_2  and  O_3
REMARK    3  A    between atoms: O_3  and  C_4
REMARK    4  A    between atoms: N_9  and  C_10
REMARK    5  A    between atoms: C_10  and  C_11
REMARK    6  A    between atoms: C_11  and  O_12
REMARK    7  A    between atoms: C_11  and  C_13
REMARK    8  A    between atoms: C_13  and  O_14
REMARK    9  A    between atoms: O_14  and  C_15
REMARK   10  A    between atoms: C_17  and  C_18
REMARK   11  A    between atoms: C_20  and  C_21
REMARK   12  A    between atoms: C_20  and  C_22
REMARK                            x       y       z     vdW  Elec       q    Type
REMARK                         _______ _______ _______ _____ _____    ______ ____
ROOT
ATOM      1  C   UNL     1       1.191   9.383  18.011  0.00  0.00    +0.000 C 
ENDROOT
BRANCH   1   2
ATOM      2  O   UNL     1       2.069  10.293  17.325  0.00  0.00    +0.000 OA
ATOM      3  H   UNL     1       2.451   9.816  16.566  0.00  0.00    +0.000 HD
ENDBRANCH   1   2
BRANCH   1   4
ATOM      4  C   UNL     1       0.270  10.149  18.990  0.00  0.00    +0.000 C 
BRANCH   4  10
ATOM      5  C   UNL     1      -0.850  13.399  22.648  0.00  0.00    +0.000 C 
ATOM      6  O   UNL     1      -0.175  14.390  22.884  0.00  0.00    +0.000 OA
ATOM      7  N   UNL     1      -0.770  12.644  21.492  0.00  0.00    +0.000 N 
ATOM      8  C   UNL     1       0.231  12.980  20.469  0.00  0.00    +0.000 C 
ATOM      9  C   UNL     1       1.345  11.909  20.394  0.00  0.00    +0.000 C 
ATOM     10  N   UNL     1       0.866  10.505  20.302  0.00  0.00    +0.000 NA
ATOM     11  C   UNL     1      -0.107  10.271  21.400  0.00  0.00    +0.000 C 
ATOM     12  C   UNL     1      -1.279  11.275  21.415  0.00  0.00    +0.000 C 
BRANCH   5  13
ATOM     13  O   UNL     1      -1.763  12.870  23.510  0.00  0.00    +0.000 OA
BRANCH  13  15
ATOM     14  C   UNL     1      -3.959  12.671  24.395  0.00  0.00    +0.000 C 
ATOM     15  C   UNL     1      -3.006  13.565  23.625  0.00  0.00    +0.000 C 
ENDBRANCH  13  15
ENDBRANCH   5  13
ENDBRANCH   4  10
ENDBRANCH   1   4
BRANCH   1  16
ATOM     16  C   UNL     1       2.085   8.353  18.721  0.00  0.00    +0.000 C 
BRANCH  16  17
ATOM     17  O   UNL     1       2.154   7.049  18.121  0.00  0.00    +0.000 OA
BRANCH  17  18
ATOM     18  C   UNL     1       2.712   6.079  19.035  0.00  0.00    +0.000 C 
ATOM     19  C   UNL     1       2.158   4.664  18.791  0.00  0.00    +0.000 C 
ATOM     20  C   UNL     1       2.841   3.907  17.641  0.00  0.00    +0.000 C 
ATOM     21  C   UNL     1       2.326   2.467  17.548  0.00  0.00    +0.000 C 
ATOM     22  C   UNL     1       4.373   3.902  17.805  0.00  0.00    +0.000 C 
ATOM     23  C   UNL     1       4.961   5.323  17.920  0.00  0.00    +0.000 C 
ATOM     24  C   UNL     1       4.860   6.038  16.559  0.00  0.00    +0.000 C 
ATOM     25  C   UNL     1       6.457   5.257  18.291  0.00  0.00    +0.000 C 
ATOM     26  C   UNL     1       4.250   6.069  19.071  0.00  0.00    +0.000 C 
ENDBRANCH  17  18
ENDBRANCH  16  17
ENDBRANCH   1  16
TORSDOF 8
ENDMDL
