MODEL 1
REMARK VINA RESULT:      -9.2      0.000      0.000
REMARK  Name = 
REMARK  4 active torsions:
REMARK  status: ('A' for Active; 'I' for Inactive)
REMARK    1  A    between atoms: C_1  and  C_2
REMARK    2  A    between atoms: N_14  and  C_15
REMARK    3  A    between atoms: N_14  and  C_16
REMARK    4  A    between atoms: C_16  and  C_17
REMARK                            x       y       z     vdW  Elec       q    Type
REMARK                         _______ _______ _______ _____ _____    ______ ____
ROOT
ATOM      1  C   UNL     1       0.214  11.716  18.814  0.00  0.00    +0.000 C 
ATOM      2  C   UNL     1       0.763  10.367  19.132  0.00  0.00    +0.000 A 
ATOM      3  C   UNL     1       0.600   9.765  20.375  0.00  0.00    +0.000 A 
ATOM      4  C   UNL     1       1.139   8.495  20.608  0.00  0.00    +0.000 A 
ATOM      5  C   UNL     1       1.846   7.829  19.613  0.00  0.00    +0.000 A 
ATOM      6  N   UNL     1       2.421   6.590  19.807  0.00  0.00    +0.000 N 
ATOM      7  C   UNL     1       1.927   5.592  20.739  0.00  0.00    +0.000 C 
ATOM      8  C   UNL     1       1.411   4.391  19.955  0.00  0.00    +0.000 C 
ATOM      9  C   UNL     1       2.417   3.901  18.947  0.00  0.00    +0.000 A 
ATOM     10  N   UNL     1       2.281   2.610  18.584  0.00  0.00    +0.000 NA
ATOM     11  C   UNL     1       3.173   2.168  17.703  0.00  0.00    +0.000 A 
ATOM     12  N   UNL     1       4.177   2.879  17.173  0.00  0.00    +0.000 NA
ATOM     13  C   UNL     1       4.302   4.183  17.513  0.00  0.00    +0.000 A 
ATOM     14  N   UNL     1       5.379   4.855  16.949  0.00  0.00    +0.000 N 
ATOM     15  C   UNL     1       5.286   6.220  16.459  0.00  0.00    +0.000 C 
ATOM     16  C   UNL     1       3.398   4.748  18.424  0.00  0.00    +0.000 A 
ATOM     17  C   UNL     1       3.498   6.171  18.905  0.00  0.00    +0.000 C 
ATOM     18  N   UNL     1       2.010   8.428  18.406  0.00  0.00    +0.000 NA
ATOM     19  C   UNL     1       1.470   9.647  18.186  0.00  0.00    +0.000 A 
ENDROOT
BRANCH  14  20
ATOM     20  C   UNL     1       6.505   4.068  16.439  0.00  0.00    +0.000 C 
BRANCH  20  21
ATOM     21  C   UNL     1       6.618   4.229  14.938  0.00  0.00    +0.000 A 
ATOM     22  C   UNL     1       7.648   4.993  14.368  0.00  0.00    +0.000 A 
ATOM     23  C   UNL     1       7.723   5.161  12.983  0.00  0.00    +0.000 A 
ATOM     24  C   UNL     1       6.776   4.559  12.155  0.00  0.00    +0.000 A 
ATOM     25  C   UNL     1       5.767   3.776  12.715  0.00  0.00    +0.000 A 
ATOM     26 CL   UNL     1       4.603   3.028  11.692  0.00  0.00    +0.000 Cl
ATOM     27  C   UNL     1       5.687   3.604  14.094  0.00  0.00    +0.000 A 
ENDBRANCH  20  21
ENDBRANCH  14  20
TORSDOF 2
ENDMDL
MODEL 2
REMARK VINA RESULT:      -8.7      1.021      1.379
REMARK  Name = 
REMARK  4 active torsions:
REMARK  status: ('A' for Active; 'I' for Inactive)
REMARK    1  A    between atoms: C_1  and  C_2
REMARK    2  A    between atoms: N_14  and  C_15
REMARK    3  A    between atoms: N_14  and  C_16
REMARK    4  A    between atoms: C_16  and  C_17
REMARK                            x       y       z     vdW  Elec       q    Type
REMARK                         _______ _______ _______ _____ _____    ______ ____
ROOT
ATOM      1  C   UNL     1      -0.008  11.733  18.772  0.00  0.00    +0.000 C 
ATOM      2  C   UNL     1       0.568  10.402  19.120  0.00  0.00    +0.000 A 
ATOM      3  C   UNL     1       0.403   9.819  20.372  0.00  0.00    +0.000 A 
ATOM      4  C   UNL     1       0.969   8.566  20.634  0.00  0.00    +0.000 A 
ATOM      5  C   UNL     1       1.702   7.899  19.660  0.00  0.00    +0.000 A 
ATOM      6  N   UNL     1       2.304   6.677  19.883  0.00  0.00    +0.000 N 
ATOM      7  C   UNL     1       1.821   5.685  20.826  0.00  0.00    +0.000 C 
ATOM      8  C   UNL     1       1.342   4.459  20.059  0.00  0.00    +0.000 C 
ATOM      9  C   UNL     1       2.371   3.974  19.071  0.00  0.00    +0.000 A 
ATOM     10  N   UNL     1       2.269   2.674  18.730  0.00  0.00    +0.000 NA
ATOM     11  C   UNL     1       3.182   2.237  17.867  0.00  0.00    +0.000 A 
ATOM     12  N   UNL     1       4.176   2.961  17.337  0.00  0.00    +0.000 NA
ATOM     13  C   UNL     1       4.266   4.273  17.654  0.00  0.00    +0.000 A 
ATOM     14  N   UNL     1       5.335   4.960  17.091  0.00  0.00    +0.000 N 
ATOM     15  C   UNL     1       5.216   6.314  16.575  0.00  0.00    +0.000 C 
ATOM     16  C   UNL     1       3.339   4.834  18.544  0.00  0.00    +0.000 A 
ATOM     17  C   UNL     1       3.401   6.267  19.000  0.00  0.00    +0.000 C 
ATOM     18  N   UNL     1       1.868   8.480  18.444  0.00  0.00    +0.000 NA
ATOM     19  C   UNL     1       1.302   9.682  18.196  0.00  0.00    +0.000 A 
ENDROOT
BRANCH  14  20
ATOM     20  C   UNL     1       6.484   4.191  16.608  0.00  0.00    +0.000 C 
BRANCH  20  21
ATOM     21  C   UNL     1       6.553   4.246  15.097  0.00  0.00    +0.000 A 
ATOM     22  C   UNL     1       5.674   3.492  14.304  0.00  0.00    +0.000 A 
ATOM     23  C   UNL     1       5.769   3.525  12.911  0.00  0.00    +0.000 A 
ATOM     24  C   UNL     1       6.736   4.320  12.297  0.00  0.00    +0.000 A 
ATOM     25  C   UNL     1       7.593   5.093  13.079  0.00  0.00    +0.000 A 
ATOM     26 CL   UNL     1       8.782   6.079  12.320  0.00  0.00    +0.000 Cl
ATOM     27  C   UNL     1       7.503   5.065  14.468  0.00  0.00    +0.000 A 
ENDBRANCH  20  21
ENDBRANCH  14  20
TORSDOF 2
ENDMDL
MODEL 3
REMARK VINA RESULT:      -8.1      3.579      8.426
REMARK  Name = 
REMARK  4 active torsions:
REMARK  status: ('A' for Active; 'I' for Inactive)
REMARK    1  A    between atoms: C_1  and  C_2
REMARK    2  A    between atoms: N_14  and  C_15
REMARK    3  A    between atoms: N_14  and  C_16
REMARK    4  A    between atoms: C_16  and  C_17
REMARK                            x       y       z     vdW  Elec       q    Type
REMARK                         _______ _______ _______ _____ _____    ______ ____
ROOT
ATOM      1  C   UNL     1       7.170   5.034  15.269  0.00  0.00    +0.000 C 
ATOM      2  C   UNL     1       5.937   5.281  16.071  0.00  0.00    +0.000 A 
ATOM      3  C   UNL     1       5.084   4.256  16.468  0.00  0.00    +0.000 A 
ATOM      4  C   UNL     1       3.944   4.555  17.221  0.00  0.00    +0.000 A 
ATOM      5  C   UNL     1       3.646   5.868  17.571  0.00  0.00    +0.000 A 
ATOM      6  N   UNL     1       2.518   6.213  18.286  0.00  0.00    +0.000 N 
ATOM      7  C   UNL     1       1.849   5.342  19.236  0.00  0.00    +0.000 C 
ATOM      8  C   UNL     1       1.994   5.927  20.635  0.00  0.00    +0.000 C 
ATOM      9  C   UNL     1       1.591   7.378  20.684  0.00  0.00    +0.000 A 
ATOM     10  N   UNL     1       1.211   7.825  21.898  0.00  0.00    +0.000 NA
ATOM     11  C   UNL     1       0.843   9.103  21.946  0.00  0.00    +0.000 A 
ATOM     12  N   UNL     1       0.807   9.951  20.911  0.00  0.00    +0.000 NA
ATOM     13  C   UNL     1       1.214   9.515  19.696  0.00  0.00    +0.000 A 
ATOM     14  N   UNL     1       1.127  10.438  18.661  0.00  0.00    +0.000 N 
ATOM     15  C   UNL     1       2.150  10.572  17.637  0.00  0.00    +0.000 C 
ATOM     16  C   UNL     1       1.638   8.187  19.546  0.00  0.00    +0.000 A 
ATOM     17  C   UNL     1       2.048   7.600  18.221  0.00  0.00    +0.000 C 
ATOM     18  N   UNL     1       4.478   6.863  17.170  0.00  0.00    +0.000 NA
ATOM     19  C   UNL     1       5.586   6.561  16.458  0.00  0.00    +0.000 A 
ENDROOT
BRANCH  14  20
ATOM     20  C   UNL     1       0.229  11.584  18.820  0.00  0.00    +0.000 C 
BRANCH  20  21
ATOM     21  C   UNL     1      -1.181  11.205  18.421  0.00  0.00    +0.000 A 
ATOM     22  C   UNL     1      -1.419  10.161  17.512  0.00  0.00    +0.000 A 
ATOM     23  C   UNL     1      -2.723   9.841  17.125  0.00  0.00    +0.000 A 
ATOM     24  C   UNL     1      -3.801  10.553  17.650  0.00  0.00    +0.000 A 
ATOM     25  C   UNL     1      -3.571  11.572  18.574  0.00  0.00    +0.000 A 
ATOM     26 CL   UNL     1      -4.903  12.446  19.227  0.00  0.00    +0.000 Cl
ATOM     27  C   UNL     1      -2.274  11.895  18.965  0.00  0.00    +0.000 A 
ENDBRANCH  20  21
ENDBRANCH  14  20
TORSDOF 2
ENDMDL
MODEL 4
REMARK VINA RESULT:      -7.7      2.858      8.227
REMARK  Name = 
REMARK  4 active torsions:
REMARK  status: ('A' for Active; 'I' for Inactive)
REMARK    1  A    between atoms: C_1  and  C_2
REMARK    2  A    between atoms: N_14  and  C_15
REMARK    3  A    between atoms: N_14  and  C_16
REMARK    4  A    between atoms: C_16  and  C_17
REMARK                            x       y       z     vdW  Elec       q    Type
REMARK                         _______ _______ _______ _____ _____    ______ ____
ROOT
ATOM      1  C   UNL     1       7.050   5.030  15.481  0.00  0.00    +0.000 C 
ATOM      2  C   UNL     1       5.817   5.337  16.261  0.00  0.00    +0.000 A 
ATOM      3  C   UNL     1       4.913   4.353  16.651  0.00  0.00    +0.000 A 
ATOM      4  C   UNL     1       3.775   4.708  17.384  0.00  0.00    +0.000 A 
ATOM      5  C   UNL     1       3.531   6.034  17.722  0.00  0.00    +0.000 A 
ATOM      6  N   UNL     1       2.407   6.434  18.416  0.00  0.00    +0.000 N 
ATOM      7  C   UNL     1       1.686   5.600  19.361  0.00  0.00    +0.000 C 
ATOM      8  C   UNL     1       1.835   6.188  20.759  0.00  0.00    +0.000 C 
ATOM      9  C   UNL     1       1.496   7.655  20.793  0.00  0.00    +0.000 A 
ATOM     10  N   UNL     1       1.117   8.127  21.998  0.00  0.00    +0.000 NA
ATOM     11  C   UNL     1       0.806   9.420  22.032  0.00  0.00    +0.000 A 
ATOM     12  N   UNL     1       0.824  10.263  20.992  0.00  0.00    +0.000 NA
ATOM     13  C   UNL     1       1.230   9.801  19.786  0.00  0.00    +0.000 A 
ATOM     14  N   UNL     1       1.200  10.720  18.744  0.00  0.00    +0.000 N 
ATOM     15  C   UNL     1       2.244  10.801  17.736  0.00  0.00    +0.000 C 
ATOM     16  C   UNL     1       1.596   8.454  19.651  0.00  0.00    +0.000 A 
ATOM     17  C   UNL     1       2.001   7.841  18.336  0.00  0.00    +0.000 C 
ATOM     18  N   UNL     1       4.412   6.989  17.328  0.00  0.00    +0.000 NA
ATOM     19  C   UNL     1       5.517   6.633  16.636  0.00  0.00    +0.000 A 
ENDROOT
BRANCH  14  20
ATOM     20  C   UNL     1       0.352  11.906  18.882  0.00  0.00    +0.000 C 
BRANCH  20  21
ATOM     21  C   UNL     1      -1.069  11.584  18.469  0.00  0.00    +0.000 A 
ATOM     22  C   UNL     1      -2.162  12.046  19.219  0.00  0.00    +0.000 A 
ATOM     23  C   UNL     1      -3.468  11.715  18.846  0.00  0.00    +0.000 A 
ATOM     24  C   UNL     1      -3.693  10.930  17.716  0.00  0.00    +0.000 A 
ATOM     25  C   UNL     1      -2.611  10.493  16.952  0.00  0.00    +0.000 A 
ATOM     26 CL   UNL     1      -2.890   9.529  15.554  0.00  0.00    +0.000 Cl
ATOM     27  C   UNL     1      -1.308  10.820  17.318  0.00  0.00    +0.000 A 
ENDBRANCH  20  21
ENDBRANCH  14  20
TORSDOF 2
ENDMDL
MODEL 5
REMARK VINA RESULT:      -7.1      5.451     10.758
REMARK  Name = 
REMARK  4 active torsions:
REMARK  status: ('A' for Active; 'I' for Inactive)
REMARK    1  A    between atoms: C_1  and  C_2
REMARK    2  A    between atoms: N_14  and  C_15
REMARK    3  A    between atoms: N_14  and  C_16
REMARK    4  A    between atoms: C_16  and  C_17
REMARK                            x       y       z     vdW  Elec       q    Type
REMARK                         _______ _______ _______ _____ _____    ______ ____
ROOT
ATOM      1  C   UNL     1       4.208   6.839  17.209  0.00  0.00    +0.000 C 
ATOM      2  C   UNL     1       3.176   7.313  18.175  0.00  0.00    +0.000 A 
ATOM      3  C   UNL     1       2.832   6.594  19.315  0.00  0.00    +0.000 A 
ATOM      4  C   UNL     1       1.856   7.096  20.184  0.00  0.00    +0.000 A 
ATOM      5  C   UNL     1       1.218   8.303  19.917  0.00  0.00    +0.000 A 
ATOM      6  N   UNL     1       0.229   8.820  20.728  0.00  0.00    +0.000 N 
ATOM      7  C   UNL     1       0.125   8.574  22.155  0.00  0.00    +0.000 C 
ATOM      8  C   UNL     1       0.372   9.877  22.905  0.00  0.00    +0.000 C 
ATOM      9  C   UNL     1      -0.476  11.003  22.373  0.00  0.00    +0.000 A 
ATOM     10  N   UNL     1      -0.704  12.008  23.243  0.00  0.00    +0.000 NA
ATOM     11  C   UNL     1      -1.462  13.000  22.783  0.00  0.00    +0.000 A 
ATOM     12  N   UNL     1      -2.013  13.071  21.565  0.00  0.00    +0.000 NA
ATOM     13  C   UNL     1      -1.765  12.079  20.678  0.00  0.00    +0.000 A 
ATOM     14  N   UNL     1      -2.388  12.201  19.443  0.00  0.00    +0.000 N 
ATOM     15  C   UNL     1      -1.726  11.869  18.191  0.00  0.00    +0.000 C 
ATOM     16  C   UNL     1      -0.961  10.995  21.063  0.00  0.00    +0.000 A 
ATOM     17  C   UNL     1      -0.684   9.820  20.164  0.00  0.00    +0.000 C 
ATOM     18  N   UNL     1       1.553   8.992  18.797  0.00  0.00    +0.000 NA
ATOM     19  C   UNL     1       2.509   8.507  17.974  0.00  0.00    +0.000 A 
ENDROOT
BRANCH  14  20
ATOM     20  C   UNL     1      -3.561  13.071  19.334  0.00  0.00    +0.000 C 
BRANCH  20  21
ATOM     21  C   UNL     1      -4.830  12.256  19.456  0.00  0.00    +0.000 A 
ATOM     22  C   UNL     1      -5.238  11.394  18.426  0.00  0.00    +0.000 A 
ATOM     23  C   UNL     1      -6.429  10.672  18.535  0.00  0.00    +0.000 A 
ATOM     24  C   UNL     1      -7.218  10.796  19.679  0.00  0.00    +0.000 A 
ATOM     25  C   UNL     1      -6.803  11.630  20.716  0.00  0.00    +0.000 A 
ATOM     26 CL   UNL     1      -7.773  11.778  22.130  0.00  0.00    +0.000 Cl
ATOM     27  C   UNL     1      -5.616  12.352  20.614  0.00  0.00    +0.000 A 
ENDBRANCH  20  21
ENDBRANCH  14  20
TORSDOF 2
ENDMDL
MODEL 6
REMARK VINA RESULT:      -6.7      6.753     10.361
REMARK  Name = 
REMARK  4 active torsions:
REMARK  status: ('A' for Active; 'I' for Inactive)
REMARK    1  A    between atoms: C_1  and  C_2
REMARK    2  A    between atoms: N_14  and  C_15
REMARK    3  A    between atoms: N_14  and  C_16
REMARK    4  A    between atoms: C_16  and  C_17
REMARK                            x       y       z     vdW  Elec       q    Type
REMARK                         _______ _______ _______ _____ _____    ______ ____
ROOT
ATOM      1  C   UNL     1      -6.352  17.687  23.855  0.00  0.00    +0.000 C 
ATOM      2  C   UNL     1      -6.123  16.401  23.136  0.00  0.00    +0.000 A 
ATOM      3  C   UNL     1      -6.999  15.324  23.229  0.00  0.00    +0.000 A 
ATOM      4  C   UNL     1      -6.727  14.145  22.527  0.00  0.00    +0.000 A 
ATOM      5  C   UNL     1      -5.585  14.032  21.741  0.00  0.00    +0.000 A 
ATOM      6  N   UNL     1      -5.260  12.880  21.056  0.00  0.00    +0.000 N 
ATOM      7  C   UNL     1      -6.229  11.916  20.564  0.00  0.00    +0.000 C 
ATOM      8  C   UNL     1      -6.212  11.926  19.041  0.00  0.00    +0.000 C 
ATOM      9  C   UNL     1      -4.816  11.786  18.492  0.00  0.00    +0.000 A 
ATOM     10  N   UNL     1      -4.740  11.293  17.239  0.00  0.00    +0.000 NA
ATOM     11  C   UNL     1      -3.510  11.156  16.753  0.00  0.00    +0.000 A 
ATOM     12  N   UNL     1      -2.372  11.447  17.395  0.00  0.00    +0.000 NA
ATOM     13  C   UNL     1      -2.442  11.968  18.643  0.00  0.00    +0.000 A 
ATOM     14  N   UNL     1      -1.225  12.222  19.262  0.00  0.00    +0.000 N 
ATOM     15  C   UNL     1      -0.983  13.411  20.065  0.00  0.00    +0.000 C 
ATOM     16  C   UNL     1      -3.697  12.167  19.237  0.00  0.00    +0.000 A 
ATOM     17  C   UNL     1      -3.867  12.683  20.641  0.00  0.00    +0.000 C 
ATOM     18  N   UNL     1      -4.730  15.084  21.665  0.00  0.00    +0.000 NA
ATOM     19  C   UNL     1      -5.012  16.224  22.333  0.00  0.00    +0.000 A 
ENDROOT
BRANCH  14  20
ATOM     20  C   UNL     1      -0.032  11.530  18.771  0.00  0.00    +0.000 C 
BRANCH  20  21
ATOM     21  C   UNL     1       0.288  10.345  19.657  0.00  0.00    +0.000 A 
ATOM     22  C   UNL     1      -0.299  10.211  20.925  0.00  0.00    +0.000 A 
ATOM     23  C   UNL     1       0.029   9.130  21.748  0.00  0.00    +0.000 A 
ATOM     24  C   UNL     1       0.939   8.170  21.307  0.00  0.00    +0.000 A 
ATOM     25  C   UNL     1       1.504   8.284  20.038  0.00  0.00    +0.000 A 
ATOM     26 CL   UNL     1       2.621   7.094  19.492  0.00  0.00    +0.000 Cl
ATOM     27  C   UNL     1       1.180   9.358  19.212  0.00  0.00    +0.000 A 
ENDBRANCH  20  21
ENDBRANCH  14  20
TORSDOF 2
ENDMDL
MODEL 7
REMARK VINA RESULT:      -6.7      7.130     10.621
REMARK  Name = 
REMARK  4 active torsions:
REMARK  status: ('A' for Active; 'I' for Inactive)
REMARK    1  A    between atoms: C_1  and  C_2
REMARK    2  A    between atoms: N_14  and  C_15
REMARK    3  A    between atoms: N_14  and  C_16
REMARK    4  A    between atoms: C_16  and  C_17
REMARK                            x       y       z     vdW  Elec       q    Type
REMARK                         _______ _______ _______ _____ _____    ______ ____
ROOT
ATOM      1  C   UNL     1      -5.489  18.334  24.048  0.00  0.00    +0.000 C 
ATOM      2  C   UNL     1      -5.382  16.991  23.409  0.00  0.00    +0.000 A 
ATOM      3  C   UNL     1      -6.265  15.954  23.693  0.00  0.00    +0.000 A 
ATOM      4  C   UNL     1      -6.110  14.717  23.057  0.00  0.00    +0.000 A 
ATOM      5  C   UNL     1      -5.078  14.508  22.149  0.00  0.00    +0.000 A 
ATOM      6  N   UNL     1      -4.868  13.297  21.523  0.00  0.00    +0.000 N 
ATOM      7  C   UNL     1      -5.913  12.332  21.229  0.00  0.00    +0.000 C 
ATOM      8  C   UNL     1      -6.085  12.227  19.719  0.00  0.00    +0.000 C 
ATOM      9  C   UNL     1      -4.771  12.000  19.017  0.00  0.00    +0.000 A 
ATOM     10  N   UNL     1      -4.863  11.413  17.806  0.00  0.00    +0.000 NA
ATOM     11  C   UNL     1      -3.706  11.199  17.187  0.00  0.00    +0.000 A 
ATOM     12  N   UNL     1      -2.490  11.499  17.661  0.00  0.00    +0.000 NA
ATOM     13  C   UNL     1      -2.394  12.114  18.863  0.00  0.00    +0.000 A 
ATOM     14  N   UNL     1      -1.103  12.373  19.308  0.00  0.00    +0.000 N 
ATOM     15  C   UNL     1      -0.735  13.609  19.980  0.00  0.00    +0.000 C 
ATOM     16  C   UNL     1      -3.560  12.398  19.589  0.00  0.00    +0.000 A 
ATOM     17  C   UNL     1      -3.543  13.023  20.958  0.00  0.00    +0.000 C 
ATOM     18  N   UNL     1      -4.214  15.521  21.887  0.00  0.00    +0.000 NA
ATOM     19  C   UNL     1      -4.383  16.717  22.494  0.00  0.00    +0.000 A 
ENDROOT
BRANCH  14  20
ATOM     20  C   UNL     1       0.003  11.606  18.731  0.00  0.00    +0.000 C 
BRANCH  20  21
ATOM     21  C   UNL     1       0.410  10.488  19.667  0.00  0.00    +0.000 A 
ATOM     22  C   UNL     1       1.175   9.404  19.210  0.00  0.00    +0.000 A 
ATOM     23  C   UNL     1       1.517   8.362  20.075  0.00  0.00    +0.000 A 
ATOM     24  C   UNL     1       1.108   8.399  21.407  0.00  0.00    +0.000 A 
ATOM     25  C   UNL     1       0.372   9.488  21.874  0.00  0.00    +0.000 A 
ATOM     26 CL   UNL     1      -0.127   9.536  23.520  0.00  0.00    +0.000 Cl
ATOM     27  C   UNL     1       0.029  10.530  21.016  0.00  0.00    +0.000 A 
ENDBRANCH  20  21
ENDBRANCH  14  20
TORSDOF 2
ENDMDL
MODEL 8
REMARK VINA RESULT:      -6.6      3.431      8.419
REMARK  Name = 
REMARK  4 active torsions:
REMARK  status: ('A' for Active; 'I' for Inactive)
REMARK    1  A    between atoms: C_1  and  C_2
REMARK    2  A    between atoms: N_14  and  C_15
REMARK    3  A    between atoms: N_14  and  C_16
REMARK    4  A    between atoms: C_16  and  C_17
REMARK                            x       y       z     vdW  Elec       q    Type
REMARK                         _______ _______ _______ _____ _____    ______ ____
ROOT
ATOM      1  C   UNL     1       7.382   5.042  15.463  0.00  0.00    +0.000 C 
ATOM      2  C   UNL     1       6.112   5.311  16.197  0.00  0.00    +0.000 A 
ATOM      3  C   UNL     1       5.192   4.311  16.494  0.00  0.00    +0.000 A 
ATOM      4  C   UNL     1       4.020   4.630  17.188  0.00  0.00    +0.000 A 
ATOM      5  C   UNL     1       3.758   5.939  17.579  0.00  0.00    +0.000 A 
ATOM      6  N   UNL     1       2.602   6.305  18.237  0.00  0.00    +0.000 N 
ATOM      7  C   UNL     1       1.838   5.427  19.104  0.00  0.00    +0.000 C 
ATOM      8  C   UNL     1       1.918   5.945  20.535  0.00  0.00    +0.000 C 
ATOM      9  C   UNL     1       1.576   7.409  20.624  0.00  0.00    +0.000 A 
ATOM     10  N   UNL     1       1.139   7.822  21.831  0.00  0.00    +0.000 NA
ATOM     11  C   UNL     1       0.824   9.112  21.913  0.00  0.00    +0.000 A 
ATOM     12  N   UNL     1       0.891  10.004  20.917  0.00  0.00    +0.000 NA
ATOM     13  C   UNL     1       1.355   9.602  19.711  0.00  0.00    +0.000 A 
ATOM     14  N   UNL     1       1.374  10.570  18.715  0.00  0.00    +0.000 N 
ATOM     15  C   UNL     1       2.465  10.700  17.763  0.00  0.00    +0.000 C 
ATOM     16  C   UNL     1       1.730   8.263  19.528  0.00  0.00    +0.000 A 
ATOM     17  C   UNL     1       2.198   7.714  18.206  0.00  0.00    +0.000 C 
ATOM     18  N   UNL     1       4.656   6.911  17.275  0.00  0.00    +0.000 NA
ATOM     19  C   UNL     1       5.793   6.588  16.620  0.00  0.00    +0.000 A 
ENDROOT
BRANCH  14  20
ATOM     20  C   UNL     1       0.518  11.749  18.870  0.00  0.00    +0.000 C 
BRANCH  20  21
ATOM     21  C   UNL     1       1.352  12.957  19.239  0.00  0.00    +0.000 A 
ATOM     22  C   UNL     1       1.586  13.291  20.582  0.00  0.00    +0.000 A 
ATOM     23  C   UNL     1       2.330  14.427  20.911  0.00  0.00    +0.000 A 
ATOM     24  C   UNL     1       2.855  15.233  19.902  0.00  0.00    +0.000 A 
ATOM     25  C   UNL     1       2.649  14.890  18.566  0.00  0.00    +0.000 A 
ATOM     26 CL   UNL     1       3.303  15.882  17.321  0.00  0.00    +0.000 Cl
ATOM     27  C   UNL     1       1.909  13.759  18.232  0.00  0.00    +0.000 A 
ENDBRANCH  20  21
ENDBRANCH  14  20
TORSDOF 2
ENDMDL
MODEL 9
REMARK VINA RESULT:      -6.6      3.617      8.485
REMARK  Name = 
REMARK  4 active torsions:
REMARK  status: ('A' for Active; 'I' for Inactive)
REMARK    1  A    between atoms: C_1  and  C_2
REMARK    2  A    between atoms: N_14  and  C_15
REMARK    3  A    between atoms: N_14  and  C_16
REMARK    4  A    between atoms: C_16  and  C_17
REMARK                            x       y       z     vdW  Elec       q    Type
REMARK                         _______ _______ _______ _____ _____    ______ ____
ROOT
ATOM      1  C   UNL     1       7.248   5.058  15.433  0.00  0.00    +0.000 C 
ATOM      2  C   UNL     1       5.993   5.333  16.190  0.00  0.00    +0.000 A 
ATOM      3  C   UNL     1       5.077   4.336  16.508  0.00  0.00    +0.000 A 
ATOM      4  C   UNL     1       3.918   4.660  17.223  0.00  0.00    +0.000 A 
ATOM      5  C   UNL     1       3.667   5.971  17.614  0.00  0.00    +0.000 A 
ATOM      6  N   UNL     1       2.525   6.342  18.293  0.00  0.00    +0.000 N 
ATOM      7  C   UNL     1       1.775   5.468  19.177  0.00  0.00    +0.000 C 
ATOM      8  C   UNL     1       1.884   5.990  20.605  0.00  0.00    +0.000 C 
ATOM      9  C   UNL     1       1.547   7.456  20.696  0.00  0.00    +0.000 A 
ATOM     10  N   UNL     1       1.134   7.873  21.910  0.00  0.00    +0.000 NA
ATOM     11  C   UNL     1       0.824   9.164  21.994  0.00  0.00    +0.000 A 
ATOM     12  N   UNL     1       0.874  10.053  20.994  0.00  0.00    +0.000 NA
ATOM     13  C   UNL     1       1.314   9.646  19.781  0.00  0.00    +0.000 A 
ATOM     14  N   UNL     1       1.317  10.612  18.782  0.00  0.00    +0.000 N 
ATOM     15  C   UNL     1       2.390  10.736  17.809  0.00  0.00    +0.000 C 
ATOM     16  C   UNL     1       1.682   8.305  19.595  0.00  0.00    +0.000 A 
ATOM     17  C   UNL     1       2.124   7.752  18.266  0.00  0.00    +0.000 C 
ATOM     18  N   UNL     1       4.561   6.940  17.291  0.00  0.00    +0.000 NA
ATOM     19  C   UNL     1       5.685   6.612  16.615  0.00  0.00    +0.000 A 
ENDROOT
BRANCH  14  20
ATOM     20  C   UNL     1       0.467  11.793  18.950  0.00  0.00    +0.000 C 
BRANCH  20  21
ATOM     21  C   UNL     1       1.318  13.020  19.193  0.00  0.00    +0.000 A 
ATOM     22  C   UNL     1       1.321  14.091  18.284  0.00  0.00    +0.000 A 
ATOM     23  C   UNL     1       2.135  15.204  18.502  0.00  0.00    +0.000 A 
ATOM     24  C   UNL     1       2.948  15.263  19.634  0.00  0.00    +0.000 A 
ATOM     25  C   UNL     1       2.928  14.216  20.553  0.00  0.00    +0.000 A 
ATOM     26 CL   UNL     1       3.926  14.293  21.954  0.00  0.00    +0.000 Cl
ATOM     27  C   UNL     1       2.117  13.103  20.343  0.00  0.00    +0.000 A 
ENDBRANCH  20  21
ENDBRANCH  14  20
TORSDOF 2
ENDMDL
