MODEL 1
REMARK VINA RESULT:      -7.7      0.000      0.000
REMARK  Name = 
REMARK  6 active torsions:
REMARK  status: ('A' for Active; 'I' for Inactive)
REMARK    1  A    between atoms: C_1  and  C_2
REMARK    2  A    between atoms: C_2  and  C_3
REMARK    3  A    between atoms: C_6  and  N_7
REMARK    4  A    between atoms: C_8  and  C_10
REMARK    5  A    between atoms: C_10  and  N_11
REMARK    6  A    between atoms: N_17  and  C_18
REMARK                            x       y       z     vdW  Elec       q    Type
REMARK                         _______ _______ _______ _____ _____    ______ ____
ROOT
ATOM      1  N   UNL     1       1.904   8.641  19.359  0.00  0.00    +0.000 N 
ATOM      2  N   UNL     1       1.656   8.818  17.988  0.00  0.00    +0.000 NA
ATOM      3  N   UNL     1       1.163   9.978  17.802  0.00  0.00    +0.000 NA
ATOM      4  C   UNL     1       1.249  10.705  19.065  0.00  0.00    +0.000 C 
ATOM      5  C   UNL     1       0.168  11.616  19.517  0.00  0.00    +0.000 C 
ATOM      6  O   UNL     1      -0.429  12.393  18.794  0.00  0.00    +0.000 OA
ATOM      7  N   UNL     1       0.123  11.450  20.911  0.00  0.00    +0.000 N 
ATOM      8  C   UNL     1       0.965  10.392  21.282  0.00  0.00    +0.000 C 
ATOM      9  O   UNL     1       1.452  10.081  22.352  0.00  0.00    +0.000 OA
ATOM     10  C   UNL     1       1.047   9.583  20.021  0.00  0.00    +0.000 C 
ENDROOT
BRANCH   7  11
ATOM     11  C   UNL     1      -0.710  12.183  21.803  0.00  0.00    +0.000 A 
ATOM     12  C   UNL     1      -1.858  11.602  22.367  0.00  0.00    +0.000 A 
ATOM     13  C   UNL     1      -2.650  12.289  23.294  0.00  0.00    +0.000 A 
ATOM     14  C   UNL     1      -2.310  13.580  23.670  0.00  0.00    +0.000 A 
ATOM     15 BR   UNL     1      -3.385  14.515  24.909  0.00  0.00    +0.000 Br
ATOM     16  C   UNL     1      -1.179  14.183  23.133  0.00  0.00    +0.000 A 
ATOM     17  C   UNL     1      -0.384  13.487  22.213  0.00  0.00    +0.000 A 
ENDBRANCH   7  11
BRANCH   1  18
ATOM     18  C   UNL     1       1.936   7.269  19.859  0.00  0.00    +0.000 C 
BRANCH  18  20
ATOM     19  N   UNL     1       3.603   6.555  18.218  0.00  0.00    +0.000 N 
ATOM     20  C   UNL     1       2.444   6.202  18.888  0.00  0.00    +0.000 C 
ATOM     21  O   UNL     1       1.851   5.131  18.798  0.00  0.00    +0.000 OA
ATOM     22  H   UNL     1       4.014   7.441  18.498  0.00  0.00    +0.000 HD
BRANCH  19  26
ATOM     23  C   UNL     1       5.672   4.437  15.211  0.00  0.00    +0.000 A 
ATOM     24  C   UNL     1       5.062   3.741  16.258  0.00  0.00    +0.000 A 
ATOM     25  C   UNL     1       4.367   4.425  17.256  0.00  0.00    +0.000 A 
ATOM     26  C   UNL     1       4.262   5.815  17.221  0.00  0.00    +0.000 A 
ATOM     27  C   UNL     1       4.819   6.512  16.145  0.00  0.00    +0.000 A 
ATOM     28  C   UNL     1       5.529   5.828  15.151  0.00  0.00    +0.000 A 
BRANCH  23  30
ATOM     29  C   UNL     1       5.737   3.681  12.820  0.00  0.00    +0.000 C 
ATOM     30  C   UNL     1       6.450   3.686  14.163  0.00  0.00    +0.000 C 
ENDBRANCH  23  30
ENDBRANCH  19  26
ENDBRANCH  18  20
ENDBRANCH   1  18
TORSDOF 5
ENDMDL
MODEL 2
REMARK VINA RESULT:      -7.6      4.503      6.955
REMARK  Name = 
REMARK  6 active torsions:
REMARK  status: ('A' for Active; 'I' for Inactive)
REMARK    1  A    between atoms: C_1  and  C_2
REMARK    2  A    between atoms: C_2  and  C_3
REMARK    3  A    between atoms: C_6  and  N_7
REMARK    4  A    between atoms: C_8  and  C_10
REMARK    5  A    between atoms: C_10  and  N_11
REMARK    6  A    between atoms: N_17  and  C_18
REMARK                            x       y       z     vdW  Elec       q    Type
REMARK                         _______ _______ _______ _____ _____    ______ ____
ROOT
ATOM      1  N   UNL     1       5.889   5.137  17.585  0.00  0.00    +0.000 N 
ATOM      2  N   UNL     1       6.160   4.078  18.467  0.00  0.00    +0.000 NA
ATOM      3  N   UNL     1       5.163   3.918  19.243  0.00  0.00    +0.000 NA
ATOM      4  C   UNL     1       4.082   4.772  18.759  0.00  0.00    +0.000 C 
ATOM      5  C   UNL     1       3.181   5.495  19.690  0.00  0.00    +0.000 C 
ATOM      6  O   UNL     1       2.720   5.022  20.713  0.00  0.00    +0.000 OA
ATOM      7  N   UNL     1       2.919   6.719  19.053  0.00  0.00    +0.000 N 
ATOM      8  C   UNL     1       3.731   6.835  17.915  0.00  0.00    +0.000 C 
ATOM      9  O   UNL     1       3.656   7.551  16.935  0.00  0.00    +0.000 OA
ATOM     10  C   UNL     1       4.874   5.917  18.236  0.00  0.00    +0.000 C 
ENDROOT
BRANCH   7  11
ATOM     11  C   UNL     1       2.030   7.724  19.529  0.00  0.00    +0.000 A 
ATOM     12  C   UNL     1       1.585   7.726  20.862  0.00  0.00    +0.000 A 
ATOM     13  C   UNL     1       0.763   8.743  21.361  0.00  0.00    +0.000 A 
ATOM     14  C   UNL     1       0.363   9.778  20.528  0.00  0.00    +0.000 A 
ATOM     15 BR   UNL     1      -0.758  11.143  21.194  0.00  0.00    +0.000 Br
ATOM     16  C   UNL     1       0.788   9.807  19.206  0.00  0.00    +0.000 A 
ATOM     17  C   UNL     1       1.620   8.792  18.714  0.00  0.00    +0.000 A 
ENDBRANCH   7  11
BRANCH   1  18
ATOM     18  C   UNL     1       7.034   5.838  17.012  0.00  0.00    +0.000 C 
BRANCH  18  20
ATOM     19  N   UNL     1       7.635   8.180  17.381  0.00  0.00    +0.000 N 
ATOM     20  C   UNL     1       7.697   6.896  17.895  0.00  0.00    +0.000 C 
ATOM     21  O   UNL     1       8.179   6.570  18.976  0.00  0.00    +0.000 OA
ATOM     22  H   UNL     1       7.102   8.278  16.521  0.00  0.00    +0.000 HD
BRANCH  19  26
ATOM     23  C   UNL     1       9.470  11.586  19.065  0.00  0.00    +0.000 A 
ATOM     24  C   UNL     1       8.657  11.720  17.936  0.00  0.00    +0.000 A 
ATOM     25  C   UNL     1       8.036  10.605  17.372  0.00  0.00    +0.000 A 
ATOM     26  C   UNL     1       8.210   9.339  17.929  0.00  0.00    +0.000 A 
ATOM     27  C   UNL     1       8.973   9.208  19.092  0.00  0.00    +0.000 A 
ATOM     28  C   UNL     1       9.608  10.323  19.652  0.00  0.00    +0.000 A 
BRANCH  23  30
ATOM     29  C   UNL     1      11.553  12.462  20.155  0.00  0.00    +0.000 C 
ATOM     30  C   UNL     1      10.162  12.794  19.639  0.00  0.00    +0.000 C 
ENDBRANCH  23  30
ENDBRANCH  19  26
ENDBRANCH  18  20
ENDBRANCH   1  18
TORSDOF 5
ENDMDL
MODEL 3
REMARK VINA RESULT:      -7.3      2.870      3.721
REMARK  Name = 
REMARK  6 active torsions:
REMARK  status: ('A' for Active; 'I' for Inactive)
REMARK    1  A    between atoms: C_1  and  C_2
REMARK    2  A    between atoms: C_2  and  C_3
REMARK    3  A    between atoms: C_6  and  N_7
REMARK    4  A    between atoms: C_8  and  C_10
REMARK    5  A    between atoms: C_10  and  N_11
REMARK    6  A    between atoms: N_17  and  C_18
REMARK                            x       y       z     vdW  Elec       q    Type
REMARK                         _______ _______ _______ _____ _____    ______ ____
ROOT
ATOM      1  N   UNL     1       0.864  10.660  20.996  0.00  0.00    +0.000 N 
ATOM      2  N   UNL     1       0.966  10.512  19.603  0.00  0.00    +0.000 NA
ATOM      3  N   UNL     1       0.144  11.306  19.040  0.00  0.00    +0.000 NA
ATOM      4  C   UNL     1      -0.413  12.174  20.073  0.00  0.00    +0.000 C 
ATOM      5  C   UNL     1      -1.838  12.587  20.062  0.00  0.00    +0.000 C 
ATOM      6  O   UNL     1      -2.455  12.917  19.065  0.00  0.00    +0.000 OA
ATOM      7  N   UNL     1      -2.209  12.623  21.416  0.00  0.00    +0.000 N 
ATOM      8  C   UNL     1      -1.171  12.097  22.198  0.00  0.00    +0.000 C 
ATOM      9  O   UNL     1      -0.926  12.184  23.385  0.00  0.00    +0.000 OA
ATOM     10  C   UNL     1      -0.436  11.227  21.220  0.00  0.00    +0.000 C 
ENDROOT
BRANCH   7  11
ATOM     11  C   UNL     1      -3.473  13.048  21.915  0.00  0.00    +0.000 A 
ATOM     12  C   UNL     1      -4.668  12.474  21.447  0.00  0.00    +0.000 A 
ATOM     13  C   UNL     1      -5.913  12.836  21.974  0.00  0.00    +0.000 A 
ATOM     14  C   UNL     1      -5.986  13.791  22.979  0.00  0.00    +0.000 A 
ATOM     15 BR   UNL     1      -7.665  14.292  23.681  0.00  0.00    +0.000 Br
ATOM     16  C   UNL     1      -4.823  14.375  23.466  0.00  0.00    +0.000 A 
ATOM     17  C   UNL     1      -3.579  14.000  22.943  0.00  0.00    +0.000 A 
ENDBRANCH   7  11
BRANCH   1  18
ATOM     18  C   UNL     1       1.271   9.524  21.819  0.00  0.00    +0.000 C 
BRANCH  18  20
ATOM     19  N   UNL     1       1.969   7.447  20.734  0.00  0.00    +0.000 N 
ATOM     20  C   UNL     1       0.906   8.136  21.292  0.00  0.00    +0.000 C 
ATOM     21  O   UNL     1      -0.239   7.716  21.429  0.00  0.00    +0.000 OA
ATOM     22  H   UNL     1       2.871   7.910  20.802  0.00  0.00    +0.000 HD
BRANCH  19  26
ATOM     23  C   UNL     1       1.961   3.697  18.798  0.00  0.00    +0.000 A 
ATOM     24  C   UNL     1       1.416   3.821  20.079  0.00  0.00    +0.000 A 
ATOM     25  C   UNL     1       1.403   5.055  20.729  0.00  0.00    +0.000 A 
ATOM     26  C   UNL     1       1.927   6.188  20.110  0.00  0.00    +0.000 A 
ATOM     27  C   UNL     1       2.420   6.083  18.807  0.00  0.00    +0.000 A 
ATOM     28  C   UNL     1       2.447   4.843  18.158  0.00  0.00    +0.000 A 
BRANCH  23  30
ATOM     29  C   UNL     1       3.405   1.769  18.099  0.00  0.00    +0.000 C 
ATOM     30  C   UNL     1       2.001   2.351  18.126  0.00  0.00    +0.000 C 
ENDBRANCH  23  30
ENDBRANCH  19  26
ENDBRANCH  18  20
ENDBRANCH   1  18
TORSDOF 5
ENDMDL
MODEL 4
REMARK VINA RESULT:      -7.3      3.314      4.800
REMARK  Name = 
REMARK  6 active torsions:
REMARK  status: ('A' for Active; 'I' for Inactive)
REMARK    1  A    between atoms: C_1  and  C_2
REMARK    2  A    between atoms: C_2  and  C_3
REMARK    3  A    between atoms: C_6  and  N_7
REMARK    4  A    between atoms: C_8  and  C_10
REMARK    5  A    between atoms: C_10  and  N_11
REMARK    6  A    between atoms: N_17  and  C_18
REMARK                            x       y       z     vdW  Elec       q    Type
REMARK                         _______ _______ _______ _____ _____    ______ ____
ROOT
ATOM      1  N   UNL     1       0.078  10.086  22.065  0.00  0.00    +0.000 N 
ATOM      2  N   UNL     1      -0.566  10.193  23.309  0.00  0.00    +0.000 NA
ATOM      3  N   UNL     1      -1.233  11.279  23.339  0.00  0.00    +0.000 NA
ATOM      4  C   UNL     1      -1.205  11.854  21.997  0.00  0.00    +0.000 C 
ATOM      5  C   UNL     1      -1.092  13.317  21.777  0.00  0.00    +0.000 C 
ATOM      6  O   UNL     1      -1.682  14.162  22.425  0.00  0.00    +0.000 OA
ATOM      7  N   UNL     1      -0.294  13.442  20.627  0.00  0.00    +0.000 N 
ATOM      8  C   UNL     1       0.206  12.183  20.267  0.00  0.00    +0.000 C 
ATOM      9  O   UNL     1       0.682  11.766  19.229  0.00  0.00    +0.000 OA
ATOM     10  C   UNL     1       0.153  11.429  21.563  0.00  0.00    +0.000 C 
ENDROOT
BRANCH   7  11
ATOM     11  C   UNL     1       0.026  14.667  19.975  0.00  0.00    +0.000 A 
ATOM     12  C   UNL     1       1.067  15.487  20.442  0.00  0.00    +0.000 A 
ATOM     13  C   UNL     1       1.435  16.661  19.774  0.00  0.00    +0.000 A 
ATOM     14  C   UNL     1       0.759  17.041  18.623  0.00  0.00    +0.000 A 
ATOM     15 BR   UNL     1       1.243  18.631  17.728  0.00  0.00    +0.000 Br
ATOM     16  C   UNL     1      -0.273  16.250  18.133  0.00  0.00    +0.000 A 
ATOM     17  C   UNL     1      -0.630  15.070  18.800  0.00  0.00    +0.000 A 
ENDBRANCH   7  11
BRANCH   1  18
ATOM     18  C   UNL     1       1.281   9.260  22.006  0.00  0.00    +0.000 C 
BRANCH  18  20
ATOM     19  N   UNL     1       1.713   7.011  21.151  0.00  0.00    +0.000 N 
ATOM     20  C   UNL     1       1.399   8.314  20.810  0.00  0.00    +0.000 C 
ATOM     21  O   UNL     1       1.174   8.735  19.679  0.00  0.00    +0.000 OA
ATOM     22  H   UNL     1       1.759   6.821  22.148  0.00  0.00    +0.000 HD
BRANCH  19  26
ATOM     23  C   UNL     1       2.303   3.758  18.527  0.00  0.00    +0.000 A 
ATOM     24  C   UNL     1       3.001   4.952  18.325  0.00  0.00    +0.000 A 
ATOM     25  C   UNL     1       2.824   6.033  19.188  0.00  0.00    +0.000 A 
ATOM     26  C   UNL     1       1.953   5.941  20.271  0.00  0.00    +0.000 A 
ATOM     27  C   UNL     1       1.297   4.731  20.513  0.00  0.00    +0.000 A 
ATOM     28  C   UNL     1       1.463   3.649  19.641  0.00  0.00    +0.000 A 
BRANCH  23  30
ATOM     29  C   UNL     1       3.434   1.560  18.101  0.00  0.00    +0.000 C 
ATOM     30  C   UNL     1       2.478   2.614  17.565  0.00  0.00    +0.000 C 
ENDBRANCH  23  30
ENDBRANCH  19  26
ENDBRANCH  18  20
ENDBRANCH   1  18
TORSDOF 5
ENDMDL
MODEL 5
REMARK VINA RESULT:      -7.3      0.759      1.195
REMARK  Name = 
REMARK  6 active torsions:
REMARK  status: ('A' for Active; 'I' for Inactive)
REMARK    1  A    between atoms: C_1  and  C_2
REMARK    2  A    between atoms: C_2  and  C_3
REMARK    3  A    between atoms: C_6  and  N_7
REMARK    4  A    between atoms: C_8  and  C_10
REMARK    5  A    between atoms: C_10  and  N_11
REMARK    6  A    between atoms: N_17  and  C_18
REMARK                            x       y       z     vdW  Elec       q    Type
REMARK                         _______ _______ _______ _____ _____    ______ ____
ROOT
ATOM      1  N   UNL     1       2.111   8.824  19.197  0.00  0.00    +0.000 N 
ATOM      2  N   UNL     1       2.137   9.086  17.817  0.00  0.00    +0.000 NA
ATOM      3  N   UNL     1       1.637  10.239  17.604  0.00  0.00    +0.000 NA
ATOM      4  C   UNL     1       1.431  10.880  18.899  0.00  0.00    +0.000 C 
ATOM      5  C   UNL     1       0.241  11.721  19.175  0.00  0.00    +0.000 C 
ATOM      6  O   UNL     1      -0.234  12.525  18.393  0.00  0.00    +0.000 OA
ATOM      7  N   UNL     1      -0.077  11.459  20.518  0.00  0.00    +0.000 N 
ATOM      8  C   UNL     1       0.722  10.408  20.989  0.00  0.00    +0.000 C 
ATOM      9  O   UNL     1       0.998  10.041  22.115  0.00  0.00    +0.000 OA
ATOM     10  C   UNL     1       1.094   9.690  19.725  0.00  0.00    +0.000 C 
ENDROOT
BRANCH   7  11
ATOM     11  C   UNL     1      -1.107  12.101  21.263  0.00  0.00    +0.000 A 
ATOM     12  C   UNL     1      -2.411  12.210  20.752  0.00  0.00    +0.000 A 
ATOM     13  C   UNL     1      -3.448  12.782  21.500  0.00  0.00    +0.000 A 
ATOM     14  C   UNL     1      -3.194  13.264  22.775  0.00  0.00    +0.000 A 
ATOM     15 BR   UNL     1      -4.587  14.048  23.781  0.00  0.00    +0.000 Br
ATOM     16  C   UNL     1      -1.916  13.168  23.311  0.00  0.00    +0.000 A 
ATOM     17  C   UNL     1      -0.884  12.585  22.563  0.00  0.00    +0.000 A 
ENDBRANCH   7  11
BRANCH   1  18
ATOM     18  C   UNL     1       2.106   7.424  19.610  0.00  0.00    +0.000 C 
BRANCH  18  20
ATOM     19  N   UNL     1       3.839   6.630  18.078  0.00  0.00    +0.000 N 
ATOM     20  C   UNL     1       2.564   6.405  18.565  0.00  0.00    +0.000 C 
ATOM     21  O   UNL     1       1.829   5.467  18.269  0.00  0.00    +0.000 OA
ATOM     22  H   UNL     1       4.343   7.396  18.517  0.00  0.00    +0.000 HD
BRANCH  19  26
ATOM     23  C   UNL     1       5.740   4.354  15.075  0.00  0.00    +0.000 A 
ATOM     24  C   UNL     1       5.610   5.737  14.923  0.00  0.00    +0.000 A 
ATOM     25  C   UNL     1       4.992   6.505  15.910  0.00  0.00    +0.000 A 
ATOM     26  C   UNL     1       4.499   5.908  17.069  0.00  0.00    +0.000 A 
ATOM     27  C   UNL     1       4.679   4.534  17.254  0.00  0.00    +0.000 A 
ATOM     28  C   UNL     1       5.287   3.760  16.258  0.00  0.00    +0.000 A 
BRANCH  23  30
ATOM     29  C   UNL     1       5.620   3.652  12.670  0.00  0.00    +0.000 C 
ATOM     30  C   UNL     1       6.377   3.536  13.984  0.00  0.00    +0.000 C 
ENDBRANCH  23  30
ENDBRANCH  19  26
ENDBRANCH  18  20
ENDBRANCH   1  18
TORSDOF 5
ENDMDL
MODEL 6
REMARK VINA RESULT:      -7.3      1.940      2.563
REMARK  Name = 
REMARK  6 active torsions:
REMARK  status: ('A' for Active; 'I' for Inactive)
REMARK    1  A    between atoms: C_1  and  C_2
REMARK    2  A    between atoms: C_2  and  C_3
REMARK    3  A    between atoms: C_6  and  N_7
REMARK    4  A    between atoms: C_8  and  C_10
REMARK    5  A    between atoms: C_10  and  N_11
REMARK    6  A    between atoms: N_17  and  C_18
REMARK                            x       y       z     vdW  Elec       q    Type
REMARK                         _______ _______ _______ _____ _____    ______ ____
ROOT
ATOM      1  N   UNL     1       0.341  10.383  19.143  0.00  0.00    +0.000 N 
ATOM      2  N   UNL     1      -0.875  10.073  18.512  0.00  0.00    +0.000 NA
ATOM      3  N   UNL     1      -1.687  11.040  18.680  0.00  0.00    +0.000 NA
ATOM      4  C   UNL     1      -0.947  12.143  19.285  0.00  0.00    +0.000 C 
ATOM      5  C   UNL     1      -1.551  13.013  20.324  0.00  0.00    +0.000 C 
ATOM      6  O   UNL     1      -2.693  13.433  20.295  0.00  0.00    +0.000 OA
ATOM      7  N   UNL     1      -0.494  13.305  21.202  0.00  0.00    +0.000 N 
ATOM      8  C   UNL     1       0.627  12.537  20.854  0.00  0.00    +0.000 C 
ATOM      9  O   UNL     1       1.805  12.652  21.129  0.00  0.00    +0.000 OA
ATOM     10  C   UNL     1       0.013  11.378  20.125  0.00  0.00    +0.000 C 
ENDROOT
BRANCH   7  11
ATOM     11  C   UNL     1      -0.569  14.182  22.321  0.00  0.00    +0.000 A 
ATOM     12  C   UNL     1       0.046  15.445  22.296  0.00  0.00    +0.000 A 
ATOM     13  C   UNL     1      -0.074  16.342  23.364  0.00  0.00    +0.000 A 
ATOM     14  C   UNL     1      -0.810  15.987  24.485  0.00  0.00    +0.000 A 
ATOM     15 BR   UNL     1      -0.961  17.189  25.933  0.00  0.00    +0.000 Br
ATOM     16  C   UNL     1      -1.434  14.746  24.540  0.00  0.00    +0.000 A 
ATOM     17  C   UNL     1      -1.319  13.856  23.464  0.00  0.00    +0.000 A 
ENDBRANCH   7  11
BRANCH   1  18
ATOM     18  C   UNL     1       1.185   9.264  19.552  0.00  0.00    +0.000 C 
BRANCH  18  20
ATOM     19  N   UNL     1       2.440   7.301  18.810  0.00  0.00    +0.000 N 
ATOM     20  C   UNL     1       1.933   8.533  18.436  0.00  0.00    +0.000 C 
ATOM     21  O   UNL     1       1.997   9.035  17.318  0.00  0.00    +0.000 OA
ATOM     22  H   UNL     1       2.198   6.998  19.750  0.00  0.00    +0.000 HD
BRANCH  19  26
ATOM     23  C   UNL     1       4.909   4.777  16.498  0.00  0.00    +0.000 A 
ATOM     24  C   UNL     1       3.764   4.260  17.111  0.00  0.00    +0.000 A 
ATOM     25  C   UNL     1       2.933   5.082  17.872  0.00  0.00    +0.000 A 
ATOM     26  C   UNL     1       3.225   6.436  18.028  0.00  0.00    +0.000 A 
ATOM     27  C   UNL     1       4.335   6.971  17.369  0.00  0.00    +0.000 A 
ATOM     28  C   UNL     1       5.178   6.145  16.617  0.00  0.00    +0.000 A 
BRANCH  23  30
ATOM     29  C   UNL     1       6.271   4.505  14.410  0.00  0.00    +0.000 C 
ATOM     30  C   UNL     1       5.815   3.867  15.712  0.00  0.00    +0.000 C 
ENDBRANCH  23  30
ENDBRANCH  19  26
ENDBRANCH  18  20
ENDBRANCH   1  18
TORSDOF 5
ENDMDL
MODEL 7
REMARK VINA RESULT:      -7.3      2.723      3.577
REMARK  Name = 
REMARK  6 active torsions:
REMARK  status: ('A' for Active; 'I' for Inactive)
REMARK    1  A    between atoms: C_1  and  C_2
REMARK    2  A    between atoms: C_2  and  C_3
REMARK    3  A    between atoms: C_6  and  N_7
REMARK    4  A    between atoms: C_8  and  C_10
REMARK    5  A    between atoms: C_10  and  N_11
REMARK    6  A    between atoms: N_17  and  C_18
REMARK                            x       y       z     vdW  Elec       q    Type
REMARK                         _______ _______ _______ _____ _____    ______ ____
ROOT
ATOM      1  N   UNL     1      -0.553  10.512  18.309  0.00  0.00    +0.000 N 
ATOM      2  N   UNL     1      -1.179   9.690  17.358  0.00  0.00    +0.000 NA
ATOM      3  N   UNL     1      -2.372  10.099  17.178  0.00  0.00    +0.000 NA
ATOM      4  C   UNL     1      -2.520  11.366  17.888  0.00  0.00    +0.000 C 
ATOM      5  C   UNL     1      -3.769  11.718  18.606  0.00  0.00    +0.000 C 
ATOM      6  O   UNL     1      -4.892  11.508  18.184  0.00  0.00    +0.000 OA
ATOM      7  N   UNL     1      -3.339  12.422  19.743  0.00  0.00    +0.000 N 
ATOM      8  C   UNL     1      -1.942  12.355  19.832  0.00  0.00    +0.000 C 
ATOM      9  O   UNL     1      -1.136  13.022  20.452  0.00  0.00    +0.000 OA
ATOM     10  C   UNL     1      -1.625  11.115  19.049  0.00  0.00    +0.000 C 
ENDROOT
BRANCH   7  11
ATOM     11  C   UNL     1      -4.192  13.039  20.703  0.00  0.00    +0.000 A 
ATOM     12  C   UNL     1      -5.081  14.062  20.332  0.00  0.00    +0.000 A 
ATOM     13  C   UNL     1      -5.970  14.632  21.251  0.00  0.00    +0.000 A 
ATOM     14  C   UNL     1      -5.979  14.192  22.567  0.00  0.00    +0.000 A 
ATOM     15 BR   UNL     1      -7.166  14.969  23.812  0.00  0.00    +0.000 Br
ATOM     16  C   UNL     1      -5.115  13.179  22.965  0.00  0.00    +0.000 A 
ATOM     17  C   UNL     1      -4.235  12.604  22.038  0.00  0.00    +0.000 A 
ENDBRANCH   7  11
BRANCH   1  18
ATOM     18  C   UNL     1       0.562   9.936  19.057  0.00  0.00    +0.000 C 
BRANCH  18  20
ATOM     19  N   UNL     1       1.785   7.860  18.642  0.00  0.00    +0.000 N 
ATOM     20  C   UNL     1       1.606   9.172  18.241  0.00  0.00    +0.000 C 
ATOM     21  O   UNL     1       2.162   9.725  17.296  0.00  0.00    +0.000 OA
ATOM     22  H   UNL     1       1.160   7.541  19.377  0.00  0.00    +0.000 HD
BRANCH  19  26
ATOM     23  C   UNL     1       4.475   5.022  17.055  0.00  0.00    +0.000 A 
ATOM     24  C   UNL     1       4.859   6.361  17.163  0.00  0.00    +0.000 A 
ATOM     25  C   UNL     1       3.985   7.310  17.693  0.00  0.00    +0.000 A 
ATOM     26  C   UNL     1       2.716   6.938  18.131  0.00  0.00    +0.000 A 
ATOM     27  C   UNL     1       2.347   5.591  18.081  0.00  0.00    +0.000 A 
ATOM     28  C   UNL     1       3.218   4.639  17.536  0.00  0.00    +0.000 A 
BRANCH  23  30
ATOM     29  C   UNL     1       5.577   4.221  14.948  0.00  0.00    +0.000 C 
ATOM     30  C   UNL     1       5.417   4.017  16.446  0.00  0.00    +0.000 C 
ENDBRANCH  23  30
ENDBRANCH  19  26
ENDBRANCH  18  20
ENDBRANCH   1  18
TORSDOF 5
ENDMDL
MODEL 8
REMARK VINA RESULT:      -7.2      1.159      1.535
REMARK  Name = 
REMARK  6 active torsions:
REMARK  status: ('A' for Active; 'I' for Inactive)
REMARK    1  A    between atoms: C_1  and  C_2
REMARK    2  A    between atoms: C_2  and  C_3
REMARK    3  A    between atoms: C_6  and  N_7
REMARK    4  A    between atoms: C_8  and  C_10
REMARK    5  A    between atoms: C_10  and  N_11
REMARK    6  A    between atoms: N_17  and  C_18
REMARK                            x       y       z     vdW  Elec       q    Type
REMARK                         _______ _______ _______ _____ _____    ______ ____
ROOT
ATOM      1  N   UNL     1       1.357   8.892  20.368  0.00  0.00    +0.000 N 
ATOM      2  N   UNL     1       1.492   9.065  18.980  0.00  0.00    +0.000 NA
ATOM      3  N   UNL     1       1.137  10.250  18.673  0.00  0.00    +0.000 NA
ATOM      4  C   UNL     1       0.930  10.987  19.916  0.00  0.00    +0.000 C 
ATOM      5  C   UNL     1      -0.173  11.967  20.069  0.00  0.00    +0.000 C 
ATOM      6  O   UNL     1      -0.509  12.769  19.215  0.00  0.00    +0.000 OA
ATOM      7  N   UNL     1      -0.595  11.823  21.401  0.00  0.00    +0.000 N 
ATOM      8  C   UNL     1       0.053  10.722  21.979  0.00  0.00    +0.000 C 
ATOM      9  O   UNL     1       0.220  10.397  23.138  0.00  0.00    +0.000 OA
ATOM     10  C   UNL     1       0.415   9.893  20.782  0.00  0.00    +0.000 C 
ENDROOT
BRANCH   7  11
ATOM     11  C   UNL     1      -1.588  12.618  22.042  0.00  0.00    +0.000 A 
ATOM     12  C   UNL     1      -1.237  13.581  23.003  0.00  0.00    +0.000 A 
ATOM     13  C   UNL     1      -2.194  14.413  23.594  0.00  0.00    +0.000 A 
ATOM     14  C   UNL     1      -3.530  14.290  23.238  0.00  0.00    +0.000 A 
ATOM     15 BR   UNL     1      -4.826  15.400  24.044  0.00  0.00    +0.000 Br
ATOM     16  C   UNL     1      -3.910  13.349  22.289  0.00  0.00    +0.000 A 
ATOM     17  C   UNL     1      -2.945  12.526  21.692  0.00  0.00    +0.000 A 
ENDBRANCH   7  11
BRANCH   1  18
ATOM     18  C   UNL     1       1.172   7.528  20.855  0.00  0.00    +0.000 C 
BRANCH  18  20
ATOM     19  N   UNL     1       2.593   6.848  18.984  0.00  0.00    +0.000 N 
ATOM     20  C   UNL     1       1.999   6.441  20.166  0.00  0.00    +0.000 C 
ATOM     21  O   UNL     1       2.120   5.342  20.698  0.00  0.00    +0.000 OA
ATOM     22  H   UNL     1       2.469   7.829  18.751  0.00  0.00    +0.000 HD
BRANCH  19  26
ATOM     23  C   UNL     1       4.972   4.557  16.357  0.00  0.00    +0.000 A 
ATOM     24  C   UNL     1       3.963   3.939  17.101  0.00  0.00    +0.000 A 
ATOM     25  C   UNL     1       3.162   4.683  17.967  0.00  0.00    +0.000 A 
ATOM     26  C   UNL     1       3.349   6.058  18.101  0.00  0.00    +0.000 A 
ATOM     27  C   UNL     1       4.317   6.691  17.317  0.00  0.00    +0.000 A 
ATOM     28  C   UNL     1       5.131   5.944  16.457  0.00  0.00    +0.000 A 
BRANCH  23  30
ATOM     29  C   UNL     1       6.210   4.475  14.177  0.00  0.00    +0.000 C 
ATOM     30  C   UNL     1       5.852   3.733  15.455  0.00  0.00    +0.000 C 
ENDBRANCH  23  30
ENDBRANCH  19  26
ENDBRANCH  18  20
ENDBRANCH   1  18
TORSDOF 5
ENDMDL
MODEL 9
REMARK VINA RESULT:      -7.2      1.975      2.667
REMARK  Name = 
REMARK  6 active torsions:
REMARK  status: ('A' for Active; 'I' for Inactive)
REMARK    1  A    between atoms: C_1  and  C_2
REMARK    2  A    between atoms: C_2  and  C_3
REMARK    3  A    between atoms: C_6  and  N_7
REMARK    4  A    between atoms: C_8  and  C_10
REMARK    5  A    between atoms: C_10  and  N_11
REMARK    6  A    between atoms: N_17  and  C_18
REMARK                            x       y       z     vdW  Elec       q    Type
REMARK                         _______ _______ _______ _____ _____    ______ ____
ROOT
ATOM      1  N   UNL     1       0.226  10.480  19.147  0.00  0.00    +0.000 N 
ATOM      2  N   UNL     1      -0.977  10.177  18.487  0.00  0.00    +0.000 NA
ATOM      3  N   UNL     1      -1.790  11.145  18.643  0.00  0.00    +0.000 NA
ATOM      4  C   UNL     1      -1.060  12.242  19.272  0.00  0.00    +0.000 C 
ATOM      5  C   UNL     1      -1.685  13.107  20.304  0.00  0.00    +0.000 C 
ATOM      6  O   UNL     1      -2.825  13.530  20.253  0.00  0.00    +0.000 OA
ATOM      7  N   UNL     1      -0.646  13.390  21.206  0.00  0.00    +0.000 N 
ATOM      8  C   UNL     1       0.479  12.621  20.879  0.00  0.00    +0.000 C 
ATOM      9  O   UNL     1       1.652  12.731  21.180  0.00  0.00    +0.000 OA
ATOM     10  C   UNL     1      -0.121  11.468  20.128  0.00  0.00    +0.000 C 
ENDROOT
BRANCH   7  11
ATOM     11  C   UNL     1      -0.744  14.259  22.330  0.00  0.00    +0.000 A 
ATOM     12  C   UNL     1      -1.474  13.888  23.473  0.00  0.00    +0.000 A 
ATOM     13  C   UNL     1      -1.525  14.704  24.609  0.00  0.00    +0.000 A 
ATOM     14  C   UNL     1      -0.850  15.916  24.619  0.00  0.00    +0.000 A 
ATOM     15 BR   UNL     1      -0.929  17.026  26.144  0.00  0.00    +0.000 Br
ATOM     16  C   UNL     1      -0.116  16.311  23.507  0.00  0.00    +0.000 A 
ATOM     17  C   UNL     1      -0.059  15.485  22.376  0.00  0.00    +0.000 A 
ENDBRANCH   7  11
BRANCH   1  18
ATOM     18  C   UNL     1       1.057   9.355  19.567  0.00  0.00    +0.000 C 
BRANCH  18  20
ATOM     19  N   UNL     1       2.363   7.430  18.810  0.00  0.00    +0.000 N 
ATOM     20  C   UNL     1       1.908   8.695  18.480  0.00  0.00    +0.000 C 
ATOM     21  O   UNL     1       2.090   9.277  17.415  0.00  0.00    +0.000 OA
ATOM     22  H   UNL     1       2.025   7.064  19.696  0.00  0.00    +0.000 HD
BRANCH  19  26
ATOM     23  C   UNL     1       4.814   4.897  16.490  0.00  0.00    +0.000 A 
ATOM     24  C   UNL     1       5.125   6.255  16.603  0.00  0.00    +0.000 A 
ATOM     25  C   UNL     1       4.331   7.104  17.373  0.00  0.00    +0.000 A 
ATOM     26  C   UNL     1       3.216   6.612  18.049  0.00  0.00    +0.000 A 
ATOM     27  C   UNL     1       2.933   5.245  17.988  0.00  0.00    +0.000 A 
ATOM     28  C   UNL     1       3.721   4.394  17.204  0.00  0.00    +0.000 A 
BRANCH  23  30
ATOM     29  C   UNL     1       6.968   4.668  15.224  0.00  0.00    +0.000 C 
ATOM     30  C   UNL     1       5.661   4.002  15.625  0.00  0.00    +0.000 C 
ENDBRANCH  23  30
ENDBRANCH  19  26
ENDBRANCH  18  20
ENDBRANCH   1  18
TORSDOF 5
ENDMDL
