MODEL 1
REMARK VINA RESULT:      -7.5      0.000      0.000
REMARK  Name = 
REMARK  5 active torsions:
REMARK  status: ('A' for Active; 'I' for Inactive)
REMARK    1  A    between atoms: C_2  and  O_3
REMARK    2  A    between atoms: C_2  and  C_4
REMARK    3  A    between atoms: C_6  and  C_7
REMARK    4  A    between atoms: C_13  and  S_14
REMARK    5  A    between atoms: S_14  and  N_17
REMARK                            x       y       z     vdW  Elec       q    Type
REMARK                         _______ _______ _______ _____ _____    ______ ____
ROOT
ATOM      1  C   UNL     1       6.662   5.337  18.693  0.00  0.00    +0.000 A 
ATOM      2  C   UNL     1       6.913   4.990  17.360  0.00  0.00    +0.000 A 
ATOM      3  C   UNL     1       5.854   4.683  16.492  0.00  0.00    +0.000 A 
ATOM      4  C   UNL     1       4.546   4.697  16.980  0.00  0.00    +0.000 A 
ATOM      5  C   UNL     1       4.304   5.067  18.305  0.00  0.00    +0.000 A 
ATOM      6  C   UNL     1       5.350   5.385  19.173  0.00  0.00    +0.000 A 
ENDROOT
BRANCH   3   7
ATOM      7  C   UNL     1       6.113   4.457  15.087  0.00  0.00    +0.000 A 
ATOM      8  C   UNL     1       5.390   3.657  14.167  0.00  0.00    +0.000 A 
ATOM      9  C   UNL     1       6.052   3.739  12.967  0.00  0.00    +0.000 A 
ATOM     10  O   UNL     1       7.147   4.533  13.088  0.00  0.00    +0.000 OA
ATOM     11  C   UNL     1       7.178   4.966  14.376  0.00  0.00    +0.000 A 
ENDBRANCH   3   7
BRANCH   5  12
ATOM     12  S   UNL     1       2.617   5.170  18.846  0.00  0.00    +0.000 S 
ATOM     13  O   UNL     1       1.806   4.874  17.687  0.00  0.00    +0.000 OA
ATOM     14  O   UNL     1       2.494   4.416  20.072  0.00  0.00    +0.000 OA
BRANCH  12  15
ATOM     15  N   UNL     1       2.465   6.850  19.224  0.00  0.00    +0.000 NA
ATOM     16  C   UNL     1       1.594   7.106  20.423  0.00  0.00    +0.000 C 
ATOM     17  C   UNL     1       1.491   8.578  20.820  0.00  0.00    +0.000 C 
ATOM     18  S   UNL     1       0.826   9.603  19.480  0.00  0.00    +0.000 S 
ATOM     19  C   UNL     1       2.093   9.170  18.260  0.00  0.00    +0.000 C 
ATOM     20  C   UNL     1       2.141   7.664  18.005  0.00  0.00    +0.000 C 
ENDBRANCH  12  15
ENDBRANCH   5  12
BRANCH   1  22
ATOM     21  O   UNL     1       8.112   5.182  20.564  0.00  0.00    +0.000 OA
ATOM     22  C   UNL     1       7.802   5.764  19.540  0.00  0.00    +0.000 C 
BRANCH  22  23
ATOM     23  O   UNL     1       8.451   6.848  19.070  0.00  0.00    +0.000 OA
ATOM     24  H   UNL     1       8.674   7.528  19.733  0.00  0.00    +0.000 HD
ENDBRANCH  22  23
ENDBRANCH   1  22
TORSDOF 5
ENDMDL
MODEL 2
REMARK VINA RESULT:      -7.5      1.376      1.961
REMARK  Name = 
REMARK  5 active torsions:
REMARK  status: ('A' for Active; 'I' for Inactive)
REMARK    1  A    between atoms: C_2  and  O_3
REMARK    2  A    between atoms: C_2  and  C_4
REMARK    3  A    between atoms: C_6  and  C_7
REMARK    4  A    between atoms: C_13  and  S_14
REMARK    5  A    between atoms: S_14  and  N_17
REMARK                            x       y       z     vdW  Elec       q    Type
REMARK                         _______ _______ _______ _____ _____    ______ ____
ROOT
ATOM      1  C   UNL     1       6.766   5.125  18.157  0.00  0.00    +0.000 A 
ATOM      2  C   UNL     1       7.101   5.005  16.803  0.00  0.00    +0.000 A 
ATOM      3  C   UNL     1       6.235   4.357  15.909  0.00  0.00    +0.000 A 
ATOM      4  C   UNL     1       5.046   3.806  16.390  0.00  0.00    +0.000 A 
ATOM      5  C   UNL     1       4.709   3.951  17.739  0.00  0.00    +0.000 A 
ATOM      6  C   UNL     1       5.560   4.603  18.634  0.00  0.00    +0.000 A 
ENDROOT
BRANCH   3   7
ATOM      7  C   UNL     1       6.526   4.356  14.493  0.00  0.00    +0.000 A 
ATOM      8  C   UNL     1       5.928   3.588  13.462  0.00  0.00    +0.000 A 
ATOM      9  C   UNL     1       6.573   3.920  12.297  0.00  0.00    +0.000 A 
ATOM     10  O   UNL     1       7.542   4.840  12.541  0.00  0.00    +0.000 OA
ATOM     11  C   UNL     1       7.507   5.101  13.875  0.00  0.00    +0.000 A 
ENDBRANCH   3   7
BRANCH   5  12
ATOM     12  S   UNL     1       3.140   3.323  18.278  0.00  0.00    +0.000 S 
ATOM     13  O   UNL     1       2.507   2.764  17.105  0.00  0.00    +0.000 OA
ATOM     14  O   UNL     1       3.358   2.537  19.470  0.00  0.00    +0.000 OA
BRANCH  12  15
ATOM     15  N   UNL     1       2.310   4.772  18.726  0.00  0.00    +0.000 NA
ATOM     16  C   UNL     1       2.797   5.983  17.979  0.00  0.00    +0.000 C 
ATOM     17  C   UNL     1       2.040   7.269  18.309  0.00  0.00    +0.000 C 
ATOM     18  S   UNL     1       2.134   7.686  20.071  0.00  0.00    +0.000 S 
ATOM     19  C   UNL     1       1.418   6.136  20.674  0.00  0.00    +0.000 C 
ATOM     20  C   UNL     1       2.228   4.923  20.218  0.00  0.00    +0.000 C 
ENDBRANCH  12  15
ENDBRANCH   5  12
BRANCH   1  22
ATOM     21  O   UNL     1       8.197   6.945  18.675  0.00  0.00    +0.000 OA
ATOM     22  C   UNL     1       7.658   5.916  19.040  0.00  0.00    +0.000 C 
BRANCH  22  23
ATOM     23  O   UNL     1       7.813   5.386  20.269  0.00  0.00    +0.000 OA
ATOM     24  H   UNL     1       8.078   6.011  20.969  0.00  0.00    +0.000 HD
ENDBRANCH  22  23
ENDBRANCH   1  22
TORSDOF 5
ENDMDL
MODEL 3
REMARK VINA RESULT:      -7.4      2.310      3.141
REMARK  Name = 
REMARK  5 active torsions:
REMARK  status: ('A' for Active; 'I' for Inactive)
REMARK    1  A    between atoms: C_2  and  O_3
REMARK    2  A    between atoms: C_2  and  C_4
REMARK    3  A    between atoms: C_6  and  C_7
REMARK    4  A    between atoms: C_13  and  S_14
REMARK    5  A    between atoms: S_14  and  N_17
REMARK                            x       y       z     vdW  Elec       q    Type
REMARK                         _______ _______ _______ _____ _____    ______ ____
ROOT
ATOM      1  C   UNL     1       6.797   5.638  17.751  0.00  0.00    +0.000 A 
ATOM      2  C   UNL     1       7.171   5.295  16.446  0.00  0.00    +0.000 A 
ATOM      3  C   UNL     1       6.226   4.776  15.547  0.00  0.00    +0.000 A 
ATOM      4  C   UNL     1       4.913   4.576  15.977  0.00  0.00    +0.000 A 
ATOM      5  C   UNL     1       4.544   4.944  17.274  0.00  0.00    +0.000 A 
ATOM      6  C   UNL     1       5.474   5.470  18.172  0.00  0.00    +0.000 A 
ENDROOT
BRANCH   3   7
ATOM      7  C   UNL     1       6.591   4.551  14.166  0.00  0.00    +0.000 A 
ATOM      8  C   UNL     1       6.055   3.615  13.246  0.00  0.00    +0.000 A 
ATOM      9  C   UNL     1       6.756   3.766  12.076  0.00  0.00    +0.000 A 
ATOM     10  O   UNL     1       7.701   4.732  12.215  0.00  0.00    +0.000 OA
ATOM     11  C   UNL     1       7.595   5.204  13.484  0.00  0.00    +0.000 A 
ENDBRANCH   3   7
BRANCH   5  12
ATOM     12  S   UNL     1       2.840   4.767  17.736  0.00  0.00    +0.000 S 
ATOM     13  O   UNL     1       2.294   6.105  17.774  0.00  0.00    +0.000 OA
ATOM     14  O   UNL     1       2.258   3.733  16.912  0.00  0.00    +0.000 OA
BRANCH  12  15
ATOM     15  N   UNL     1       2.969   4.167  19.352  0.00  0.00    +0.000 NA
ATOM     16  C   UNL     1       3.392   2.725  19.412  0.00  0.00    +0.000 C 
ATOM     17  C   UNL     1       3.576   2.183  20.829  0.00  0.00    +0.000 C 
ATOM     18  S   UNL     1       2.057   2.309  21.811  0.00  0.00    +0.000 S 
ATOM     19  C   UNL     1       1.862   4.101  21.637  0.00  0.00    +0.000 C 
ATOM     20  C   UNL     1       1.761   4.520  20.172  0.00  0.00    +0.000 C 
ENDBRANCH  12  15
ENDBRANCH   5  12
BRANCH   1  22
ATOM     21  O   UNL     1       8.223   7.411  18.421  0.00  0.00    +0.000 OA
ATOM     22  C   UNL     1       7.801   6.287  18.628  0.00  0.00    +0.000 C 
BRANCH  22  23
ATOM     23  O   UNL     1       8.197   5.518  19.661  0.00  0.00    +0.000 OA
ATOM     24  H   UNL     1       7.665   5.596  20.475  0.00  0.00    +0.000 HD
ENDBRANCH  22  23
ENDBRANCH   1  22
TORSDOF 5
ENDMDL
MODEL 4
REMARK VINA RESULT:      -7.3      1.762      2.380
REMARK  Name = 
REMARK  5 active torsions:
REMARK  status: ('A' for Active; 'I' for Inactive)
REMARK    1  A    between atoms: C_2  and  O_3
REMARK    2  A    between atoms: C_2  and  C_4
REMARK    3  A    between atoms: C_6  and  C_7
REMARK    4  A    between atoms: C_13  and  S_14
REMARK    5  A    between atoms: S_14  and  N_17
REMARK                            x       y       z     vdW  Elec       q    Type
REMARK                         _______ _______ _______ _____ _____    ______ ____
ROOT
ATOM      1  C   UNL     1       7.052   6.075  17.370  0.00  0.00    +0.000 A 
ATOM      2  C   UNL     1       7.232   5.724  16.026  0.00  0.00    +0.000 A 
ATOM      3  C   UNL     1       6.513   4.657  15.466  0.00  0.00    +0.000 A 
ATOM      4  C   UNL     1       5.636   3.928  16.271  0.00  0.00    +0.000 A 
ATOM      5  C   UNL     1       5.446   4.300  17.604  0.00  0.00    +0.000 A 
ATOM      6  C   UNL     1       6.149   5.367  18.168  0.00  0.00    +0.000 A 
ENDROOT
BRANCH   3   7
ATOM      7  C   UNL     1       6.606   4.389  14.048  0.00  0.00    +0.000 A 
ATOM      8  C   UNL     1       5.830   3.504  13.257  0.00  0.00    +0.000 A 
ATOM      9  C   UNL     1       6.326   3.578  11.980  0.00  0.00    +0.000 A 
ATOM     10  O   UNL     1       7.368   4.447  11.929  0.00  0.00    +0.000 OA
ATOM     11  C   UNL     1       7.532   4.936  13.187  0.00  0.00    +0.000 A 
ENDBRANCH   3   7
BRANCH   5  12
ATOM     12  S   UNL     1       4.243   3.406  18.555  0.00  0.00    +0.000 S 
ATOM     13  O   UNL     1       3.693   2.407  17.668  0.00  0.00    +0.000 OA
ATOM     14  O   UNL     1       4.847   3.051  19.818  0.00  0.00    +0.000 OA
BRANCH  12  15
ATOM     15  N   UNL     1       3.046   4.618  18.847  0.00  0.00    +0.000 NA
ATOM     16  C   UNL     1       3.258   5.863  18.030  0.00  0.00    +0.000 C 
ATOM     17  C   UNL     1       2.180   6.929  18.220  0.00  0.00    +0.000 C 
ATOM     18  S   UNL     1       2.048   7.468  19.946  0.00  0.00    +0.000 S 
ATOM     19  C   UNL     1       1.709   5.828  20.636  0.00  0.00    +0.000 C 
ATOM     20  C   UNL     1       2.828   4.839  20.316  0.00  0.00    +0.000 C 
ENDBRANCH  12  15
ENDBRANCH   5  12
BRANCH   1  22
ATOM     21  O   UNL     1       7.693   8.358  17.325  0.00  0.00    +0.000 OA
ATOM     22  C   UNL     1       7.747   7.279  17.886  0.00  0.00    +0.000 C 
BRANCH  22  23
ATOM     23  O   UNL     1       8.438   7.060  19.023  0.00  0.00    +0.000 OA
ATOM     24  H   UNL     1       9.069   7.760  19.276  0.00  0.00    +0.000 HD
ENDBRANCH  22  23
ENDBRANCH   1  22
TORSDOF 5
ENDMDL
MODEL 5
REMARK VINA RESULT:      -7.3      3.086      6.803
REMARK  Name = 
REMARK  5 active torsions:
REMARK  status: ('A' for Active; 'I' for Inactive)
REMARK    1  A    between atoms: C_2  and  O_3
REMARK    2  A    between atoms: C_2  and  C_4
REMARK    3  A    between atoms: C_6  and  C_7
REMARK    4  A    between atoms: C_13  and  S_14
REMARK    5  A    between atoms: S_14  and  N_17
REMARK                            x       y       z     vdW  Elec       q    Type
REMARK                         _______ _______ _______ _____ _____    ______ ____
ROOT
ATOM      1  C   UNL     1       3.682   3.793  17.991  0.00  0.00    +0.000 A 
ATOM      2  C   UNL     1       2.950   4.922  18.381  0.00  0.00    +0.000 A 
ATOM      3  C   UNL     1       3.469   6.211  18.184  0.00  0.00    +0.000 A 
ATOM      4  C   UNL     1       4.738   6.357  17.620  0.00  0.00    +0.000 A 
ATOM      5  C   UNL     1       5.450   5.226  17.212  0.00  0.00    +0.000 A 
ATOM      6  C   UNL     1       4.938   3.940  17.395  0.00  0.00    +0.000 A 
ENDROOT
BRANCH   3   7
ATOM      7  C   UNL     1       2.652   7.370  18.467  0.00  0.00    +0.000 A 
ATOM      8  C   UNL     1       2.361   8.479  17.632  0.00  0.00    +0.000 A 
ATOM      9  C   UNL     1       1.574   9.330  18.366  0.00  0.00    +0.000 A 
ATOM     10  O   UNL     1       1.365   8.823  19.609  0.00  0.00    +0.000 OA
ATOM     11  C   UNL     1       2.021   7.634  19.663  0.00  0.00    +0.000 A 
ENDBRANCH   3   7
BRANCH   5  12
ATOM     12  S   UNL     1       7.012   5.470  16.406  0.00  0.00    +0.000 S 
ATOM     13  O   UNL     1       7.339   6.867  16.582  0.00  0.00    +0.000 OA
ATOM     14  O   UNL     1       7.906   4.421  16.837  0.00  0.00    +0.000 OA
BRANCH  12  15
ATOM     15  N   UNL     1       6.607   5.192  14.749  0.00  0.00    +0.000 NA
ATOM     16  C   UNL     1       5.706   4.003  14.555  0.00  0.00    +0.000 C 
ATOM     17  C   UNL     1       5.279   3.769  13.107  0.00  0.00    +0.000 C 
ATOM     18  S   UNL     1       6.699   3.517  12.008  0.00  0.00    +0.000 S 
ATOM     19  C   UNL     1       7.512   5.092  12.378  0.00  0.00    +0.000 C 
ATOM     20  C   UNL     1       7.822   5.233  13.868  0.00  0.00    +0.000 C 
ENDBRANCH  12  15
ENDBRANCH   5  12
BRANCH   1  22
ATOM     21  O   UNL     1       1.857   2.319  18.341  0.00  0.00    +0.000 OA
ATOM     22  C   UNL     1       3.045   2.460  18.115  0.00  0.00    +0.000 C 
BRANCH  22  23
ATOM     23  O   UNL     1       3.903   1.433  17.958  0.00  0.00    +0.000 OA
ATOM     24  H   UNL     1       3.594   0.706  17.385  0.00  0.00    +0.000 HD
ENDBRANCH  22  23
ENDBRANCH   1  22
TORSDOF 5
ENDMDL
MODEL 6
REMARK VINA RESULT:      -7.2      0.448      1.035
REMARK  Name = 
REMARK  5 active torsions:
REMARK  status: ('A' for Active; 'I' for Inactive)
REMARK    1  A    between atoms: C_2  and  O_3
REMARK    2  A    between atoms: C_2  and  C_4
REMARK    3  A    between atoms: C_6  and  C_7
REMARK    4  A    between atoms: C_13  and  S_14
REMARK    5  A    between atoms: S_14  and  N_17
REMARK                            x       y       z     vdW  Elec       q    Type
REMARK                         _______ _______ _______ _____ _____    ______ ____
ROOT
ATOM      1  C   UNL     1       6.708   5.507  18.499  0.00  0.00    +0.000 A 
ATOM      2  C   UNL     1       6.935   5.107  17.176  0.00  0.00    +0.000 A 
ATOM      3  C   UNL     1       5.868   4.694  16.364  0.00  0.00    +0.000 A 
ATOM      4  C   UNL     1       4.578   4.658  16.897  0.00  0.00    +0.000 A 
ATOM      5  C   UNL     1       4.359   5.081  18.211  0.00  0.00    +0.000 A 
ATOM      6  C   UNL     1       5.413   5.503  19.024  0.00  0.00    +0.000 A 
ENDROOT
BRANCH   3   7
ATOM      7  C   UNL     1       6.092   4.412  14.963  0.00  0.00    +0.000 A 
ATOM      8  C   UNL     1       7.185   4.791  14.143  0.00  0.00    +0.000 A 
ATOM      9  C   UNL     1       6.918   4.314  12.884  0.00  0.00    +0.000 A 
ATOM     10  O   UNL     1       5.722   3.670  12.869  0.00  0.00    +0.000 OA
ATOM     11  C   UNL     1       5.228   3.732  14.133  0.00  0.00    +0.000 A 
ENDBRANCH   3   7
BRANCH   5  12
ATOM     12  S   UNL     1       2.688   5.114  18.807  0.00  0.00    +0.000 S 
ATOM     13  O   UNL     1       1.849   4.823  17.667  0.00  0.00    +0.000 OA
ATOM     14  O   UNL     1       2.629   4.323  20.015  0.00  0.00    +0.000 OA
BRANCH  12  15
ATOM     15  N   UNL     1       2.495   6.777  19.237  0.00  0.00    +0.000 NA
ATOM     16  C   UNL     1       1.590   6.977  20.421  0.00  0.00    +0.000 C 
ATOM     17  C   UNL     1       1.449   8.433  20.864  0.00  0.00    +0.000 C 
ATOM     18  S   UNL     1       0.798   9.490  19.543  0.00  0.00    +0.000 S 
ATOM     19  C   UNL     1       2.103   9.121  18.341  0.00  0.00    +0.000 C 
ATOM     20  C   UNL     1       2.186   7.626  18.038  0.00  0.00    +0.000 C 
ENDBRANCH  12  15
ENDBRANCH   5  12
BRANCH   1  22
ATOM     21  O   UNL     1       8.508   6.996  18.911  0.00  0.00    +0.000 OA
ATOM     22  C   UNL     1       7.849   6.042  19.281  0.00  0.00    +0.000 C 
BRANCH  22  23
ATOM     23  O   UNL     1       8.081   5.372  20.428  0.00  0.00    +0.000 OA
ATOM     24  H   UNL     1       7.709   4.472  20.476  0.00  0.00    +0.000 HD
ENDBRANCH  22  23
ENDBRANCH   1  22
TORSDOF 5
ENDMDL
MODEL 7
REMARK VINA RESULT:      -7.1      2.323      3.128
REMARK  Name = 
REMARK  5 active torsions:
REMARK  status: ('A' for Active; 'I' for Inactive)
REMARK    1  A    between atoms: C_2  and  O_3
REMARK    2  A    between atoms: C_2  and  C_4
REMARK    3  A    between atoms: C_6  and  C_7
REMARK    4  A    between atoms: C_13  and  S_14
REMARK    5  A    between atoms: S_14  and  N_17
REMARK                            x       y       z     vdW  Elec       q    Type
REMARK                         _______ _______ _______ _____ _____    ______ ____
ROOT
ATOM      1  C   UNL     1       6.820   5.306  17.832  0.00  0.00    +0.000 A 
ATOM      2  C   UNL     1       7.213   5.047  16.513  0.00  0.00    +0.000 A 
ATOM      3  C   UNL     1       6.274   4.625  15.559  0.00  0.00    +0.000 A 
ATOM      4  C   UNL     1       4.946   4.436  15.946  0.00  0.00    +0.000 A 
ATOM      5  C   UNL     1       4.559   4.720  17.258  0.00  0.00    +0.000 A 
ATOM      6  C   UNL     1       5.483   5.150  18.212  0.00  0.00    +0.000 A 
ENDROOT
BRANCH   3   7
ATOM      7  C   UNL     1       6.663   4.489  14.173  0.00  0.00    +0.000 A 
ATOM      8  C   UNL     1       7.639   5.218  13.447  0.00  0.00    +0.000 A 
ATOM      9  C   UNL     1       7.610   4.744  12.160  0.00  0.00    +0.000 A 
ATOM     10  O   UNL     1       6.671   3.770  12.038  0.00  0.00    +0.000 OA
ATOM     11  C   UNL     1       6.101   3.621  13.263  0.00  0.00    +0.000 A 
ENDBRANCH   3   7
BRANCH   5  12
ATOM     12  S   UNL     1       2.840   4.564  17.671  0.00  0.00    +0.000 S 
ATOM     13  O   UNL     1       2.289   5.899  17.605  0.00  0.00    +0.000 OA
ATOM     14  O   UNL     1       2.291   3.477  16.895  0.00  0.00    +0.000 OA
BRANCH  12  15
ATOM     15  N   UNL     1       2.914   4.068  19.326  0.00  0.00    +0.000 NA
ATOM     16  C   UNL     1       3.202   2.601  19.487  0.00  0.00    +0.000 C 
ATOM     17  C   UNL     1       3.335   2.144  20.939  0.00  0.00    +0.000 C 
ATOM     18  S   UNL     1       1.835   2.478  21.901  0.00  0.00    +0.000 S 
ATOM     19  C   UNL     1       1.808   4.264  21.603  0.00  0.00    +0.000 C 
ATOM     20  C   UNL     1       1.745   4.588  20.112  0.00  0.00    +0.000 C 
ENDBRANCH  12  15
ENDBRANCH   5  12
BRANCH   1  22
ATOM     21  O   UNL     1       8.295   5.204  19.687  0.00  0.00    +0.000 OA
ATOM     22  C   UNL     1       7.823   5.858  18.774  0.00  0.00    +0.000 C 
BRANCH  22  23
ATOM     23  O   UNL     1       8.154   7.140  18.524  0.00  0.00    +0.000 OA
ATOM     24  H   UNL     1       8.246   7.378  17.583  0.00  0.00    +0.000 HD
ENDBRANCH  22  23
ENDBRANCH   1  22
TORSDOF 5
ENDMDL
MODEL 8
REMARK VINA RESULT:      -6.8      1.014      1.147
REMARK  Name = 
REMARK  5 active torsions:
REMARK  status: ('A' for Active; 'I' for Inactive)
REMARK    1  A    between atoms: C_2  and  O_3
REMARK    2  A    between atoms: C_2  and  C_4
REMARK    3  A    between atoms: C_6  and  C_7
REMARK    4  A    between atoms: C_13  and  S_14
REMARK    5  A    between atoms: S_14  and  N_17
REMARK                            x       y       z     vdW  Elec       q    Type
REMARK                         _______ _______ _______ _____ _____    ______ ____
ROOT
ATOM      1  C   UNL     1       6.763   6.422  17.501  0.00  0.00    +0.000 A 
ATOM      2  C   UNL     1       6.935   5.813  16.252  0.00  0.00    +0.000 A 
ATOM      3  C   UNL     1       5.925   5.004  15.709  0.00  0.00    +0.000 A 
ATOM      4  C   UNL     1       4.756   4.787  16.441  0.00  0.00    +0.000 A 
ATOM      5  C   UNL     1       4.584   5.419  17.675  0.00  0.00    +0.000 A 
ATOM      6  C   UNL     1       5.579   6.234  18.220  0.00  0.00    +0.000 A 
ENDROOT
BRANCH   3   7
ATOM      7  C   UNL     1       6.057   4.489  14.364  0.00  0.00    +0.000 A 
ATOM      8  C   UNL     1       5.168   3.657  13.639  0.00  0.00    +0.000 A 
ATOM      9  C   UNL     1       5.755   3.416  12.422  0.00  0.00    +0.000 A 
ATOM     10  O   UNL     1       6.960   4.039  12.350  0.00  0.00    +0.000 OA
ATOM     11  C   UNL     1       7.136   4.689  13.531  0.00  0.00    +0.000 A 
ENDBRANCH   3   7
BRANCH   5  12
ATOM     12  S   UNL     1       3.038   5.195  18.517  0.00  0.00    +0.000 S 
ATOM     13  O   UNL     1       2.080   4.819  17.503  0.00  0.00    +0.000 OA
ATOM     14  O   UNL     1       3.277   4.370  19.679  0.00  0.00    +0.000 OA
BRANCH  12  15
ATOM     15  N   UNL     1       2.687   6.800  19.054  0.00  0.00    +0.000 NA
ATOM     16  C   UNL     1       1.817   6.833  20.280  0.00  0.00    +0.000 C 
ATOM     17  C   UNL     1       1.541   8.238  20.815  0.00  0.00    +0.000 C 
ATOM     18  S   UNL     1       0.726   9.290  19.585  0.00  0.00    +0.000 S 
ATOM     19  C   UNL     1       2.010   9.134  18.316  0.00  0.00    +0.000 C 
ATOM     20  C   UNL     1       2.239   7.677  17.920  0.00  0.00    +0.000 C 
ENDBRANCH  12  15
ENDBRANCH   5  12
BRANCH   1  22
ATOM     21  O   UNL     1       8.495   7.127  18.961  0.00  0.00    +0.000 OA
ATOM     22  C   UNL     1       7.808   7.358  17.982  0.00  0.00    +0.000 C 
BRANCH  22  23
ATOM     23  O   UNL     1       7.918   8.477  17.238  0.00  0.00    +0.000 OA
ATOM     24  H   UNL     1       8.296   8.357  16.347  0.00  0.00    +0.000 HD
ENDBRANCH  22  23
ENDBRANCH   1  22
TORSDOF 5
ENDMDL
MODEL 9
REMARK VINA RESULT:      -6.8      3.323      6.588
REMARK  Name = 
REMARK  5 active torsions:
REMARK  status: ('A' for Active; 'I' for Inactive)
REMARK    1  A    between atoms: C_2  and  O_3
REMARK    2  A    between atoms: C_2  and  C_4
REMARK    3  A    between atoms: C_6  and  C_7
REMARK    4  A    between atoms: C_13  and  S_14
REMARK    5  A    between atoms: S_14  and  N_17
REMARK                            x       y       z     vdW  Elec       q    Type
REMARK                         _______ _______ _______ _____ _____    ______ ____
ROOT
ATOM      1  C   UNL     1       2.445   3.867  18.110  0.00  0.00    +0.000 A 
ATOM      2  C   UNL     1       1.997   4.941  18.890  0.00  0.00    +0.000 A 
ATOM      3  C   UNL     1       2.553   6.219  18.728  0.00  0.00    +0.000 A 
ATOM      4  C   UNL     1       3.580   6.405  17.801  0.00  0.00    +0.000 A 
ATOM      5  C   UNL     1       4.004   5.333  17.012  0.00  0.00    +0.000 A 
ATOM      6  C   UNL     1       3.450   4.059  17.158  0.00  0.00    +0.000 A 
ENDROOT
BRANCH   3   7
ATOM      7  C   UNL     1       1.993   7.346  19.441  0.00  0.00    +0.000 A 
ATOM      8  C   UNL     1       1.514   7.407  20.774  0.00  0.00    +0.000 A 
ATOM      9  C   UNL     1       1.051   8.684  20.970  0.00  0.00    +0.000 A 
ATOM     10  O   UNL     1       1.205   9.419  19.838  0.00  0.00    +0.000 OA
ATOM     11  C   UNL     1       1.777   8.602  18.915  0.00  0.00    +0.000 A 
ENDBRANCH   3   7
BRANCH   5  12
ATOM     12  S   UNL     1       5.239   5.645  15.777  0.00  0.00    +0.000 S 
ATOM     13  O   UNL     1       5.305   4.451  14.965  0.00  0.00    +0.000 OA
ATOM     14  O   UNL     1       4.975   6.943  15.199  0.00  0.00    +0.000 OA
BRANCH  12  15
ATOM     15  N   UNL     1       6.677   5.756  16.729  0.00  0.00    +0.000 NA
ATOM     16  C   UNL     1       6.913   4.539  17.582  0.00  0.00    +0.000 C 
ATOM     17  C   UNL     1       8.210   4.581  18.389  0.00  0.00    +0.000 C 
ATOM     18  S   UNL     1       8.273   6.006  19.507  0.00  0.00    +0.000 S 
ATOM     19  C   UNL     1       8.066   7.268  18.224  0.00  0.00    +0.000 C 
ATOM     20  C   UNL     1       6.766   7.073  17.445  0.00  0.00    +0.000 C 
ENDBRANCH  12  15
ENDBRANCH   5  12
BRANCH   1  22
ATOM     21  O   UNL     1       0.558   2.475  18.469  0.00  0.00    +0.000 OA
ATOM     22  C   UNL     1       1.751   2.563  18.236  0.00  0.00    +0.000 C 
BRANCH  22  23
ATOM     23  O   UNL     1       2.561   1.499  18.072  0.00  0.00    +0.000 OA
ATOM     24  H   UNL     1       3.463   1.698  17.758  0.00  0.00    +0.000 HD
ENDBRANCH  22  23
ENDBRANCH   1  22
TORSDOF 5
ENDMDL
