MODEL 1
REMARK VINA RESULT:      -7.5      0.000      0.000
REMARK  Name = 
REMARK  13 active torsions:
REMARK  status: ('A' for Active; 'I' for Inactive)
REMARK    1  A    between atoms: C_1  and  C_2
REMARK    2  A    between atoms: C_2  and  O_3
REMARK    3  A    between atoms: O_3  and  C_4
REMARK    4  A    between atoms: C_9  and  C_10
REMARK    5  A    between atoms: C_10  and  O_12
REMARK    6  A    between atoms: O_12  and  C_13
REMARK    7  A    between atoms: C_13  and  C_14
REMARK    8  A    between atoms: N_16  and  C_17
REMARK    9  A    between atoms: C_20  and  C_21
REMARK   10  A    between atoms: C_22  and  S_23
REMARK   11  A    between atoms: S_23  and  N_26
REMARK   12  A    between atoms: N_26  and  C_27
REMARK   13  A    between atoms: N_26  and  C_28
REMARK                            x       y       z     vdW  Elec       q    Type
REMARK                         _______ _______ _______ _____ _____    ______ ____
ROOT
ATOM      1  C   UNL     1       1.731   9.110  18.457  0.00  0.00    +0.000 C 
ATOM      2  O   UNL     1       2.001   9.431  17.301  0.00  0.00    +0.000 OA
ATOM      3  N   UNL     1       2.143   7.940  19.096  0.00  0.00    +0.000 N 
ATOM      4  H   UNL     1       1.681   7.689  19.960  0.00  0.00    +0.000 HD
ENDROOT
BRANCH   3   5
ATOM      5  C   UNL     1       3.003   6.973  18.522  0.00  0.00    +0.000 A 
ATOM      6  C   UNL     1       3.944   7.300  17.549  0.00  0.00    +0.000 A 
ATOM      7  C   UNL     1       4.655   6.308  16.877  0.00  0.00    +0.000 A 
ATOM      8  C   UNL     1       4.463   4.949  17.167  0.00  0.00    +0.000 A 
ATOM      9  C   UNL     1       5.153   3.964  16.264  0.00  0.00    +0.000 C 
ATOM     10  C   UNL     1       3.629   4.623  18.250  0.00  0.00    +0.000 A 
ATOM     11  C   UNL     1       2.895   5.636  18.917  0.00  0.00    +0.000 A 
BRANCH  10  12
ATOM     12  S   UNL     1       3.317   2.930  18.778  0.00  0.00    +0.000 S 
ATOM     13  O   UNL     1       2.744   2.236  17.644  0.00  0.00    +0.000 OA
ATOM     14  O   UNL     1       4.503   2.408  19.422  0.00  0.00    +0.000 OA
BRANCH  12  15
ATOM     15  N   UNL     1       2.096   3.078  19.951  0.00  0.00    +0.000 NA
ATOM     16  C   UNL     1       0.717   2.730  19.582  0.00  0.00    +0.000 C 
ATOM     17  C   UNL     1       2.437   2.722  21.336  0.00  0.00    +0.000 C 
ENDBRANCH  12  15
ENDBRANCH  10  12
ENDBRANCH   3   5
BRANCH   1  18
ATOM     18  C   UNL     1       0.820  10.003  19.306  0.00  0.00    +0.000 C 
BRANCH  18  19
ATOM     19  O   UNL     1      -0.429  10.260  18.651  0.00  0.00    +0.000 OA
BRANCH  19  20
ATOM     20  C   UNL     1      -0.714  11.584  18.510  0.00  0.00    +0.000 C 
ATOM     21  O   UNL     1       0.115  12.463  18.355  0.00  0.00    +0.000 OA
BRANCH  20  27
ATOM     22  C   UNL     1      -3.004  11.552  17.502  0.00  0.00    +0.000 A 
ATOM     23  N   UNL     1      -4.353  11.721  17.541  0.00  0.00    +0.000 NA
ATOM     24  C   UNL     1      -4.897  12.144  18.700  0.00  0.00    +0.000 A 
ATOM     25  C   UNL     1      -4.158  12.408  19.838  0.00  0.00    +0.000 A 
ATOM     26  C   UNL     1      -2.778  12.222  19.785  0.00  0.00    +0.000 A 
ATOM     27  C   UNL     1      -2.179  11.784  18.596  0.00  0.00    +0.000 A 
BRANCH  22  28
ATOM     28  O   UNL     1      -2.448  11.137  16.310  0.00  0.00    +0.000 OA
BRANCH  28  30
ATOM     29  C   UNL     1      -3.064  10.037  14.277  0.00  0.00    +0.000 C 
ATOM     30  C   UNL     1      -3.071   9.961  15.792  0.00  0.00    +0.000 C 
ENDBRANCH  28  30
ENDBRANCH  22  28
ENDBRANCH  20  27
ENDBRANCH  19  20
ENDBRANCH  18  19
ENDBRANCH   1  18
TORSDOF 9
ENDMDL
MODEL 2
REMARK VINA RESULT:      -7.5      2.709      3.595
REMARK  Name = 
REMARK  13 active torsions:
REMARK  status: ('A' for Active; 'I' for Inactive)
REMARK    1  A    between atoms: C_1  and  C_2
REMARK    2  A    between atoms: C_2  and  O_3
REMARK    3  A    between atoms: O_3  and  C_4
REMARK    4  A    between atoms: C_9  and  C_10
REMARK    5  A    between atoms: C_10  and  O_12
REMARK    6  A    between atoms: O_12  and  C_13
REMARK    7  A    between atoms: C_13  and  C_14
REMARK    8  A    between atoms: N_16  and  C_17
REMARK    9  A    between atoms: C_20  and  C_21
REMARK   10  A    between atoms: C_22  and  S_23
REMARK   11  A    between atoms: S_23  and  N_26
REMARK   12  A    between atoms: N_26  and  C_27
REMARK   13  A    between atoms: N_26  and  C_28
REMARK                            x       y       z     vdW  Elec       q    Type
REMARK                         _______ _______ _______ _____ _____    ______ ____
ROOT
ATOM      1  C   UNL     1       0.827   9.158  22.254  0.00  0.00    +0.000 C 
ATOM      2  O   UNL     1       1.963   9.404  22.657  0.00  0.00    +0.000 OA
ATOM      3  N   UNL     1       0.508   8.428  21.108  0.00  0.00    +0.000 N 
ATOM      4  H   UNL     1      -0.442   8.481  20.767  0.00  0.00    +0.000 HD
ENDROOT
BRANCH   3   5
ATOM      5  C   UNL     1       1.458   7.795  20.271  0.00  0.00    +0.000 A 
ATOM      6  C   UNL     1       2.014   8.430  19.164  0.00  0.00    +0.000 A 
ATOM      7  C   UNL     1       2.810   7.730  18.260  0.00  0.00    +0.000 A 
ATOM      8  C   UNL     1       3.094   6.368  18.441  0.00  0.00    +0.000 A 
ATOM      9  C   UNL     1       3.816   5.677  17.317  0.00  0.00    +0.000 C 
ATOM     10  C   UNL     1       2.663   5.762  19.633  0.00  0.00    +0.000 A 
ATOM     11  C   UNL     1       1.838   6.475  20.538  0.00  0.00    +0.000 A 
BRANCH  10  12
ATOM     12  S   UNL     1       2.987   4.038  20.034  0.00  0.00    +0.000 S 
ATOM     13  O   UNL     1       4.394   3.806  19.786  0.00  0.00    +0.000 OA
ATOM     14  O   UNL     1       2.423   3.739  21.333  0.00  0.00    +0.000 OA
BRANCH  12  15
ATOM     15  N   UNL     1       2.117   3.166  18.863  0.00  0.00    +0.000 NA
ATOM     16  C   UNL     1       2.822   2.149  18.072  0.00  0.00    +0.000 C 
ATOM     17  C   UNL     1       0.728   2.801  19.180  0.00  0.00    +0.000 C 
ENDBRANCH  12  15
ENDBRANCH  10  12
ENDBRANCH   3   5
BRANCH   1  18
ATOM     18  C   UNL     1      -0.387   9.721  23.000  0.00  0.00    +0.000 C 
BRANCH  18  19
ATOM     19  O   UNL     1      -0.311  11.146  23.138  0.00  0.00    +0.000 OA
BRANCH  19  20
ATOM     20  C   UNL     1      -1.114  11.826  22.274  0.00  0.00    +0.000 C 
ATOM     21  O   UNL     1      -2.322  11.938  22.387  0.00  0.00    +0.000 OA
BRANCH  20  27
ATOM     22  C   UNL     1      -0.318  11.820  19.902  0.00  0.00    +0.000 A 
ATOM     23  N   UNL     1       0.416  12.302  18.864  0.00  0.00    +0.000 NA
ATOM     24  C   UNL     1       1.206  13.369  19.099  0.00  0.00    +0.000 A 
ATOM     25  C   UNL     1       1.302  13.991  20.330  0.00  0.00    +0.000 A 
ATOM     26  C   UNL     1       0.537  13.491  21.382  0.00  0.00    +0.000 A 
ATOM     27  C   UNL     1      -0.295  12.382  21.173  0.00  0.00    +0.000 A 
BRANCH  22  28
ATOM     28  O   UNL     1      -1.111  10.717  19.663  0.00  0.00    +0.000 OA
BRANCH  28  30
ATOM     29  C   UNL     1      -2.462  10.020  17.815  0.00  0.00    +0.000 C 
ATOM     30  C   UNL     1      -1.049  10.279  18.305  0.00  0.00    +0.000 C 
ENDBRANCH  28  30
ENDBRANCH  22  28
ENDBRANCH  20  27
ENDBRANCH  19  20
ENDBRANCH  18  19
ENDBRANCH   1  18
TORSDOF 9
ENDMDL
MODEL 3
REMARK VINA RESULT:      -7.5      2.446      3.738
REMARK  Name = 
REMARK  13 active torsions:
REMARK  status: ('A' for Active; 'I' for Inactive)
REMARK    1  A    between atoms: C_1  and  C_2
REMARK    2  A    between atoms: C_2  and  O_3
REMARK    3  A    between atoms: O_3  and  C_4
REMARK    4  A    between atoms: C_9  and  C_10
REMARK    5  A    between atoms: C_10  and  O_12
REMARK    6  A    between atoms: O_12  and  C_13
REMARK    7  A    between atoms: C_13  and  C_14
REMARK    8  A    between atoms: N_16  and  C_17
REMARK    9  A    between atoms: C_20  and  C_21
REMARK   10  A    between atoms: C_22  and  S_23
REMARK   11  A    between atoms: S_23  and  N_26
REMARK   12  A    between atoms: N_26  and  C_27
REMARK   13  A    between atoms: N_26  and  C_28
REMARK                            x       y       z     vdW  Elec       q    Type
REMARK                         _______ _______ _______ _____ _____    ______ ____
ROOT
ATOM      1  C   UNL     1       1.700   7.881  20.492  0.00  0.00    +0.000 C 
ATOM      2  O   UNL     1       1.794   8.250  19.322  0.00  0.00    +0.000 OA
ATOM      3  N   UNL     1       1.831   6.568  20.946  0.00  0.00    +0.000 N 
ATOM      4  H   UNL     1       1.519   6.362  21.885  0.00  0.00    +0.000 HD
ENDROOT
BRANCH   3   5
ATOM      5  C   UNL     1       2.167   5.465  20.123  0.00  0.00    +0.000 A 
ATOM      6  C   UNL     1       1.361   4.333  20.032  0.00  0.00    +0.000 A 
ATOM      7  C   UNL     1       1.796   3.196  19.355  0.00  0.00    +0.000 A 
ATOM      8  C   UNL     1       3.050   3.155  18.729  0.00  0.00    +0.000 A 
ATOM      9  C   UNL     1       3.486   1.824  18.181  0.00  0.00    +0.000 C 
ATOM     10  C   UNL     1       3.801   4.342  18.689  0.00  0.00    +0.000 A 
ATOM     11  C   UNL     1       3.361   5.490  19.395  0.00  0.00    +0.000 A 
BRANCH  10  12
ATOM     12  S   UNL     1       5.407   4.465  17.885  0.00  0.00    +0.000 S 
ATOM     13  O   UNL     1       6.403   4.150  18.886  0.00  0.00    +0.000 OA
ATOM     14  O   UNL     1       5.372   3.726  16.642  0.00  0.00    +0.000 OA
BRANCH  12  15
ATOM     15  N   UNL     1       5.564   6.117  17.518  0.00  0.00    +0.000 NA
ATOM     16  C   UNL     1       6.833   6.791  17.824  0.00  0.00    +0.000 C 
ATOM     17  C   UNL     1       4.927   6.603  16.284  0.00  0.00    +0.000 C 
ENDBRANCH  12  15
ENDBRANCH  10  12
ENDBRANCH   3   5
BRANCH   1  18
ATOM     18  C   UNL     1       1.356   8.894  21.588  0.00  0.00    +0.000 C 
BRANCH  18  19
ATOM     19  O   UNL     1       0.122   9.572  21.315  0.00  0.00    +0.000 OA
BRANCH  19  20
ATOM     20  C   UNL     1       0.249  10.924  21.213  0.00  0.00    +0.000 C 
ATOM     21  O   UNL     1       1.257  11.505  20.851  0.00  0.00    +0.000 OA
BRANCH  20  27
ATOM     22  C   UNL     1      -1.853  12.181  20.704  0.00  0.00    +0.000 A 
ATOM     23  N   UNL     1      -3.025  12.782  21.045  0.00  0.00    +0.000 NA
ATOM     24  C   UNL     1      -3.370  12.784  22.349  0.00  0.00    +0.000 A 
ATOM     25  C   UNL     1      -2.600  12.210  23.343  0.00  0.00    +0.000 A 
ATOM     26  C   UNL     1      -1.407  11.590  22.976  0.00  0.00    +0.000 A 
ATOM     27  C   UNL     1      -1.016  11.570  21.630  0.00  0.00    +0.000 A 
BRANCH  22  28
ATOM     28  O   UNL     1      -1.494  12.197  19.372  0.00  0.00    +0.000 OA
BRANCH  28  30
ATOM     29  C   UNL     1      -1.476  10.242  17.993  0.00  0.00    +0.000 C 
ATOM     30  C   UNL     1      -2.326  11.359  18.568  0.00  0.00    +0.000 C 
ENDBRANCH  28  30
ENDBRANCH  22  28
ENDBRANCH  20  27
ENDBRANCH  19  20
ENDBRANCH  18  19
ENDBRANCH   1  18
TORSDOF 9
ENDMDL
MODEL 4
REMARK VINA RESULT:      -7.4      2.649      3.732
REMARK  Name = 
REMARK  13 active torsions:
REMARK  status: ('A' for Active; 'I' for Inactive)
REMARK    1  A    between atoms: C_1  and  C_2
REMARK    2  A    between atoms: C_2  and  O_3
REMARK    3  A    between atoms: O_3  and  C_4
REMARK    4  A    between atoms: C_9  and  C_10
REMARK    5  A    between atoms: C_10  and  O_12
REMARK    6  A    between atoms: O_12  and  C_13
REMARK    7  A    between atoms: C_13  and  C_14
REMARK    8  A    between atoms: N_16  and  C_17
REMARK    9  A    between atoms: C_20  and  C_21
REMARK   10  A    between atoms: C_22  and  S_23
REMARK   11  A    between atoms: S_23  and  N_26
REMARK   12  A    between atoms: N_26  and  C_27
REMARK   13  A    between atoms: N_26  and  C_28
REMARK                            x       y       z     vdW  Elec       q    Type
REMARK                         _______ _______ _______ _____ _____    ______ ____
ROOT
ATOM      1  C   UNL     1       0.400   8.461  21.842  0.00  0.00    +0.000 C 
ATOM      2  O   UNL     1      -0.635   7.876  21.527  0.00  0.00    +0.000 OA
ATOM      3  N   UNL     1       1.680   8.164  21.371  0.00  0.00    +0.000 N 
ATOM      4  H   UNL     1       2.467   8.564  21.864  0.00  0.00    +0.000 HD
ENDROOT
BRANCH   3   5
ATOM      5  C   UNL     1       1.966   7.182  20.392  0.00  0.00    +0.000 A 
ATOM      6  C   UNL     1       2.168   7.505  19.052  0.00  0.00    +0.000 A 
ATOM      7  C   UNL     1       2.275   6.509  18.083  0.00  0.00    +0.000 A 
ATOM      8  C   UNL     1       2.200   5.150  18.422  0.00  0.00    +0.000 A 
ATOM      9  C   UNL     1       2.153   4.174  17.280  0.00  0.00    +0.000 C 
ATOM     10  C   UNL     1       2.149   4.818  19.787  0.00  0.00    +0.000 A 
ATOM     11  C   UNL     1       2.022   5.835  20.766  0.00  0.00    +0.000 A 
BRANCH  10  12
ATOM     12  S   UNL     1       2.095   3.121  20.386  0.00  0.00    +0.000 S 
ATOM     13  O   UNL     1       2.172   3.183  21.830  0.00  0.00    +0.000 OA
ATOM     14  O   UNL     1       0.996   2.429  19.749  0.00  0.00    +0.000 OA
BRANCH  12  15
ATOM     15  N   UNL     1       3.548   2.437  19.830  0.00  0.00    +0.000 NA
ATOM     16  C   UNL     1       3.489   1.416  18.775  0.00  0.00    +0.000 C 
ATOM     17  C   UNL     1       4.719   3.320  19.724  0.00  0.00    +0.000 C 
ENDBRANCH  12  15
ENDBRANCH  10  12
ENDBRANCH   3   5
BRANCH   1  18
ATOM     18  C   UNL     1       0.358   9.584  22.883  0.00  0.00    +0.000 C 
BRANCH  18  19
ATOM     19  O   UNL     1      -0.499  10.657  22.469  0.00  0.00    +0.000 OA
BRANCH  19  20
ATOM     20  C   UNL     1       0.000  11.392  21.438  0.00  0.00    +0.000 C 
ATOM     21  O   UNL     1       1.068  11.979  21.451  0.00  0.00    +0.000 OA
BRANCH  20  27
ATOM     22  C   UNL     1      -2.095  12.193  20.328  0.00  0.00    +0.000 A 
ATOM     23  N   UNL     1      -3.003  12.217  19.317  0.00  0.00    +0.000 NA
ATOM     24  C   UNL     1      -2.788  11.403  18.264  0.00  0.00    +0.000 A 
ATOM     25  C   UNL     1      -1.700  10.556  18.164  0.00  0.00    +0.000 A 
ATOM     26  C   UNL     1      -0.773  10.550  19.204  0.00  0.00    +0.000 A 
ATOM     27  C   UNL     1      -0.965  11.383  20.315  0.00  0.00    +0.000 A 
BRANCH  22  28
ATOM     28  O   UNL     1      -2.327  13.014  21.412  0.00  0.00    +0.000 OA
BRANCH  28  30
ATOM     29  C   UNL     1      -3.331  12.403  23.496  0.00  0.00    +0.000 C 
ATOM     30  C   UNL     1      -3.582  12.753  22.042  0.00  0.00    +0.000 C 
ENDBRANCH  28  30
ENDBRANCH  22  28
ENDBRANCH  20  27
ENDBRANCH  19  20
ENDBRANCH  18  19
ENDBRANCH   1  18
TORSDOF 9
ENDMDL
MODEL 5
REMARK VINA RESULT:      -7.4      2.213      3.979
REMARK  Name = 
REMARK  13 active torsions:
REMARK  status: ('A' for Active; 'I' for Inactive)
REMARK    1  A    between atoms: C_1  and  C_2
REMARK    2  A    between atoms: C_2  and  O_3
REMARK    3  A    between atoms: O_3  and  C_4
REMARK    4  A    between atoms: C_9  and  C_10
REMARK    5  A    between atoms: C_10  and  O_12
REMARK    6  A    between atoms: O_12  and  C_13
REMARK    7  A    between atoms: C_13  and  C_14
REMARK    8  A    between atoms: N_16  and  C_17
REMARK    9  A    between atoms: C_20  and  C_21
REMARK   10  A    between atoms: C_22  and  S_23
REMARK   11  A    between atoms: S_23  and  N_26
REMARK   12  A    between atoms: N_26  and  C_27
REMARK   13  A    between atoms: N_26  and  C_28
REMARK                            x       y       z     vdW  Elec       q    Type
REMARK                         _______ _______ _______ _____ _____    ______ ____
ROOT
ATOM      1  C   UNL     1       1.733   7.987  20.275  0.00  0.00    +0.000 C 
ATOM      2  O   UNL     1       1.824   8.266  19.080  0.00  0.00    +0.000 OA
ATOM      3  N   UNL     1       1.853   6.709  20.824  0.00  0.00    +0.000 N 
ATOM      4  H   UNL     1       1.543   6.578  21.778  0.00  0.00    +0.000 HD
ENDROOT
BRANCH   3   5
ATOM      5  C   UNL     1       2.172   5.545  20.085  0.00  0.00    +0.000 A 
ATOM      6  C   UNL     1       1.388   4.395  20.133  0.00  0.00    +0.000 A 
ATOM      7  C   UNL     1       1.815   3.210  19.537  0.00  0.00    +0.000 A 
ATOM      8  C   UNL     1       3.037   3.137  18.854  0.00  0.00    +0.000 A 
ATOM      9  C   UNL     1       3.475   1.771  18.402  0.00  0.00    +0.000 C 
ATOM     10  C   UNL     1       3.759   4.329  18.672  0.00  0.00    +0.000 A 
ATOM     11  C   UNL     1       3.328   5.527  19.297  0.00  0.00    +0.000 A 
BRANCH  10  12
ATOM     12  S   UNL     1       5.320   4.410  17.780  0.00  0.00    +0.000 S 
ATOM     13  O   UNL     1       6.354   3.998  18.705  0.00  0.00    +0.000 OA
ATOM     14  O   UNL     1       5.175   3.734  16.509  0.00  0.00    +0.000 OA
BRANCH  12  15
ATOM     15  N   UNL     1       5.542   6.068  17.478  0.00  0.00    +0.000 NA
ATOM     16  C   UNL     1       6.834   6.679  17.817  0.00  0.00    +0.000 C 
ATOM     17  C   UNL     1       4.933   6.625  16.262  0.00  0.00    +0.000 C 
ENDBRANCH  12  15
ENDBRANCH  10  12
ENDBRANCH   3   5
BRANCH   1  18
ATOM     18  C   UNL     1       1.406   9.082  21.294  0.00  0.00    +0.000 C 
BRANCH  18  19
ATOM     19  O   UNL     1       0.158   9.725  20.999  0.00  0.00    +0.000 OA
BRANCH  19  20
ATOM     20  C   UNL     1       0.276  10.798  20.169  0.00  0.00    +0.000 C 
ATOM     21  O   UNL     1       1.254  11.520  20.097  0.00  0.00    +0.000 OA
BRANCH  20  27
ATOM     22  C   UNL     1      -1.946  11.876  19.769  0.00  0.00    +0.000 A 
ATOM     23  N   UNL     1      -3.106  12.056  19.082  0.00  0.00    +0.000 NA
ATOM     24  C   UNL     1      -3.310  11.291  17.990  0.00  0.00    +0.000 A 
ATOM     25  C   UNL     1      -2.407  10.346  17.541  0.00  0.00    +0.000 A 
ATOM     26  C   UNL     1      -1.220  10.179  18.251  0.00  0.00    +0.000 A 
ATOM     27  C   UNL     1      -0.974  10.957  19.391  0.00  0.00    +0.000 A 
BRANCH  22  28
ATOM     28  O   UNL     1      -1.748  12.647  20.895  0.00  0.00    +0.000 OA
BRANCH  28  30
ATOM     29  C   UNL     1      -2.429  11.917  23.070  0.00  0.00    +0.000 C 
ATOM     30  C   UNL     1      -2.861  12.609  21.791  0.00  0.00    +0.000 C 
ENDBRANCH  28  30
ENDBRANCH  22  28
ENDBRANCH  20  27
ENDBRANCH  19  20
ENDBRANCH  18  19
ENDBRANCH   1  18
TORSDOF 9
ENDMDL
MODEL 6
REMARK VINA RESULT:      -7.3      3.683      9.746
REMARK  Name = 
REMARK  13 active torsions:
REMARK  status: ('A' for Active; 'I' for Inactive)
REMARK    1  A    between atoms: C_1  and  C_2
REMARK    2  A    between atoms: C_2  and  O_3
REMARK    3  A    between atoms: O_3  and  C_4
REMARK    4  A    between atoms: C_9  and  C_10
REMARK    5  A    between atoms: C_10  and  O_12
REMARK    6  A    between atoms: O_12  and  C_13
REMARK    7  A    between atoms: C_13  and  C_14
REMARK    8  A    between atoms: N_16  and  C_17
REMARK    9  A    between atoms: C_20  and  C_21
REMARK   10  A    between atoms: C_22  and  S_23
REMARK   11  A    between atoms: S_23  and  N_26
REMARK   12  A    between atoms: N_26  and  C_27
REMARK   13  A    between atoms: N_26  and  C_28
REMARK                            x       y       z     vdW  Elec       q    Type
REMARK                         _______ _______ _______ _____ _____    ______ ____
ROOT
ATOM      1  C   UNL     1       2.077   6.041  19.844  0.00  0.00    +0.000 C 
ATOM      2  O   UNL     1       1.420   5.514  20.741  0.00  0.00    +0.000 OA
ATOM      3  N   UNL     1       2.147   7.409  19.580  0.00  0.00    +0.000 N 
ATOM      4  H   UNL     1       2.537   7.697  18.693  0.00  0.00    +0.000 HD
ENDROOT
BRANCH   3   5
ATOM      5  C   UNL     1       1.521   8.410  20.362  0.00  0.00    +0.000 A 
ATOM      6  C   UNL     1       1.534   8.382  21.754  0.00  0.00    +0.000 A 
ATOM      7  C   UNL     1       0.768   9.277  22.498  0.00  0.00    +0.000 A 
ATOM      8  C   UNL     1      -0.030  10.247  21.874  0.00  0.00    +0.000 A 
ATOM      9  C   UNL     1      -0.944  11.041  22.765  0.00  0.00    +0.000 C 
ATOM     10  C   UNL     1       0.070  10.378  20.478  0.00  0.00    +0.000 A 
ATOM     11  C   UNL     1       0.837   9.452  19.727  0.00  0.00    +0.000 A 
BRANCH  10  12
ATOM     12  S   UNL     1      -0.852  11.603  19.535  0.00  0.00    +0.000 S 
ATOM     13  O   UNL     1      -0.966  11.095  18.185  0.00  0.00    +0.000 OA
ATOM     14  O   UNL     1      -2.041  11.971  20.272  0.00  0.00    +0.000 OA
BRANCH  12  15
ATOM     15  N   UNL     1       0.181  12.952  19.483  0.00  0.00    +0.000 NA
ATOM     16  C   UNL     1       0.412  13.712  20.719  0.00  0.00    +0.000 C 
ATOM     17  C   UNL     1       1.367  12.867  18.619  0.00  0.00    +0.000 C 
ENDBRANCH  12  15
ENDBRANCH  10  12
ENDBRANCH   3   5
BRANCH   1  18
ATOM     18  C   UNL     1       2.864   5.169  18.860  0.00  0.00    +0.000 C 
BRANCH  18  19
ATOM     19  O   UNL     1       4.277   5.385  18.975  0.00  0.00    +0.000 OA
BRANCH  19  20
ATOM     20  C   UNL     1       5.024   4.271  18.736  0.00  0.00    +0.000 C 
ATOM     21  O   UNL     1       5.137   3.330  19.501  0.00  0.00    +0.000 OA
BRANCH  20  27
ATOM     22  C   UNL     1       7.063   4.582  17.320  0.00  0.00    +0.000 A 
ATOM     23  N   UNL     1       7.713   4.700  16.131  0.00  0.00    +0.000 NA
ATOM     24  C   UNL     1       6.971   4.643  15.006  0.00  0.00    +0.000 A 
ATOM     25  C   UNL     1       5.600   4.471  15.003  0.00  0.00    +0.000 A 
ATOM     26  C   UNL     1       4.950   4.343  16.229  0.00  0.00    +0.000 A 
ATOM     27  C   UNL     1       5.689   4.398  17.419  0.00  0.00    +0.000 A 
BRANCH  22  28
ATOM     28  O   UNL     1       7.821   4.659  18.470  0.00  0.00    +0.000 OA
BRANCH  28  30
ATOM     29  C   UNL     1       7.914   7.033  18.181  0.00  0.00    +0.000 C 
ATOM     30  C   UNL     1       7.654   5.900  19.157  0.00  0.00    +0.000 C 
ENDBRANCH  28  30
ENDBRANCH  22  28
ENDBRANCH  20  27
ENDBRANCH  19  20
ENDBRANCH  18  19
ENDBRANCH   1  18
TORSDOF 9
ENDMDL
MODEL 7
REMARK VINA RESULT:      -7.3      2.852      4.597
REMARK  Name = 
REMARK  13 active torsions:
REMARK  status: ('A' for Active; 'I' for Inactive)
REMARK    1  A    between atoms: C_1  and  C_2
REMARK    2  A    between atoms: C_2  and  O_3
REMARK    3  A    between atoms: O_3  and  C_4
REMARK    4  A    between atoms: C_9  and  C_10
REMARK    5  A    between atoms: C_10  and  O_12
REMARK    6  A    between atoms: O_12  and  C_13
REMARK    7  A    between atoms: C_13  and  C_14
REMARK    8  A    between atoms: N_16  and  C_17
REMARK    9  A    between atoms: C_20  and  C_21
REMARK   10  A    between atoms: C_22  and  S_23
REMARK   11  A    between atoms: S_23  and  N_26
REMARK   12  A    between atoms: N_26  and  C_27
REMARK   13  A    between atoms: N_26  and  C_28
REMARK                            x       y       z     vdW  Elec       q    Type
REMARK                         _______ _______ _______ _____ _____    ______ ____
ROOT
ATOM      1  C   UNL     1       1.631   7.931  20.523  0.00  0.00    +0.000 C 
ATOM      2  O   UNL     1       1.649   8.284  19.345  0.00  0.00    +0.000 OA
ATOM      3  N   UNL     1       1.827   6.629  20.987  0.00  0.00    +0.000 N 
ATOM      4  H   UNL     1       1.573   6.428  21.945  0.00  0.00    +0.000 HD
ENDROOT
BRANCH   3   5
ATOM      5  C   UNL     1       2.150   5.524  20.163  0.00  0.00    +0.000 A 
ATOM      6  C   UNL     1       1.329   4.403  20.066  0.00  0.00    +0.000 A 
ATOM      7  C   UNL     1       1.750   3.262  19.387  0.00  0.00    +0.000 A 
ATOM      8  C   UNL     1       3.006   3.206  18.764  0.00  0.00    +0.000 A 
ATOM      9  C   UNL     1       3.425   1.870  18.214  0.00  0.00    +0.000 C 
ATOM     10  C   UNL     1       3.773   4.383  18.729  0.00  0.00    +0.000 A 
ATOM     11  C   UNL     1       3.346   5.535  19.437  0.00  0.00    +0.000 A 
BRANCH  10  12
ATOM     12  S   UNL     1       5.382   4.486  17.930  0.00  0.00    +0.000 S 
ATOM     13  O   UNL     1       6.370   4.132  18.927  0.00  0.00    +0.000 OA
ATOM     14  O   UNL     1       5.334   3.770  16.674  0.00  0.00    +0.000 OA
BRANCH  12  15
ATOM     15  N   UNL     1       5.574   6.141  17.593  0.00  0.00    +0.000 NA
ATOM     16  C   UNL     1       6.895   6.752  17.789  0.00  0.00    +0.000 C 
ATOM     17  C   UNL     1       4.842   6.690  16.442  0.00  0.00    +0.000 C 
ENDBRANCH  12  15
ENDBRANCH  10  12
ENDBRANCH   3   5
BRANCH   1  18
ATOM     18  C   UNL     1       1.317   8.950  21.623  0.00  0.00    +0.000 C 
BRANCH  18  19
ATOM     19  O   UNL     1      -0.065   9.331  21.614  0.00  0.00    +0.000 OA
BRANCH  19  20
ATOM     20  C   UNL     1      -0.277  10.636  21.940  0.00  0.00    +0.000 C 
ATOM     21  O   UNL     1      -0.378  11.064  23.076  0.00  0.00    +0.000 OA
BRANCH  20  27
ATOM     22  C   UNL     1       0.284  12.649  20.564  0.00  0.00    +0.000 A 
ATOM     23  N   UNL     1       0.212  13.416  19.443  0.00  0.00    +0.000 NA
ATOM     24  C   UNL     1      -0.562  12.972  18.432  0.00  0.00    +0.000 A 
ATOM     25  C   UNL     1      -1.274  11.788  18.478  0.00  0.00    +0.000 A 
ATOM     26  C   UNL     1      -1.182  11.010  19.630  0.00  0.00    +0.000 A 
ATOM     27  C   UNL     1      -0.388  11.440  20.701  0.00  0.00    +0.000 A 
BRANCH  22  28
ATOM     28  O   UNL     1       1.062  13.114  21.604  0.00  0.00    +0.000 OA
BRANCH  28  30
ATOM     29  C   UNL     1      -0.507  14.547  22.704  0.00  0.00    +0.000 C 
ATOM     30  C   UNL     1       0.793  14.480  21.924  0.00  0.00    +0.000 C 
ENDBRANCH  28  30
ENDBRANCH  22  28
ENDBRANCH  20  27
ENDBRANCH  19  20
ENDBRANCH  18  19
ENDBRANCH   1  18
TORSDOF 9
ENDMDL
MODEL 8
REMARK VINA RESULT:      -7.3      2.434      3.261
REMARK  Name = 
REMARK  13 active torsions:
REMARK  status: ('A' for Active; 'I' for Inactive)
REMARK    1  A    between atoms: C_1  and  C_2
REMARK    2  A    between atoms: C_2  and  O_3
REMARK    3  A    between atoms: O_3  and  C_4
REMARK    4  A    between atoms: C_9  and  C_10
REMARK    5  A    between atoms: C_10  and  O_12
REMARK    6  A    between atoms: O_12  and  C_13
REMARK    7  A    between atoms: C_13  and  C_14
REMARK    8  A    between atoms: N_16  and  C_17
REMARK    9  A    between atoms: C_20  and  C_21
REMARK   10  A    between atoms: C_22  and  S_23
REMARK   11  A    between atoms: S_23  and  N_26
REMARK   12  A    between atoms: N_26  and  C_27
REMARK   13  A    between atoms: N_26  and  C_28
REMARK                            x       y       z     vdW  Elec       q    Type
REMARK                         _______ _______ _______ _____ _____    ______ ____
ROOT
ATOM      1  C   UNL     1       0.560   9.526  22.081  0.00  0.00    +0.000 C 
ATOM      2  O   UNL     1       1.654   9.581  22.640  0.00  0.00    +0.000 OA
ATOM      3  N   UNL     1       0.334   9.100  20.771  0.00  0.00    +0.000 N 
ATOM      4  H   UNL     1      -0.565   9.307  20.358  0.00  0.00    +0.000 HD
ENDROOT
BRANCH   3   5
ATOM      5  C   UNL     1       1.337   8.592  19.909  0.00  0.00    +0.000 A 
ATOM      6  C   UNL     1       1.759   9.280  18.774  0.00  0.00    +0.000 A 
ATOM      7  C   UNL     1       2.617   8.683  17.852  0.00  0.00    +0.000 A 
ATOM      8  C   UNL     1       3.098   7.380  18.041  0.00  0.00    +0.000 A 
ATOM      9  C   UNL     1       3.873   6.777  16.903  0.00  0.00    +0.000 C 
ATOM     10  C   UNL     1       2.797   6.740  19.256  0.00  0.00    +0.000 A 
ATOM     11  C   UNL     1       1.909   7.345  20.181  0.00  0.00    +0.000 A 
BRANCH  10  12
ATOM     12  S   UNL     1       3.377   5.087  19.669  0.00  0.00    +0.000 S 
ATOM     13  O   UNL     1       4.822   5.115  19.584  0.00  0.00    +0.000 OA
ATOM     14  O   UNL     1       2.733   4.650  20.889  0.00  0.00    +0.000 OA
BRANCH  12  15
ATOM     15  N   UNL     1       2.814   4.117  18.393  0.00  0.00    +0.000 NA
ATOM     16  C   UNL     1       3.531   2.872  18.083  0.00  0.00    +0.000 C 
ATOM     17  C   UNL     1       1.359   4.014  18.207  0.00  0.00    +0.000 C 
ENDBRANCH  12  15
ENDBRANCH  10  12
ENDBRANCH   3   5
BRANCH   1  18
ATOM     18  C   UNL     1      -0.698  10.008  22.811  0.00  0.00    +0.000 C 
BRANCH  18  19
ATOM     19  O   UNL     1      -0.590  11.383  23.202  0.00  0.00    +0.000 OA
BRANCH  19  20
ATOM     20  C   UNL     1      -0.478  12.245  22.154  0.00  0.00    +0.000 C 
ATOM     21  O   UNL     1       0.569  12.716  21.746  0.00  0.00    +0.000 OA
BRANCH  20  27
ATOM     22  C   UNL     1      -2.198  12.098  20.342  0.00  0.00    +0.000 A 
ATOM     23  N   UNL     1      -3.424  12.338  19.806  0.00  0.00    +0.000 NA
ATOM     24  C   UNL     1      -4.303  13.042  20.547  0.00  0.00    +0.000 A 
ATOM     25  C   UNL     1      -4.022  13.523  21.812  0.00  0.00    +0.000 A 
ATOM     26  C   UNL     1      -2.764  13.261  22.351  0.00  0.00    +0.000 A 
ATOM     27  C   UNL     1      -1.825  12.533  21.608  0.00  0.00    +0.000 A 
BRANCH  22  28
ATOM     28  O   UNL     1      -1.295  11.393  19.574  0.00  0.00    +0.000 OA
BRANCH  28  30
ATOM     29  C   UNL     1      -1.555  10.187  17.524  0.00  0.00    +0.000 C 
ATOM     30  C   UNL     1      -1.516  11.558  18.173  0.00  0.00    +0.000 C 
ENDBRANCH  28  30
ENDBRANCH  22  28
ENDBRANCH  20  27
ENDBRANCH  19  20
ENDBRANCH  18  19
ENDBRANCH   1  18
TORSDOF 9
ENDMDL
MODEL 9
REMARK VINA RESULT:      -7.3      2.570      4.139
REMARK  Name = 
REMARK  13 active torsions:
REMARK  status: ('A' for Active; 'I' for Inactive)
REMARK    1  A    between atoms: C_1  and  C_2
REMARK    2  A    between atoms: C_2  and  O_3
REMARK    3  A    between atoms: O_3  and  C_4
REMARK    4  A    between atoms: C_9  and  C_10
REMARK    5  A    between atoms: C_10  and  O_12
REMARK    6  A    between atoms: O_12  and  C_13
REMARK    7  A    between atoms: C_13  and  C_14
REMARK    8  A    between atoms: N_16  and  C_17
REMARK    9  A    between atoms: C_20  and  C_21
REMARK   10  A    between atoms: C_22  and  S_23
REMARK   11  A    between atoms: S_23  and  N_26
REMARK   12  A    between atoms: N_26  and  C_27
REMARK   13  A    between atoms: N_26  and  C_28
REMARK                            x       y       z     vdW  Elec       q    Type
REMARK                         _______ _______ _______ _____ _____    ______ ____
ROOT
ATOM      1  C   UNL     1       1.654   7.955  20.550  0.00  0.00    +0.000 C 
ATOM      2  O   UNL     1       1.677   8.305  19.371  0.00  0.00    +0.000 OA
ATOM      3  N   UNL     1       1.830   6.651  21.017  0.00  0.00    +0.000 N 
ATOM      4  H   UNL     1       1.572   6.457  21.975  0.00  0.00    +0.000 HD
ENDROOT
BRANCH   3   5
ATOM      5  C   UNL     1       2.137   5.540  20.195  0.00  0.00    +0.000 A 
ATOM      6  C   UNL     1       1.307   4.426  20.110  0.00  0.00    +0.000 A 
ATOM      7  C   UNL     1       1.714   3.277  19.434  0.00  0.00    +0.000 A 
ATOM      8  C   UNL     1       2.964   3.208  18.802  0.00  0.00    +0.000 A 
ATOM      9  C   UNL     1       3.368   1.867  18.255  0.00  0.00    +0.000 C 
ATOM     10  C   UNL     1       3.741   4.378  18.756  0.00  0.00    +0.000 A 
ATOM     11  C   UNL     1       3.329   5.537  19.462  0.00  0.00    +0.000 A 
BRANCH  10  12
ATOM     12  S   UNL     1       5.345   4.465  17.945  0.00  0.00    +0.000 S 
ATOM     13  O   UNL     1       6.336   4.094  18.933  0.00  0.00    +0.000 OA
ATOM     14  O   UNL     1       5.279   3.754  16.686  0.00  0.00    +0.000 OA
BRANCH  12  15
ATOM     15  N   UNL     1       5.555   6.118  17.612  0.00  0.00    +0.000 NA
ATOM     16  C   UNL     1       6.878   6.718  17.829  0.00  0.00    +0.000 C 
ATOM     17  C   UNL     1       4.845   6.673  16.451  0.00  0.00    +0.000 C 
ENDBRANCH  12  15
ENDBRANCH  10  12
ENDBRANCH   3   5
BRANCH   1  18
ATOM     18  C   UNL     1       1.353   8.981  21.647  0.00  0.00    +0.000 C 
BRANCH  18  19
ATOM     19  O   UNL     1       1.365  10.321  21.137  0.00  0.00    +0.000 OA
BRANCH  19  20
ATOM     20  C   UNL     1       0.209  11.004  21.361  0.00  0.00    +0.000 C 
ATOM     21  O   UNL     1      -0.208  11.329  22.458  0.00  0.00    +0.000 OA
BRANCH  20  27
ATOM     22  C   UNL     1      -0.398  12.513  19.460  0.00  0.00    +0.000 A 
ATOM     23  N   UNL     1      -1.000  12.794  18.274  0.00  0.00    +0.000 NA
ATOM     24  C   UNL     1      -1.700  11.807  17.679  0.00  0.00    +0.000 A 
ATOM     25  C   UNL     1      -1.831  10.538  18.210  0.00  0.00    +0.000 A 
ATOM     26  C   UNL     1      -1.201  10.263  19.422  0.00  0.00    +0.000 A 
ATOM     27  C   UNL     1      -0.466  11.266  20.069  0.00  0.00    +0.000 A 
BRANCH  22  28
ATOM     28  O   UNL     1       0.302  13.530  20.075  0.00  0.00    +0.000 OA
BRANCH  28  30
ATOM     29  C   UNL     1       2.502  13.341  19.153  0.00  0.00    +0.000 C 
ATOM     30  C   UNL     1       1.231  14.169  19.197  0.00  0.00    +0.000 C 
ENDBRANCH  28  30
ENDBRANCH  22  28
ENDBRANCH  20  27
ENDBRANCH  19  20
ENDBRANCH  18  19
ENDBRANCH   1  18
TORSDOF 9
ENDMDL
