MODEL 1
REMARK VINA RESULT:      -8.2      0.000      0.000
REMARK  Name = 
REMARK  8 active torsions:
REMARK  status: ('A' for Active; 'I' for Inactive)
REMARK    1  A    between atoms: C_1  and  O_2
REMARK    2  A    between atoms: O_2  and  C_3
REMARK    3  A    between atoms: C_6  and  C_7
REMARK    4  A    between atoms: C_7  and  C_8
REMARK    5  A    between atoms: N_12  and  C_13
REMARK    6  A    between atoms: C_14  and  C_15
REMARK    7  A    between atoms: C_15  and  C_16
REMARK    8  A    between atoms: C_19  and  O_20
REMARK                            x       y       z     vdW  Elec       q    Type
REMARK                         _______ _______ _______ _____ _____    ______ ____
ROOT
ATOM      1  C   UNL     1       3.294   4.020  17.588  0.00  0.00    +0.000 A 
ATOM      2  N   UNL     1       2.470   2.913  17.416  0.00  0.00    +0.000 N 
ATOM      3  C   UNL     1       1.520   2.821  18.410  0.00  0.00    +0.000 A 
ATOM      4  N   UNL     1       0.570   1.968  18.495  0.00  0.00    +0.000 NA
ATOM      5  N   UNL     1       1.822   3.881  19.259  0.00  0.00    +0.000 N 
ATOM      6  C   UNL     1       1.024   4.219  20.412  0.00  0.00    +0.000 C 
ATOM      7  C   UNL     1       2.904   4.627  18.736  0.00  0.00    +0.000 A 
ATOM      8  H   UNL     1       2.502   2.342  16.589  0.00  0.00    +0.000 HD
ATOM      9  H   UNL     1       0.626   1.334  17.696  0.00  0.00    +0.000 HD
ENDROOT
BRANCH   1  10
ATOM     10  C   UNL     1       4.304   4.429  16.563  0.00  0.00    +0.000 C 
BRANCH  10  14
ATOM     11  C   UNL     1       7.551   6.779  18.204  0.00  0.00    +0.000 A 
ATOM     12  C   UNL     1       6.676   7.341  17.274  0.00  0.00    +0.000 A 
ATOM     13  C   UNL     1       5.633   6.586  16.728  0.00  0.00    +0.000 A 
ATOM     14  C   UNL     1       5.458   5.247  17.097  0.00  0.00    +0.000 A 
ATOM     15  C   UNL     1       6.368   4.676  17.999  0.00  0.00    +0.000 A 
ATOM     16  C   UNL     1       7.405   5.437  18.552  0.00  0.00    +0.000 A 
BRANCH  11  18
ATOM     17  C   UNL     1       8.432   8.973  18.246  0.00  0.00    +0.000 C 
ATOM     18  O   UNL     1       8.522   7.619  18.677  0.00  0.00    +0.000 OA
ENDBRANCH  11  18
ENDBRANCH  10  14
ENDBRANCH   1  10
BRANCH   7  19
ATOM     19  C   UNL     1       3.405   5.899  19.355  0.00  0.00    +0.000 C 
BRANCH  19  20
ATOM     20  C   UNL     1       2.569   7.145  19.134  0.00  0.00    +0.000 A 
ATOM     21  C   UNL     1       1.860   7.793  20.157  0.00  0.00    +0.000 A 
ATOM     22  C   UNL     1       1.168   8.982  19.909  0.00  0.00    +0.000 A 
ATOM     23  C   UNL     1       1.175   9.528  18.631  0.00  0.00    +0.000 A 
ATOM     24  C   UNL     1       1.843   8.891  17.594  0.00  0.00    +0.000 A 
ATOM     25  C   UNL     1       2.535   7.705  17.843  0.00  0.00    +0.000 A 
BRANCH  23  26
ATOM     26  O   UNL     1       0.541  10.703  18.357  0.00  0.00    +0.000 OA
ATOM     27  H   UNL     1       0.693  11.313  19.098  0.00  0.00    +0.000 HD
ENDBRANCH  23  26
ENDBRANCH  19  20
ENDBRANCH   7  19
TORSDOF 6
ENDMDL
MODEL 2
REMARK VINA RESULT:      -8.1      2.840      5.295
REMARK  Name = 
REMARK  8 active torsions:
REMARK  status: ('A' for Active; 'I' for Inactive)
REMARK    1  A    between atoms: C_1  and  O_2
REMARK    2  A    between atoms: O_2  and  C_3
REMARK    3  A    between atoms: C_6  and  C_7
REMARK    4  A    between atoms: C_7  and  C_8
REMARK    5  A    between atoms: N_12  and  C_13
REMARK    6  A    between atoms: C_14  and  C_15
REMARK    7  A    between atoms: C_15  and  C_16
REMARK    8  A    between atoms: C_19  and  O_20
REMARK                            x       y       z     vdW  Elec       q    Type
REMARK                         _______ _______ _______ _____ _____    ______ ____
ROOT
ATOM      1  C   UNL     1       5.205   4.463  16.580  0.00  0.00    +0.000 A 
ATOM      2  N   UNL     1       6.366   3.759  16.883  0.00  0.00    +0.000 N 
ATOM      3  C   UNL     1       7.374   4.592  17.315  0.00  0.00    +0.000 A 
ATOM      4  N   UNL     1       8.532   4.249  17.741  0.00  0.00    +0.000 NA
ATOM      5  N   UNL     1       6.824   5.865  17.208  0.00  0.00    +0.000 N 
ATOM      6  C   UNL     1       7.511   7.059  17.635  0.00  0.00    +0.000 C 
ATOM      7  C   UNL     1       5.480   5.777  16.774  0.00  0.00    +0.000 A 
ATOM      8  H   UNL     1       6.396   2.754  16.900  0.00  0.00    +0.000 HD
ATOM      9  H   UNL     1       8.607   3.231  17.702  0.00  0.00    +0.000 HD
ENDROOT
BRANCH   1  10
ATOM     10  C   UNL     1       3.921   3.776  16.237  0.00  0.00    +0.000 C 
BRANCH  10  14
ATOM     11  C   UNL     1       1.420   2.920  19.668  0.00  0.00    +0.000 A 
ATOM     12  C   UNL     1       2.729   2.439  19.614  0.00  0.00    +0.000 A 
ATOM     13  C   UNL     1       3.540   2.698  18.505  0.00  0.00    +0.000 A 
ATOM     14  C   UNL     1       3.045   3.435  17.421  0.00  0.00    +0.000 A 
ATOM     15  C   UNL     1       1.715   3.878  17.464  0.00  0.00    +0.000 A 
ATOM     16  C   UNL     1       0.909   3.626  18.581  0.00  0.00    +0.000 A 
BRANCH  11  18
ATOM     17  C   UNL     1       1.516   2.483  21.990  0.00  0.00    +0.000 C 
ATOM     18  O   UNL     1       0.730   2.615  20.809  0.00  0.00    +0.000 OA
ENDBRANCH  11  18
ENDBRANCH  10  14
ENDBRANCH   1  10
BRANCH   7  19
ATOM     19  C   UNL     1       4.569   6.964  16.663  0.00  0.00    +0.000 C 
BRANCH  19  20
ATOM     20  C   UNL     1       3.588   7.184  17.798  0.00  0.00    +0.000 A 
ATOM     21  C   UNL     1       3.549   6.386  18.952  0.00  0.00    +0.000 A 
ATOM     22  C   UNL     1       2.673   6.682  20.001  0.00  0.00    +0.000 A 
ATOM     23  C   UNL     1       1.825   7.779  19.899  0.00  0.00    +0.000 A 
ATOM     24  C   UNL     1       1.822   8.566  18.757  0.00  0.00    +0.000 A 
ATOM     25  C   UNL     1       2.698   8.270  17.710  0.00  0.00    +0.000 A 
BRANCH  23  26
ATOM     26  O   UNL     1       0.982   8.120  20.913  0.00  0.00    +0.000 OA
ATOM     27  H   UNL     1       0.069   8.065  20.584  0.00  0.00    +0.000 HD
ENDBRANCH  23  26
ENDBRANCH  19  20
ENDBRANCH   7  19
TORSDOF 6
ENDMDL
MODEL 3
REMARK VINA RESULT:      -8.1      1.227      5.225
REMARK  Name = 
REMARK  8 active torsions:
REMARK  status: ('A' for Active; 'I' for Inactive)
REMARK    1  A    between atoms: C_1  and  O_2
REMARK    2  A    between atoms: O_2  and  C_3
REMARK    3  A    between atoms: C_6  and  C_7
REMARK    4  A    between atoms: C_7  and  C_8
REMARK    5  A    between atoms: N_12  and  C_13
REMARK    6  A    between atoms: C_14  and  C_15
REMARK    7  A    between atoms: C_15  and  C_16
REMARK    8  A    between atoms: C_19  and  O_20
REMARK                            x       y       z     vdW  Elec       q    Type
REMARK                         _______ _______ _______ _____ _____    ______ ____
ROOT
ATOM      1  C   UNL     1       2.338   4.408  19.886  0.00  0.00    +0.000 A 
ATOM      2  N   UNL     1       1.147   3.834  19.454  0.00  0.00    +0.000 N 
ATOM      3  C   UNL     1       1.363   2.657  18.771  0.00  0.00    +0.000 A 
ATOM      4  N   UNL     1       0.477   1.852  18.317  0.00  0.00    +0.000 NA
ATOM      5  N   UNL     1       2.749   2.544  18.730  0.00  0.00    +0.000 N 
ATOM      6  C   UNL     1       3.431   1.403  18.169  0.00  0.00    +0.000 C 
ATOM      7  C   UNL     1       3.343   3.617  19.437  0.00  0.00    +0.000 A 
ATOM      8  H   UNL     1       0.248   4.187  19.732  0.00  0.00    +0.000 HD
ATOM      9  H   UNL     1      -0.449   2.229  18.530  0.00  0.00    +0.000 HD
ENDROOT
BRANCH   1  10
ATOM     10  C   UNL     1       2.367   5.607  20.780  0.00  0.00    +0.000 C 
BRANCH  10  14
ATOM     11  C   UNL     1       1.537   9.393  18.846  0.00  0.00    +0.000 A 
ATOM     12  C   UNL     1       1.085   9.152  20.144  0.00  0.00    +0.000 A 
ATOM     13  C   UNL     1       1.336   7.928  20.772  0.00  0.00    +0.000 A 
ATOM     14  C   UNL     1       2.035   6.916  20.101  0.00  0.00    +0.000 A 
ATOM     15  C   UNL     1       2.448   7.150  18.781  0.00  0.00    +0.000 A 
ATOM     16  C   UNL     1       2.205   8.380  18.159  0.00  0.00    +0.000 A 
BRANCH  11  18
ATOM     17  C   UNL     1       0.288  11.387  19.081  0.00  0.00    +0.000 C 
ATOM     18  O   UNL     1       1.244  10.631  18.344  0.00  0.00    +0.000 OA
ENDBRANCH  11  18
ENDBRANCH  10  14
ENDBRANCH   1  10
BRANCH   7  19
ATOM     19  C   UNL     1       4.820   3.730  19.674  0.00  0.00    +0.000 C 
BRANCH  19  20
ATOM     20  C   UNL     1       5.575   4.734  18.823  0.00  0.00    +0.000 A 
ATOM     21  C   UNL     1       5.133   5.170  17.565  0.00  0.00    +0.000 A 
ATOM     22  C   UNL     1       5.831   6.154  16.859  0.00  0.00    +0.000 A 
ATOM     23  C   UNL     1       6.982   6.706  17.408  0.00  0.00    +0.000 A 
ATOM     24  C   UNL     1       7.458   6.272  18.637  0.00  0.00    +0.000 A 
ATOM     25  C   UNL     1       6.760   5.290  19.341  0.00  0.00    +0.000 A 
BRANCH  23  26
ATOM     26  O   UNL     1       7.672   7.692  16.767  0.00  0.00    +0.000 OA
ATOM     27  H   UNL     1       8.391   7.281  16.258  0.00  0.00    +0.000 HD
ENDBRANCH  23  26
ENDBRANCH  19  20
ENDBRANCH   7  19
TORSDOF 6
ENDMDL
MODEL 4
REMARK VINA RESULT:      -8.0      1.867      5.922
REMARK  Name = 
REMARK  8 active torsions:
REMARK  status: ('A' for Active; 'I' for Inactive)
REMARK    1  A    between atoms: C_1  and  O_2
REMARK    2  A    between atoms: O_2  and  C_3
REMARK    3  A    between atoms: C_6  and  C_7
REMARK    4  A    between atoms: C_7  and  C_8
REMARK    5  A    between atoms: N_12  and  C_13
REMARK    6  A    between atoms: C_14  and  C_15
REMARK    7  A    between atoms: C_15  and  C_16
REMARK    8  A    between atoms: C_19  and  O_20
REMARK                            x       y       z     vdW  Elec       q    Type
REMARK                         _______ _______ _______ _____ _____    ______ ____
ROOT
ATOM      1  C   UNL     1       2.438   5.467  20.123  0.00  0.00    +0.000 A 
ATOM      2  N   UNL     1       2.204   4.818  21.330  0.00  0.00    +0.000 N 
ATOM      3  C   UNL     1       1.858   3.497  21.145  0.00  0.00    +0.000 A 
ATOM      4  N   UNL     1       1.657   2.615  22.050  0.00  0.00    +0.000 NA
ATOM      5  N   UNL     1       1.816   3.355  19.761  0.00  0.00    +0.000 N 
ATOM      6  C   UNL     1       1.567   2.094  19.106  0.00  0.00    +0.000 C 
ATOM      7  C   UNL     1       2.195   4.567  19.138  0.00  0.00    +0.000 A 
ATOM      8  H   UNL     1       2.397   5.248  22.218  0.00  0.00    +0.000 HD
ATOM      9  H   UNL     1       1.783   3.051  22.966  0.00  0.00    +0.000 HD
ENDROOT
BRANCH   1  10
ATOM     10  C   UNL     1       2.976   6.861  20.058  0.00  0.00    +0.000 C 
BRANCH  10  14
ATOM     11  C   UNL     1       0.106  10.012  19.285  0.00  0.00    +0.000 A 
ATOM     12  C   UNL     1       0.190   9.432  20.552  0.00  0.00    +0.000 A 
ATOM     13  C   UNL     1       1.104   8.405  20.807  0.00  0.00    +0.000 A 
ATOM     14  C   UNL     1       1.942   7.931  19.790  0.00  0.00    +0.000 A 
ATOM     15  C   UNL     1       1.821   8.489  18.509  0.00  0.00    +0.000 A 
ATOM     16  C   UNL     1       0.913   9.525  18.258  0.00  0.00    +0.000 A 
BRANCH  11  18
ATOM     17  C   UNL     1      -1.594  10.996  17.968  0.00  0.00    +0.000 C 
ATOM     18  O   UNL     1      -0.815  11.017  19.161  0.00  0.00    +0.000 OA
ENDBRANCH  11  18
ENDBRANCH  10  14
ENDBRANCH   1  10
BRANCH   7  19
ATOM     19  C   UNL     1       2.358   4.716  17.654  0.00  0.00    +0.000 C 
BRANCH  19  20
ATOM     20  C   UNL     1       3.774   4.873  17.133  0.00  0.00    +0.000 A 
ATOM     21  C   UNL     1       4.592   3.790  16.777  0.00  0.00    +0.000 A 
ATOM     22  C   UNL     1       5.862   3.999  16.231  0.00  0.00    +0.000 A 
ATOM     23  C   UNL     1       6.325   5.296  16.043  0.00  0.00    +0.000 A 
ATOM     24  C   UNL     1       5.548   6.385  16.415  0.00  0.00    +0.000 A 
ATOM     25  C   UNL     1       4.279   6.175  16.959  0.00  0.00    +0.000 A 
BRANCH  23  26
ATOM     26  O   UNL     1       7.542   5.542  15.482  0.00  0.00    +0.000 OA
ATOM     27  H   UNL     1       8.198   5.618  16.195  0.00  0.00    +0.000 HD
ENDBRANCH  23  26
ENDBRANCH  19  20
ENDBRANCH   7  19
TORSDOF 6
ENDMDL
MODEL 5
REMARK VINA RESULT:      -8.0      1.851      5.849
REMARK  Name = 
REMARK  8 active torsions:
REMARK  status: ('A' for Active; 'I' for Inactive)
REMARK    1  A    between atoms: C_1  and  O_2
REMARK    2  A    between atoms: O_2  and  C_3
REMARK    3  A    between atoms: C_6  and  C_7
REMARK    4  A    between atoms: C_7  and  C_8
REMARK    5  A    between atoms: N_12  and  C_13
REMARK    6  A    between atoms: C_14  and  C_15
REMARK    7  A    between atoms: C_15  and  C_16
REMARK    8  A    between atoms: C_19  and  O_20
REMARK                            x       y       z     vdW  Elec       q    Type
REMARK                         _______ _______ _______ _____ _____    ______ ____
ROOT
ATOM      1  C   UNL     1       2.491   5.431  20.057  0.00  0.00    +0.000 A 
ATOM      2  N   UNL     1       2.229   4.820  21.279  0.00  0.00    +0.000 N 
ATOM      3  C   UNL     1       1.837   3.508  21.123  0.00  0.00    +0.000 A 
ATOM      4  N   UNL     1       1.602   2.656  22.049  0.00  0.00    +0.000 NA
ATOM      5  N   UNL     1       1.797   3.333  19.744  0.00  0.00    +0.000 N 
ATOM      6  C   UNL     1       1.506   2.066  19.118  0.00  0.00    +0.000 C 
ATOM      7  C   UNL     1       2.220   4.516  19.093  0.00  0.00    +0.000 A 
ATOM      8  H   UNL     1       2.434   5.264  22.157  0.00  0.00    +0.000 HD
ATOM      9  H   UNL     1       1.740   3.109  22.954  0.00  0.00    +0.000 HD
ENDROOT
BRANCH   1  10
ATOM     10  C   UNL     1       3.078   6.803  19.962  0.00  0.00    +0.000 C 
BRANCH  10  14
ATOM     11  C   UNL     1       0.133   9.868  19.129  0.00  0.00    +0.000 A 
ATOM     12  C   UNL     1       0.992   9.426  18.122  0.00  0.00    +0.000 A 
ATOM     13  C   UNL     1       1.955   8.447  18.384  0.00  0.00    +0.000 A 
ATOM     14  C   UNL     1       2.082   7.903  19.669  0.00  0.00    +0.000 A 
ATOM     15  C   UNL     1       1.244   8.384  20.686  0.00  0.00    +0.000 A 
ATOM     16  C   UNL     1       0.274   9.357  20.418  0.00  0.00    +0.000 A 
BRANCH  11  18
ATOM     17  C   UNL     1      -1.646  10.448  17.682  0.00  0.00    +0.000 C 
ATOM     18  O   UNL     1      -0.776  10.817  18.748  0.00  0.00    +0.000 OA
ENDBRANCH  11  18
ENDBRANCH  10  14
ENDBRANCH   1  10
BRANCH   7  19
ATOM     19  C   UNL     1       2.395   4.623  17.607  0.00  0.00    +0.000 C 
BRANCH  19  20
ATOM     20  C   UNL     1       3.812   4.797  17.095  0.00  0.00    +0.000 A 
ATOM     21  C   UNL     1       4.639   3.724  16.727  0.00  0.00    +0.000 A 
ATOM     22  C   UNL     1       5.910   3.948  16.190  0.00  0.00    +0.000 A 
ATOM     23  C   UNL     1       6.365   5.251  16.021  0.00  0.00    +0.000 A 
ATOM     24  C   UNL     1       5.580   6.329  16.404  0.00  0.00    +0.000 A 
ATOM     25  C   UNL     1       4.310   6.104  16.940  0.00  0.00    +0.000 A 
BRANCH  23  26
ATOM     26  O   UNL     1       7.583   5.512  15.469  0.00  0.00    +0.000 OA
ATOM     27  H   UNL     1       7.547   6.387  15.049  0.00  0.00    +0.000 HD
ENDBRANCH  23  26
ENDBRANCH  19  20
ENDBRANCH   7  19
TORSDOF 6
ENDMDL
MODEL 6
REMARK VINA RESULT:      -8.0      1.794      5.440
REMARK  Name = 
REMARK  8 active torsions:
REMARK  status: ('A' for Active; 'I' for Inactive)
REMARK    1  A    between atoms: C_1  and  O_2
REMARK    2  A    between atoms: O_2  and  C_3
REMARK    3  A    between atoms: C_6  and  C_7
REMARK    4  A    between atoms: C_7  and  C_8
REMARK    5  A    between atoms: N_12  and  C_13
REMARK    6  A    between atoms: C_14  and  C_15
REMARK    7  A    between atoms: C_15  and  C_16
REMARK    8  A    between atoms: C_19  and  O_20
REMARK                            x       y       z     vdW  Elec       q    Type
REMARK                         _______ _______ _______ _____ _____    ______ ____
ROOT
ATOM      1  C   UNL     1       2.091   4.616  19.905  0.00  0.00    +0.000 A 
ATOM      2  N   UNL     1       0.961   3.866  19.596  0.00  0.00    +0.000 N 
ATOM      3  C   UNL     1       1.272   2.751  18.849  0.00  0.00    +0.000 A 
ATOM      4  N   UNL     1       0.473   1.823  18.474  0.00  0.00    +0.000 NA
ATOM      5  N   UNL     1       2.642   2.863  18.639  0.00  0.00    +0.000 N 
ATOM      6  C   UNL     1       3.420   1.856  17.958  0.00  0.00    +0.000 C 
ATOM      7  C   UNL     1       3.144   4.003  19.309  0.00  0.00    +0.000 A 
ATOM      8  H   UNL     1       0.058   4.066  19.993  0.00  0.00    +0.000 HD
ATOM      9  H   UNL     1      -0.466   2.043  18.811  0.00  0.00    +0.000 HD
ENDROOT
BRANCH   1  10
ATOM     10  C   UNL     1       2.042   5.787  20.833  0.00  0.00    +0.000 C 
BRANCH  10  14
ATOM     11  C   UNL     1       1.364   9.596  18.886  0.00  0.00    +0.000 A 
ATOM     12  C   UNL     1       2.068   8.586  18.229  0.00  0.00    +0.000 A 
ATOM     13  C   UNL     1       2.304   7.358  18.855  0.00  0.00    +0.000 A 
ATOM     14  C   UNL     1       1.848   7.127  20.159  0.00  0.00    +0.000 A 
ATOM     15  C   UNL     1       1.179   8.162  20.828  0.00  0.00    +0.000 A 
ATOM     16  C   UNL     1       0.935   9.387  20.196  0.00  0.00    +0.000 A 
BRANCH  11  18
ATOM     17  C   UNL     1       1.731  11.928  18.746  0.00  0.00    +0.000 C 
ATOM     18  O   UNL     1       1.184  10.747  18.168  0.00  0.00    +0.000 OA
ENDBRANCH  11  18
ENDBRANCH  10  14
ENDBRANCH   1  10
BRANCH   7  19
ATOM     19  C   UNL     1       4.603   4.348  19.373  0.00  0.00    +0.000 C 
BRANCH  19  20
ATOM     20  C   UNL     1       5.295   4.643  18.056  0.00  0.00    +0.000 A 
ATOM     21  C   UNL     1       4.647   5.222  16.954  0.00  0.00    +0.000 A 
ATOM     22  C   UNL     1       5.354   5.541  15.791  0.00  0.00    +0.000 A 
ATOM     23  C   UNL     1       6.716   5.277  15.721  0.00  0.00    +0.000 A 
ATOM     24  C   UNL     1       7.376   4.676  16.784  0.00  0.00    +0.000 A 
ATOM     25  C   UNL     1       6.669   4.359  17.946  0.00  0.00    +0.000 A 
BRANCH  23  26
ATOM     26  O   UNL     1       7.448   5.603  14.618  0.00  0.00    +0.000 OA
ATOM     27  H   UNL     1       7.147   5.052  13.877  0.00  0.00    +0.000 HD
ENDBRANCH  23  26
ENDBRANCH  19  20
ENDBRANCH   7  19
TORSDOF 6
ENDMDL
MODEL 7
REMARK VINA RESULT:      -7.9      1.833      5.468
REMARK  Name = 
REMARK  8 active torsions:
REMARK  status: ('A' for Active; 'I' for Inactive)
REMARK    1  A    between atoms: C_1  and  O_2
REMARK    2  A    between atoms: O_2  and  C_3
REMARK    3  A    between atoms: C_6  and  C_7
REMARK    4  A    between atoms: C_7  and  C_8
REMARK    5  A    between atoms: N_12  and  C_13
REMARK    6  A    between atoms: C_14  and  C_15
REMARK    7  A    between atoms: C_15  and  C_16
REMARK    8  A    between atoms: C_19  and  O_20
REMARK                            x       y       z     vdW  Elec       q    Type
REMARK                         _______ _______ _______ _____ _____    ______ ____
ROOT
ATOM      1  C   UNL     1       2.250   4.607  19.845  0.00  0.00    +0.000 A 
ATOM      2  N   UNL     1       1.074   3.927  19.546  0.00  0.00    +0.000 N 
ATOM      3  C   UNL     1       1.315   2.770  18.838  0.00  0.00    +0.000 A 
ATOM      4  N   UNL     1       0.458   1.888  18.482  0.00  0.00    +0.000 NA
ATOM      5  N   UNL     1       2.692   2.781  18.640  0.00  0.00    +0.000 N 
ATOM      6  C   UNL     1       3.405   1.702  18.000  0.00  0.00    +0.000 C 
ATOM      7  C   UNL     1       3.264   3.905  19.281  0.00  0.00    +0.000 A 
ATOM      8  H   UNL     1       0.184   4.200  19.926  0.00  0.00    +0.000 HD
ATOM      9  H   UNL     1      -0.467   2.182  18.800  0.00  0.00    +0.000 HD
ENDROOT
BRANCH   1  10
ATOM     10  C   UNL     1       2.273   5.808  20.736  0.00  0.00    +0.000 C 
BRANCH  10  14
ATOM     11  C   UNL     1       1.453   9.587  18.787  0.00  0.00    +0.000 A 
ATOM     12  C   UNL     1       1.004   9.355  20.087  0.00  0.00    +0.000 A 
ATOM     13  C   UNL     1       1.252   8.133  20.720  0.00  0.00    +0.000 A 
ATOM     14  C   UNL     1       1.944   7.115  20.052  0.00  0.00    +0.000 A 
ATOM     15  C   UNL     1       2.354   7.341  18.729  0.00  0.00    +0.000 A 
ATOM     16  C   UNL     1       2.113   8.569  18.101  0.00  0.00    +0.000 A 
BRANCH  11  18
ATOM     17  C   UNL     1       0.533  11.730  19.180  0.00  0.00    +0.000 C 
ATOM     18  O   UNL     1       1.163  10.825  18.279  0.00  0.00    +0.000 OA
ENDBRANCH  11  18
ENDBRANCH  10  14
ENDBRANCH   1  10
BRANCH   7  19
ATOM     19  C   UNL     1       4.743   4.151  19.351  0.00  0.00    +0.000 C 
BRANCH  19  20
ATOM     20  C   UNL     1       5.429   4.567  18.064  0.00  0.00    +0.000 A 
ATOM     21  C   UNL     1       6.807   4.416  17.838  0.00  0.00    +0.000 A 
ATOM     22  C   UNL     1       7.372   4.747  16.604  0.00  0.00    +0.000 A 
ATOM     23  C   UNL     1       6.562   5.238  15.586  0.00  0.00    +0.000 A 
ATOM     24  C   UNL     1       5.203   5.425  15.792  0.00  0.00    +0.000 A 
ATOM     25  C   UNL     1       4.638   5.093  17.026  0.00  0.00    +0.000 A 
BRANCH  23  26
ATOM     26  O   UNL     1       7.070   5.540  14.358  0.00  0.00    +0.000 OA
ATOM     27  H   UNL     1       6.377   5.385  13.694  0.00  0.00    +0.000 HD
ENDBRANCH  23  26
ENDBRANCH  19  20
ENDBRANCH   7  19
TORSDOF 6
ENDMDL
MODEL 8
REMARK VINA RESULT:      -7.9      2.996      6.023
REMARK  Name = 
REMARK  8 active torsions:
REMARK  status: ('A' for Active; 'I' for Inactive)
REMARK    1  A    between atoms: C_1  and  O_2
REMARK    2  A    between atoms: O_2  and  C_3
REMARK    3  A    between atoms: C_6  and  C_7
REMARK    4  A    between atoms: C_7  and  C_8
REMARK    5  A    between atoms: N_12  and  C_13
REMARK    6  A    between atoms: C_14  and  C_15
REMARK    7  A    between atoms: C_15  and  C_16
REMARK    8  A    between atoms: C_19  and  O_20
REMARK                            x       y       z     vdW  Elec       q    Type
REMARK                         _______ _______ _______ _____ _____    ______ ____
ROOT
ATOM      1  C   UNL     1       4.461   6.706  17.233  0.00  0.00    +0.000 A 
ATOM      2  N   UNL     1       5.515   7.609  17.318  0.00  0.00    +0.000 N 
ATOM      3  C   UNL     1       6.738   6.974  17.304  0.00  0.00    +0.000 A 
ATOM      4  N   UNL     1       7.895   7.522  17.290  0.00  0.00    +0.000 NA
ATOM      5  N   UNL     1       6.411   5.622  17.276  0.00  0.00    +0.000 N 
ATOM      6  C   UNL     1       7.398   4.574  17.174  0.00  0.00    +0.000 C 
ATOM      7  C   UNL     1       5.006   5.465  17.211  0.00  0.00    +0.000 A 
ATOM      8  H   UNL     1       5.377   8.603  17.263  0.00  0.00    +0.000 HD
ATOM      9  H   UNL     1       7.777   8.536  17.302  0.00  0.00    +0.000 HD
ENDROOT
BRANCH   1  10
ATOM     10  C   UNL     1       3.041   7.150  17.074  0.00  0.00    +0.000 C 
BRANCH  10  14
ATOM     11  C   UNL     1       1.109   8.640  20.653  0.00  0.00    +0.000 A 
ATOM     12  C   UNL     1       1.175   9.433  19.507  0.00  0.00    +0.000 A 
ATOM     13  C   UNL     1       1.809   8.966  18.351  0.00  0.00    +0.000 A 
ATOM     14  C   UNL     1       2.401   7.697  18.330  0.00  0.00    +0.000 A 
ATOM     15  C   UNL     1       2.369   6.923  19.499  0.00  0.00    +0.000 A 
ATOM     16  C   UNL     1       1.725   7.389  20.652  0.00  0.00    +0.000 A 
BRANCH  11  18
ATOM     17  C   UNL     1       0.233  10.603  21.637  0.00  0.00    +0.000 C 
ATOM     18  O   UNL     1       0.452   9.198  21.715  0.00  0.00    +0.000 OA
ENDBRANCH  11  18
ENDBRANCH  10  14
ENDBRANCH   1  10
BRANCH   7  19
ATOM     19  C   UNL     1       4.331   4.133  17.058  0.00  0.00    +0.000 C 
BRANCH  19  20
ATOM     20  C   UNL     1       3.408   3.700  18.181  0.00  0.00    +0.000 A 
ATOM     21  C   UNL     1       3.851   3.426  19.484  0.00  0.00    +0.000 A 
ATOM     22  C   UNL     1       2.944   3.104  20.498  0.00  0.00    +0.000 A 
ATOM     23  C   UNL     1       1.585   3.049  20.212  0.00  0.00    +0.000 A 
ATOM     24  C   UNL     1       1.123   3.285  18.925  0.00  0.00    +0.000 A 
ATOM     25  C   UNL     1       2.030   3.608  17.913  0.00  0.00    +0.000 A 
BRANCH  23  26
ATOM     26  O   UNL     1       0.666   2.772  21.180  0.00  0.00    +0.000 OA
ATOM     27  H   UNL     1       0.465   1.822  21.148  0.00  0.00    +0.000 HD
ENDBRANCH  23  26
ENDBRANCH  19  20
ENDBRANCH   7  19
TORSDOF 6
ENDMDL
MODEL 9
REMARK VINA RESULT:      -7.9      1.235      5.161
REMARK  Name = 
REMARK  8 active torsions:
REMARK  status: ('A' for Active; 'I' for Inactive)
REMARK    1  A    between atoms: C_1  and  O_2
REMARK    2  A    between atoms: O_2  and  C_3
REMARK    3  A    between atoms: C_6  and  C_7
REMARK    4  A    between atoms: C_7  and  C_8
REMARK    5  A    between atoms: N_12  and  C_13
REMARK    6  A    between atoms: C_14  and  C_15
REMARK    7  A    between atoms: C_15  and  C_16
REMARK    8  A    between atoms: C_19  and  O_20
REMARK                            x       y       z     vdW  Elec       q    Type
REMARK                         _______ _______ _______ _____ _____    ______ ____
ROOT
ATOM      1  C   UNL     1       2.434   4.504  19.837  0.00  0.00    +0.000 A 
ATOM      2  N   UNL     1       1.215   3.987  19.414  0.00  0.00    +0.000 N 
ATOM      3  C   UNL     1       1.364   2.775  18.777  0.00  0.00    +0.000 A 
ATOM      4  N   UNL     1       0.434   2.009  18.343  0.00  0.00    +0.000 NA
ATOM      5  N   UNL     1       2.741   2.578  18.753  0.00  0.00    +0.000 N 
ATOM      6  C   UNL     1       3.357   1.379  18.240  0.00  0.00    +0.000 C 
ATOM      7  C   UNL     1       3.393   3.638  19.426  0.00  0.00    +0.000 A 
ATOM      8  H   UNL     1       0.336   4.403  19.671  0.00  0.00    +0.000 HD
ATOM      9  H   UNL     1      -0.468   2.448  18.534  0.00  0.00    +0.000 HD
ENDROOT
BRANCH   1  10
ATOM     10  C   UNL     1       2.529   5.731  20.687  0.00  0.00    +0.000 C 
BRANCH  10  14
ATOM     11  C   UNL     1       1.397   9.438  18.755  0.00  0.00    +0.000 A 
ATOM     12  C   UNL     1       1.011   9.186  20.072  0.00  0.00    +0.000 A 
ATOM     13  C   UNL     1       1.361   7.986  20.700  0.00  0.00    +0.000 A 
ATOM     14  C   UNL     1       2.092   7.011  20.010  0.00  0.00    +0.000 A 
ATOM     15  C   UNL     1       2.438   7.254  18.673  0.00  0.00    +0.000 A 
ATOM     16  C   UNL     1       2.097   8.460  18.050  0.00  0.00    +0.000 A 
BRANCH  11  18
ATOM     17  C   UNL     1       1.790  11.769  18.668  0.00  0.00    +0.000 C 
ATOM     18  O   UNL     1       1.010  10.651  18.254  0.00  0.00    +0.000 OA
ENDBRANCH  11  18
ENDBRANCH  10  14
ENDBRANCH   1  10
BRANCH   7  19
ATOM     19  C   UNL     1       4.873   3.672  19.673  0.00  0.00    +0.000 C 
BRANCH  19  20
ATOM     20  C   UNL     1       5.667   4.732  18.934  0.00  0.00    +0.000 A 
ATOM     21  C   UNL     1       6.823   5.335  19.452  0.00  0.00    +0.000 A 
ATOM     22  C   UNL     1       7.557   6.252  18.694  0.00  0.00    +0.000 A 
ATOM     23  C   UNL     1       7.134   6.577  17.410  0.00  0.00    +0.000 A 
ATOM     24  C   UNL     1       5.977   6.018  16.885  0.00  0.00    +0.000 A 
ATOM     25  C   UNL     1       5.245   5.102  17.643  0.00  0.00    +0.000 A 
BRANCH  23  26
ATOM     26  O   UNL     1       7.840   7.439  16.627  0.00  0.00    +0.000 OA
ATOM     27  H   UNL     1       8.178   6.949  15.859  0.00  0.00    +0.000 HD
ENDBRANCH  23  26
ENDBRANCH  19  20
ENDBRANCH   7  19
TORSDOF 6
ENDMDL
