MODEL 1
REMARK VINA RESULT:      -8.5      0.000      0.000
REMARK  Name = 
REMARK  10 active torsions:
REMARK  status: ('A' for Active; 'I' for Inactive)
REMARK    1  A    between atoms: C_2  and  C_4
REMARK    2  A    between atoms: C_8  and  C_9
REMARK    3  A    between atoms: N_11  and  C_12
REMARK    4  A    between atoms: C_12  and  C_13
REMARK    5  A    between atoms: C_12  and  C_20
REMARK    6  A    between atoms: C_13  and  C_14
REMARK    7  A    between atoms: N_22  and  C_23
REMARK    8  A    between atoms: C_23  and  C_24
REMARK    9  A    between atoms: C_27  and  C_28
REMARK   10  A    between atoms: C_28  and  N_29
REMARK                            x       y       z     vdW  Elec       q    Type
REMARK                         _______ _______ _______ _____ _____    ______ ____
ROOT
ATOM      1  C   UNL     1       4.013   5.481  17.516  0.00  0.00    +0.000 C 
ENDROOT
BRANCH   1   4
ATOM      2  C   UNL     1       6.017   5.072  16.062  0.00  0.00    +0.000 C 
ATOM      3  O   UNL     1       6.801   5.056  17.005  0.00  0.00    +0.000 OA
ATOM      4  N   UNL     1       4.687   5.399  16.207  0.00  0.00    +0.000 N 
ATOM      5  H   UNL     1       4.129   5.585  15.387  0.00  0.00    +0.000 HD
BRANCH   2  10
ATOM      6  C   UNL     1       6.170   3.525  12.610  0.00  0.00    +0.000 A 
ATOM      7  C   UNL     1       7.227   4.242  12.034  0.00  0.00    +0.000 A 
ATOM      8  C   UNL     1       7.898   5.225  12.763  0.00  0.00    +0.000 A 
ATOM      9  C   UNL     1       7.523   5.495  14.079  0.00  0.00    +0.000 A 
ATOM     10  C   UNL     1       6.500   4.752  14.686  0.00  0.00    +0.000 A 
ATOM     11  C   UNL     1       5.825   3.764  13.947  0.00  0.00    +0.000 A 
BRANCH   6  13
ATOM     12  N   UNL     1       4.200   3.014  11.324  0.00  0.00    +0.000 NA
ATOM     13  C   UNL     1       5.359   2.614  11.739  0.00  0.00    +0.000 C 
ATOM     14  N   UNL     1       5.797   1.370  11.398  0.00  0.00    +0.000 N 
ATOM     15  H   UNL     1       3.740   2.268  10.800  0.00  0.00    +0.000 HD
ATOM     16  H   UNL     1       5.309   0.910  10.640  0.00  0.00    +0.000 HD
ATOM     17  H   UNL     1       6.799   1.222  11.353  0.00  0.00    +0.000 HD
ENDBRANCH   6  13
ENDBRANCH   2  10
ENDBRANCH   1   4
BRANCH   1  18
ATOM     18  C   UNL     1       3.690   6.908  18.041  0.00  0.00    +0.000 C 
ATOM     19  O   UNL     1       4.437   7.871  17.844  0.00  0.00    +0.000 OA
ATOM     20  N   UNL     1       2.428   7.109  18.562  0.00  0.00    +0.000 N 
ATOM     21  H   UNL     1       1.791   6.312  18.629  0.00  0.00    +0.000 HD
BRANCH  20  22
ATOM     22  C   UNL     1       2.020   8.440  18.963  0.00  0.00    +0.000 C 
BRANCH  22  23
ATOM     23  C   UNL     1       1.519   9.351  17.827  0.00  0.00    +0.000 C 
ATOM     24  C   UNL     1      -0.024   9.396  17.818  0.00  0.00    +0.000 C 
ATOM     25  C   UNL     1      -0.605  10.159  19.015  0.00  0.00    +0.000 C 
ATOM     26  C   UNL     1      -0.033  11.581  19.166  0.00  0.00    +0.000 C 
ATOM     27  C   UNL     1       1.508  11.557  19.111  0.00  0.00    +0.000 C 
ATOM     28  C   UNL     1       2.056  10.786  17.908  0.00  0.00    +0.000 C 
BRANCH  26  29
ATOM     29  C   UNL     1      -0.671  12.530  18.129  0.00  0.00    +0.000 C 
BRANCH  29  30
ATOM     30  N   UNL     1      -2.115  12.344  18.021  0.00  0.00    +0.000 NA
ATOM     31  H   UNL     1      -2.326  11.357  17.881  0.00  0.00    +0.000 HD
ATOM     32  H   UNL     1      -2.460  12.834  17.198  0.00  0.00    +0.000 HD
ENDBRANCH  29  30
ENDBRANCH  26  29
ENDBRANCH  22  23
ENDBRANCH  20  22
ENDBRANCH   1  18
BRANCH   1  33
ATOM     33  C   UNL     1       2.770   4.546  17.588  0.00  0.00    +0.000 C 
BRANCH  33  34
ATOM     34  C   UNL     1       2.488   3.859  18.913  0.00  0.00    +0.000 A 
ATOM     35  C   UNL     1       3.504   3.230  19.645  0.00  0.00    +0.000 A 
ATOM     36  C   UNL     1       3.215   2.584  20.853  0.00  0.00    +0.000 A 
ATOM     37  C   UNL     1       1.912   2.565  21.348  0.00  0.00    +0.000 A 
ATOM     38  C   UNL     1       0.902   3.215  20.651  0.00  0.00    +0.000 A 
ATOM     39  C   UNL     1       1.191   3.867  19.452  0.00  0.00    +0.000 A 
ENDBRANCH  33  34
ENDBRANCH   1  33
TORSDOF 10
ENDMDL
MODEL 2
REMARK VINA RESULT:      -8.4      4.596      5.788
REMARK  Name = 
REMARK  10 active torsions:
REMARK  status: ('A' for Active; 'I' for Inactive)
REMARK    1  A    between atoms: C_2  and  C_4
REMARK    2  A    between atoms: C_8  and  C_9
REMARK    3  A    between atoms: N_11  and  C_12
REMARK    4  A    between atoms: C_12  and  C_13
REMARK    5  A    between atoms: C_12  and  C_20
REMARK    6  A    between atoms: C_13  and  C_14
REMARK    7  A    between atoms: N_22  and  C_23
REMARK    8  A    between atoms: C_23  and  C_24
REMARK    9  A    between atoms: C_27  and  C_28
REMARK   10  A    between atoms: C_28  and  N_29
REMARK                            x       y       z     vdW  Elec       q    Type
REMARK                         _______ _______ _______ _____ _____    ______ ____
ROOT
ATOM      1  C   UNL     1       6.405   6.441  17.450  0.00  0.00    +0.000 C 
ENDROOT
BRANCH   1   4
ATOM      2  C   UNL     1       7.305   5.032  15.577  0.00  0.00    +0.000 C 
ATOM      3  O   UNL     1       7.864   4.241  16.329  0.00  0.00    +0.000 OA
ATOM      4  N   UNL     1       6.698   6.184  16.027  0.00  0.00    +0.000 N 
ATOM      5  H   UNL     1       6.424   6.893  15.364  0.00  0.00    +0.000 HD
BRANCH   2  10
ATOM      6  C   UNL     1       6.337   3.557  12.227  0.00  0.00    +0.000 A 
ATOM      7  C   UNL     1       7.060   4.374  11.348  0.00  0.00    +0.000 A 
ATOM      8  C   UNL     1       7.868   5.402  11.836  0.00  0.00    +0.000 A 
ATOM      9  C   UNL     1       7.967   5.617  13.212  0.00  0.00    +0.000 A 
ATOM     10  C   UNL     1       7.289   4.777  14.106  0.00  0.00    +0.000 A 
ATOM     11  C   UNL     1       6.474   3.744  13.610  0.00  0.00    +0.000 A 
BRANCH   6  13
ATOM     12  N   UNL     1       5.707   1.363  11.462  0.00  0.00    +0.000 NA
ATOM     13  C   UNL     1       5.343   2.590  11.659  0.00  0.00    +0.000 C 
ATOM     14  N   UNL     1       4.081   2.974  11.321  0.00  0.00    +0.000 N 
ATOM     15  H   UNL     1       4.952   0.842  11.014  0.00  0.00    +0.000 HD
ATOM     16  H   UNL     1       3.411   2.234  11.158  0.00  0.00    +0.000 HD
ATOM     17  H   UNL     1       3.676   3.751  11.830  0.00  0.00    +0.000 HD
ENDBRANCH   6  13
ENDBRANCH   2  10
ENDBRANCH   1   4
BRANCH   1  18
ATOM     18  C   UNL     1       7.497   7.199  18.255  0.00  0.00    +0.000 C 
ATOM     19  O   UNL     1       8.204   6.643  19.100  0.00  0.00    +0.000 OA
ATOM     20  N   UNL     1       7.792   8.484  17.845  0.00  0.00    +0.000 N 
ATOM     21  H   UNL     1       7.254   8.891  17.078  0.00  0.00    +0.000 HD
BRANCH  20  22
ATOM     22  C   UNL     1       8.878   9.206  18.477  0.00  0.00    +0.000 C 
BRANCH  22  23
ATOM     23  C   UNL     1       8.568  10.662  18.868  0.00  0.00    +0.000 C 
ATOM     24  C   UNL     1       9.263  11.019  20.199  0.00  0.00    +0.000 C 
ATOM     25  C   UNL     1      10.787  11.124  20.068  0.00  0.00    +0.000 C 
ATOM     26  C   UNL     1      11.237  12.092  18.957  0.00  0.00    +0.000 C 
ATOM     27  C   UNL     1      10.501  11.787  17.637  0.00  0.00    +0.000 C 
ATOM     28  C   UNL     1       8.983  11.686  17.803  0.00  0.00    +0.000 C 
BRANCH  26  29
ATOM     29  C   UNL     1      11.081  13.555  19.426  0.00  0.00    +0.000 C 
BRANCH  29  30
ATOM     30  N   UNL     1      11.279  14.509  18.340  0.00  0.00    +0.000 NA
ATOM     31  H   UNL     1      11.919  14.119  17.651  0.00  0.00    +0.000 HD
ATOM     32  H   UNL     1      11.722  15.352  18.704  0.00  0.00    +0.000 HD
ENDBRANCH  29  30
ENDBRANCH  26  29
ENDBRANCH  22  23
ENDBRANCH  20  22
ENDBRANCH   1  18
BRANCH   1  33
ATOM     33  C   UNL     1       4.997   7.076  17.647  0.00  0.00    +0.000 C 
BRANCH  33  34
ATOM     34  C   UNL     1       3.879   6.163  18.118  0.00  0.00    +0.000 A 
ATOM     35  C   UNL     1       3.513   5.017  17.398  0.00  0.00    +0.000 A 
ATOM     36  C   UNL     1       2.463   4.203  17.841  0.00  0.00    +0.000 A 
ATOM     37  C   UNL     1       1.773   4.518  19.010  0.00  0.00    +0.000 A 
ATOM     38  C   UNL     1       2.148   5.630  19.753  0.00  0.00    +0.000 A 
ATOM     39  C   UNL     1       3.200   6.436  19.317  0.00  0.00    +0.000 A 
ENDBRANCH  33  34
ENDBRANCH   1  33
TORSDOF 10
ENDMDL
MODEL 3
REMARK VINA RESULT:      -8.4      4.655      5.860
REMARK  Name = 
REMARK  10 active torsions:
REMARK  status: ('A' for Active; 'I' for Inactive)
REMARK    1  A    between atoms: C_2  and  C_4
REMARK    2  A    between atoms: C_8  and  C_9
REMARK    3  A    between atoms: N_11  and  C_12
REMARK    4  A    between atoms: C_12  and  C_13
REMARK    5  A    between atoms: C_12  and  C_20
REMARK    6  A    between atoms: C_13  and  C_14
REMARK    7  A    between atoms: N_22  and  C_23
REMARK    8  A    between atoms: C_23  and  C_24
REMARK    9  A    between atoms: C_27  and  C_28
REMARK   10  A    between atoms: C_28  and  N_29
REMARK                            x       y       z     vdW  Elec       q    Type
REMARK                         _______ _______ _______ _____ _____    ______ ____
ROOT
ATOM      1  C   UNL     1       6.460   6.443  17.432  0.00  0.00    +0.000 C 
ENDROOT
BRANCH   1   4
ATOM      2  C   UNL     1       7.288   4.979  15.569  0.00  0.00    +0.000 C 
ATOM      3  O   UNL     1       7.767   4.143  16.327  0.00  0.00    +0.000 OA
ATOM      4  N   UNL     1       6.762   6.172  16.014  0.00  0.00    +0.000 N 
ATOM      5  H   UNL     1       6.558   6.903  15.350  0.00  0.00    +0.000 HD
BRANCH   2  10
ATOM      6  C   UNL     1       6.365   3.504  12.206  0.00  0.00    +0.000 A 
ATOM      7  C   UNL     1       7.073   4.343  11.335  0.00  0.00    +0.000 A 
ATOM      8  C   UNL     1       7.856   5.385  11.833  0.00  0.00    +0.000 A 
ATOM      9  C   UNL     1       7.945   5.594  13.210  0.00  0.00    +0.000 A 
ATOM     10  C   UNL     1       7.283   4.733  14.096  0.00  0.00    +0.000 A 
ATOM     11  C   UNL     1       6.493   3.685  13.590  0.00  0.00    +0.000 A 
BRANCH   6  13
ATOM     12  N   UNL     1       4.196   2.916  11.341  0.00  0.00    +0.000 NA
ATOM     13  C   UNL     1       5.395   2.519  11.628  0.00  0.00    +0.000 C 
ATOM     14  N   UNL     1       5.732   1.215  11.424  0.00  0.00    +0.000 N 
ATOM     15  H   UNL     1       3.634   2.128  11.020  0.00  0.00    +0.000 HD
ATOM     16  H   UNL     1       5.113   0.674  10.834  0.00  0.00    +0.000 HD
ATOM     17  H   UNL     1       6.708   1.006  11.247  0.00  0.00    +0.000 HD
ENDBRANCH   6  13
ENDBRANCH   2  10
ENDBRANCH   1   4
BRANCH   1  18
ATOM     18  C   UNL     1       7.546   7.212  18.236  0.00  0.00    +0.000 C 
ATOM     19  O   UNL     1       8.245   6.667  19.095  0.00  0.00    +0.000 OA
ATOM     20  N   UNL     1       7.848   8.490  17.810  0.00  0.00    +0.000 N 
ATOM     21  H   UNL     1       7.317   8.887  17.032  0.00  0.00    +0.000 HD
BRANCH  20  22
ATOM     22  C   UNL     1       8.930   9.219  18.440  0.00  0.00    +0.000 C 
BRANCH  22  23
ATOM     23  C   UNL     1       8.593  10.655  18.882  0.00  0.00    +0.000 C 
ATOM     24  C   UNL     1       9.311  10.991  20.206  0.00  0.00    +0.000 C 
ATOM     25  C   UNL     1      10.829  11.138  20.042  0.00  0.00    +0.000 C 
ATOM     26  C   UNL     1      11.227  12.149  18.950  0.00  0.00    +0.000 C 
ATOM     27  C   UNL     1      10.467  11.864  17.639  0.00  0.00    +0.000 C 
ATOM     28  C   UNL     1       8.956  11.720  17.837  0.00  0.00    +0.000 C 
BRANCH  26  29
ATOM     29  C   UNL     1      11.047  13.593  19.465  0.00  0.00    +0.000 C 
BRANCH  29  30
ATOM     30  N   UNL     1      12.161  14.458  19.092  0.00  0.00    +0.000 NA
ATOM     31  H   UNL     1      11.825  15.409  18.944  0.00  0.00    +0.000 HD
ATOM     32  H   UNL     1      12.551  14.147  18.204  0.00  0.00    +0.000 HD
ENDBRANCH  29  30
ENDBRANCH  26  29
ENDBRANCH  22  23
ENDBRANCH  20  22
ENDBRANCH   1  18
BRANCH   1  33
ATOM     33  C   UNL     1       5.051   7.079  17.614  0.00  0.00    +0.000 C 
BRANCH  33  34
ATOM     34  C   UNL     1       3.919   6.158  18.034  0.00  0.00    +0.000 A 
ATOM     35  C   UNL     1       3.094   6.458  19.126  0.00  0.00    +0.000 A 
ATOM     36  C   UNL     1       2.071   5.581  19.508  0.00  0.00    +0.000 A 
ATOM     37  C   UNL     1       1.854   4.401  18.800  0.00  0.00    +0.000 A 
ATOM     38  C   UNL     1       2.640   4.108  17.693  0.00  0.00    +0.000 A 
ATOM     39  C   UNL     1       3.653   4.986  17.307  0.00  0.00    +0.000 A 
ENDBRANCH  33  34
ENDBRANCH   1  33
TORSDOF 10
ENDMDL
MODEL 4
REMARK VINA RESULT:      -8.3      1.186      1.672
REMARK  Name = 
REMARK  10 active torsions:
REMARK  status: ('A' for Active; 'I' for Inactive)
REMARK    1  A    between atoms: C_2  and  C_4
REMARK    2  A    between atoms: C_8  and  C_9
REMARK    3  A    between atoms: N_11  and  C_12
REMARK    4  A    between atoms: C_12  and  C_13
REMARK    5  A    between atoms: C_12  and  C_20
REMARK    6  A    between atoms: C_13  and  C_14
REMARK    7  A    between atoms: N_22  and  C_23
REMARK    8  A    between atoms: C_23  and  C_24
REMARK    9  A    between atoms: C_27  and  C_28
REMARK   10  A    between atoms: C_28  and  N_29
REMARK                            x       y       z     vdW  Elec       q    Type
REMARK                         _______ _______ _______ _____ _____    ______ ____
ROOT
ATOM      1  C   UNL     1       4.710   4.474  17.769  0.00  0.00    +0.000 C 
ENDROOT
BRANCH   1   4
ATOM      2  C   UNL     1       6.503   4.563  16.015  0.00  0.00    +0.000 C 
ATOM      3  O   UNL     1       7.416   4.617  16.832  0.00  0.00    +0.000 OA
ATOM      4  N   UNL     1       5.175   4.626  16.378  0.00  0.00    +0.000 N 
ATOM      5  H   UNL     1       4.473   4.771  15.669  0.00  0.00    +0.000 HD
BRANCH   2  10
ATOM      6  C   UNL     1       6.331   3.402  12.415  0.00  0.00    +0.000 A 
ATOM      7  C   UNL     1       7.196   4.312  11.792  0.00  0.00    +0.000 A 
ATOM      8  C   UNL     1       7.842   5.301  12.535  0.00  0.00    +0.000 A 
ATOM      9  C   UNL     1       7.635   5.385  13.912  0.00  0.00    +0.000 A 
ATOM     10  C   UNL     1       6.812   4.451  14.558  0.00  0.00    +0.000 A 
ATOM     11  C   UNL     1       6.162   3.458  13.805  0.00  0.00    +0.000 A 
BRANCH   6  13
ATOM     12  N   UNL     1       4.352   2.868  11.152  0.00  0.00    +0.000 NA
ATOM     13  C   UNL     1       5.518   2.479  11.559  0.00  0.00    +0.000 C 
ATOM     14  N   UNL     1       5.961   1.235  11.224  0.00  0.00    +0.000 N 
ATOM     15  H   UNL     1       3.893   2.115  10.638  0.00  0.00    +0.000 HD
ATOM     16  H   UNL     1       5.470   0.766  10.475  0.00  0.00    +0.000 HD
ATOM     17  H   UNL     1       6.963   1.094  11.171  0.00  0.00    +0.000 HD
ENDBRANCH   6  13
ENDBRANCH   2  10
ENDBRANCH   1   4
BRANCH   1  18
ATOM     18  C   UNL     1       4.074   5.731  18.427  0.00  0.00    +0.000 C 
ATOM     19  O   UNL     1       4.186   5.977  19.631  0.00  0.00    +0.000 OA
ATOM     20  N   UNL     1       3.547   6.680  17.574  0.00  0.00    +0.000 N 
ATOM     21  H   UNL     1       3.550   6.494  16.569  0.00  0.00    +0.000 HD
BRANCH  20  22
ATOM     22  C   UNL     1       3.043   7.927  18.113  0.00  0.00    +0.000 C 
BRANCH  22  23
ATOM     23  C   UNL     1       1.520   7.991  18.325  0.00  0.00    +0.000 C 
ATOM     24  C   UNL     1       1.175   7.742  19.809  0.00  0.00    +0.000 C 
ATOM     25  C   UNL     1       1.595   8.900  20.722  0.00  0.00    +0.000 C 
ATOM     26  C   UNL     1       1.040  10.264  20.269  0.00  0.00    +0.000 C 
ATOM     27  C   UNL     1       1.322  10.497  18.771  0.00  0.00    +0.000 C 
ATOM     28  C   UNL     1       0.894   9.322  17.888  0.00  0.00    +0.000 C 
BRANCH  26  29
ATOM     29  C   UNL     1      -0.453  10.386  20.642  0.00  0.00    +0.000 C 
BRANCH  29  30
ATOM     30  N   UNL     1      -1.091  11.534  20.007  0.00  0.00    +0.000 NA
ATOM     31  H   UNL     1      -0.435  12.312  19.960  0.00  0.00    +0.000 HD
ATOM     32  H   UNL     1      -1.873  11.848  20.579  0.00  0.00    +0.000 HD
ENDBRANCH  29  30
ENDBRANCH  26  29
ENDBRANCH  22  23
ENDBRANCH  20  22
ENDBRANCH   1  18
BRANCH   1  33
ATOM     33  C   UNL     1       3.813   3.214  17.947  0.00  0.00    +0.000 C 
BRANCH  33  34
ATOM     34  C   UNL     1       2.929   3.155  19.180  0.00  0.00    +0.000 A 
ATOM     35  C   UNL     1       1.581   3.534  19.136  0.00  0.00    +0.000 A 
ATOM     36  C   UNL     1       0.791   3.492  20.292  0.00  0.00    +0.000 A 
ATOM     37  C   UNL     1       1.336   3.065  21.502  0.00  0.00    +0.000 A 
ATOM     38  C   UNL     1       2.661   2.652  21.553  0.00  0.00    +0.000 A 
ATOM     39  C   UNL     1       3.445   2.685  20.399  0.00  0.00    +0.000 A 
ENDBRANCH  33  34
ENDBRANCH   1  33
TORSDOF 10
ENDMDL
MODEL 5
REMARK VINA RESULT:      -8.3      4.912      8.256
REMARK  Name = 
REMARK  10 active torsions:
REMARK  status: ('A' for Active; 'I' for Inactive)
REMARK    1  A    between atoms: C_2  and  C_4
REMARK    2  A    between atoms: C_8  and  C_9
REMARK    3  A    between atoms: N_11  and  C_12
REMARK    4  A    between atoms: C_12  and  C_13
REMARK    5  A    between atoms: C_12  and  C_20
REMARK    6  A    between atoms: C_13  and  C_14
REMARK    7  A    between atoms: N_22  and  C_23
REMARK    8  A    between atoms: C_23  and  C_24
REMARK    9  A    between atoms: C_27  and  C_28
REMARK   10  A    between atoms: C_28  and  N_29
REMARK                            x       y       z     vdW  Elec       q    Type
REMARK                         _______ _______ _______ _____ _____    ______ ____
ROOT
ATOM      1  C   UNL     1       6.788   6.590  17.128  0.00  0.00    +0.000 C 
ENDROOT
BRANCH   1   4
ATOM      2  C   UNL     1       5.125   5.490  18.651  0.00  0.00    +0.000 C 
ATOM      3  O   UNL     1       5.929   4.666  19.072  0.00  0.00    +0.000 OA
ATOM      4  N   UNL     1       5.419   6.361  17.625  0.00  0.00    +0.000 N 
ATOM      5  H   UNL     1       4.674   6.882  17.187  0.00  0.00    +0.000 HD
BRANCH   2  10
ATOM      6  C   UNL     1       1.903   4.405  20.318  0.00  0.00    +0.000 A 
ATOM      7  C   UNL     1       1.272   5.639  20.526  0.00  0.00    +0.000 A 
ATOM      8  C   UNL     1       1.885   6.826  20.123  0.00  0.00    +0.000 A 
ATOM      9  C   UNL     1       3.133   6.790  19.499  0.00  0.00    +0.000 A 
ATOM     10  C   UNL     1       3.754   5.560  19.239  0.00  0.00    +0.000 A 
ATOM     11  C   UNL     1       3.134   4.366  19.649  0.00  0.00    +0.000 A 
BRANCH   6  13
ATOM     12  N   UNL     1       0.362   2.555  20.289  0.00  0.00    +0.000 NA
ATOM     13  C   UNL     1       1.300   3.176  20.929  0.00  0.00    +0.000 C 
ATOM     14  N   UNL     1       1.693   2.715  22.149  0.00  0.00    +0.000 N 
ATOM     15  H   UNL     1       0.006   1.782  20.852  0.00  0.00    +0.000 HD
ATOM     16  H   UNL     1       1.409   1.774  22.390  0.00  0.00    +0.000 HD
ATOM     17  H   UNL     1       2.644   2.913  22.440  0.00  0.00    +0.000 HD
ENDBRANCH   6  13
ENDBRANCH   2  10
ENDBRANCH   1   4
BRANCH   1  18
ATOM     18  C   UNL     1       7.755   7.344  18.084  0.00  0.00    +0.000 C 
ATOM     19  O   UNL     1       8.400   6.767  18.963  0.00  0.00    +0.000 OA
ATOM     20  N   UNL     1       8.026   8.663  17.781  0.00  0.00    +0.000 N 
ATOM     21  H   UNL     1       7.548   9.094  16.987  0.00  0.00    +0.000 HD
BRANCH  20  22
ATOM     22  C   UNL     1       9.006   9.391  18.561  0.00  0.00    +0.000 C 
BRANCH  22  23
ATOM     23  C   UNL     1       9.015  10.917  18.359  0.00  0.00    +0.000 C 
ATOM     24  C   UNL     1       8.771  11.637  19.703  0.00  0.00    +0.000 C 
ATOM     25  C   UNL     1       9.955  11.514  20.669  0.00  0.00    +0.000 C 
ATOM     26  C   UNL     1      11.291  11.973  20.055  0.00  0.00    +0.000 C 
ATOM     27  C   UNL     1      11.517  11.310  18.682  0.00  0.00    +0.000 C 
ATOM     28  C   UNL     1      10.316  11.447  17.742  0.00  0.00    +0.000 C 
BRANCH  26  29
ATOM     29  C   UNL     1      11.362  13.515  20.014  0.00  0.00    +0.000 C 
BRANCH  29  30
ATOM     30  N   UNL     1      10.504  14.136  21.017  0.00  0.00    +0.000 NA
ATOM     31  H   UNL     1      10.923  14.036  21.940  0.00  0.00    +0.000 HD
ATOM     32  H   UNL     1       9.610  13.648  21.050  0.00  0.00    +0.000 HD
ENDBRANCH  29  30
ENDBRANCH  26  29
ENDBRANCH  22  23
ENDBRANCH  20  22
ENDBRANCH   1  18
BRANCH   1  33
ATOM     33  C   UNL     1       7.430   5.285  16.572  0.00  0.00    +0.000 C 
BRANCH  33  34
ATOM     34  C   UNL     1       7.025   4.849  15.175  0.00  0.00    +0.000 A 
ATOM     35  C   UNL     1       5.928   4.006  14.957  0.00  0.00    +0.000 A 
ATOM     36  C   UNL     1       5.588   3.599  13.660  0.00  0.00    +0.000 A 
ATOM     37  C   UNL     1       6.335   4.035  12.567  0.00  0.00    +0.000 A 
ATOM     38  C   UNL     1       7.404   4.900  12.765  0.00  0.00    +0.000 A 
ATOM     39  C   UNL     1       7.736   5.313  14.055  0.00  0.00    +0.000 A 
ENDBRANCH  33  34
ENDBRANCH   1  33
TORSDOF 10
ENDMDL
MODEL 6
REMARK VINA RESULT:      -8.1      1.340      1.803
REMARK  Name = 
REMARK  10 active torsions:
REMARK  status: ('A' for Active; 'I' for Inactive)
REMARK    1  A    between atoms: C_2  and  C_4
REMARK    2  A    between atoms: C_8  and  C_9
REMARK    3  A    between atoms: N_11  and  C_12
REMARK    4  A    between atoms: C_12  and  C_13
REMARK    5  A    between atoms: C_12  and  C_20
REMARK    6  A    between atoms: C_13  and  C_14
REMARK    7  A    between atoms: N_22  and  C_23
REMARK    8  A    between atoms: C_23  and  C_24
REMARK    9  A    between atoms: C_27  and  C_28
REMARK   10  A    between atoms: C_28  and  N_29
REMARK                            x       y       z     vdW  Elec       q    Type
REMARK                         _______ _______ _______ _____ _____    ______ ____
ROOT
ATOM      1  C   UNL     1       5.341   4.090  17.974  0.00  0.00    +0.000 C 
ENDROOT
BRANCH   1   4
ATOM      2  C   UNL     1       6.417   4.977  15.887  0.00  0.00    +0.000 C 
ATOM      3  O   UNL     1       6.861   5.976  16.440  0.00  0.00    +0.000 OA
ATOM      4  N   UNL     1       5.569   4.092  16.517  0.00  0.00    +0.000 N 
ATOM      5  H   UNL     1       5.080   3.399  15.971  0.00  0.00    +0.000 HD
BRANCH   2  10
ATOM      6  C   UNL     1       6.310   3.445  12.426  0.00  0.00    +0.000 A 
ATOM      7  C   UNL     1       7.242   4.241  11.744  0.00  0.00    +0.000 A 
ATOM      8  C   UNL     1       7.910   5.272  12.404  0.00  0.00    +0.000 A 
ATOM      9  C   UNL     1       7.661   5.513  13.756  0.00  0.00    +0.000 A 
ATOM     10  C   UNL     1       6.770   4.694  14.463  0.00  0.00    +0.000 A 
ATOM     11  C   UNL     1       6.096   3.657  13.795  0.00  0.00    +0.000 A 
BRANCH   6  13
ATOM     12  N   UNL     1       4.300   2.831  11.252  0.00  0.00    +0.000 NA
ATOM     13  C   UNL     1       5.482   2.474  11.641  0.00  0.00    +0.000 C 
ATOM     14  N   UNL     1       5.928   1.219  11.352  0.00  0.00    +0.000 N 
ATOM     15  H   UNL     1       3.833   2.051  10.789  0.00  0.00    +0.000 HD
ATOM     16  H   UNL     1       5.419   0.710  10.641  0.00  0.00    +0.000 HD
ATOM     17  H   UNL     1       6.929   1.085  11.274  0.00  0.00    +0.000 HD
ENDBRANCH   6  13
ENDBRANCH   2  10
ENDBRANCH   1   4
BRANCH   1  18
ATOM     18  C   UNL     1       4.668   5.358  18.571  0.00  0.00    +0.000 C 
ATOM     19  O   UNL     1       4.897   5.751  19.718  0.00  0.00    +0.000 OA
ATOM     20  N   UNL     1       3.956   6.154  17.697  0.00  0.00    +0.000 N 
ATOM     21  H   UNL     1       3.859   5.853  16.725  0.00  0.00    +0.000 HD
BRANCH  20  22
ATOM     22  C   UNL     1       3.400   7.409  18.161  0.00  0.00    +0.000 C 
BRANCH  22  23
ATOM     23  C   UNL     1       1.863   7.475  18.215  0.00  0.00    +0.000 C 
ATOM     24  C   UNL     1       1.364   7.186  19.647  0.00  0.00    +0.000 C 
ATOM     25  C   UNL     1       1.690   8.315  20.632  0.00  0.00    +0.000 C 
ATOM     26  C   UNL     1       1.189   9.694  20.164  0.00  0.00    +0.000 C 
ATOM     27  C   UNL     1       1.626   9.969  18.710  0.00  0.00    +0.000 C 
ATOM     28  C   UNL     1       1.290   8.822  17.754  0.00  0.00    +0.000 C 
BRANCH  26  29
ATOM     29  C   UNL     1      -0.335   9.814  20.381  0.00  0.00    +0.000 C 
BRANCH  29  30
ATOM     30  N   UNL     1      -0.900  10.983  19.716  0.00  0.00    +0.000 NA
ATOM     31  H   UNL     1      -1.341  10.703  18.842  0.00  0.00    +0.000 HD
ATOM     32  H   UNL     1      -0.151  11.629  19.469  0.00  0.00    +0.000 HD
ENDBRANCH  29  30
ENDBRANCH  26  29
ENDBRANCH  22  23
ENDBRANCH  20  22
ENDBRANCH   1  18
BRANCH   1  33
ATOM     33  C   UNL     1       4.637   2.785  18.449  0.00  0.00    +0.000 C 
BRANCH  33  34
ATOM     34  C   UNL     1       3.318   2.933  19.187  0.00  0.00    +0.000 A 
ATOM     35  C   UNL     1       3.252   2.905  20.586  0.00  0.00    +0.000 A 
ATOM     36  C   UNL     1       2.020   3.021  21.243  0.00  0.00    +0.000 A 
ATOM     37  C   UNL     1       0.844   3.174  20.513  0.00  0.00    +0.000 A 
ATOM     38  C   UNL     1       0.898   3.240  19.126  0.00  0.00    +0.000 A 
ATOM     39  C   UNL     1       2.125   3.134  18.472  0.00  0.00    +0.000 A 
ENDBRANCH  33  34
ENDBRANCH   1  33
TORSDOF 10
ENDMDL
MODEL 7
REMARK VINA RESULT:      -8.1      1.527      1.969
REMARK  Name = 
REMARK  10 active torsions:
REMARK  status: ('A' for Active; 'I' for Inactive)
REMARK    1  A    between atoms: C_2  and  C_4
REMARK    2  A    between atoms: C_8  and  C_9
REMARK    3  A    between atoms: N_11  and  C_12
REMARK    4  A    between atoms: C_12  and  C_13
REMARK    5  A    between atoms: C_12  and  C_20
REMARK    6  A    between atoms: C_13  and  C_14
REMARK    7  A    between atoms: N_22  and  C_23
REMARK    8  A    between atoms: C_23  and  C_24
REMARK    9  A    between atoms: C_27  and  C_28
REMARK   10  A    between atoms: C_28  and  N_29
REMARK                            x       y       z     vdW  Elec       q    Type
REMARK                         _______ _______ _______ _____ _____    ______ ____
ROOT
ATOM      1  C   UNL     1       3.201   6.422  18.016  0.00  0.00    +0.000 C 
ENDROOT
BRANCH   1   4
ATOM      2  C   UNL     1       4.961   5.002  16.927  0.00  0.00    +0.000 C 
ATOM      3  O   UNL     1       4.942   4.154  17.812  0.00  0.00    +0.000 OA
ATOM      4  N   UNL     1       4.255   6.182  17.013  0.00  0.00    +0.000 N 
ATOM      5  H   UNL     1       4.450   6.926  16.360  0.00  0.00    +0.000 HD
BRANCH   2  10
ATOM      6  C   UNL     1       5.985   3.837  13.473  0.00  0.00    +0.000 A 
ATOM      7  C   UNL     1       7.210   4.499  13.312  0.00  0.00    +0.000 A 
ATOM      8  C   UNL     1       7.710   5.321  14.323  0.00  0.00    +0.000 A 
ATOM      9  C   UNL     1       6.994   5.482  15.510  0.00  0.00    +0.000 A 
ATOM     10  C   UNL     1       5.793   4.787  15.706  0.00  0.00    +0.000 A 
ATOM     11  C   UNL     1       5.290   3.961  14.685  0.00  0.00    +0.000 A 
BRANCH   6  13
ATOM     12  N   UNL     1       4.300   3.565  11.775  0.00  0.00    +0.000 NA
ATOM     13  C   UNL     1       5.396   3.116  12.299  0.00  0.00    +0.000 C 
ATOM     14  N   UNL     1       5.966   1.989  11.789  0.00  0.00    +0.000 N 
ATOM     15  H   UNL     1       3.986   2.940  11.032  0.00  0.00    +0.000 HD
ATOM     16  H   UNL     1       5.646   1.692  10.877  0.00  0.00    +0.000 HD
ATOM     17  H   UNL     1       6.968   1.882  11.895  0.00  0.00    +0.000 HD
ENDBRANCH   6  13
ENDBRANCH   2  10
ENDBRANCH   1   4
BRANCH   1  18
ATOM     18  C   UNL     1       2.649   7.873  18.108  0.00  0.00    +0.000 C 
ATOM     19  O   UNL     1       2.632   8.637  17.139  0.00  0.00    +0.000 OA
ATOM     20  N   UNL     1       1.983   8.213  19.268  0.00  0.00    +0.000 N 
ATOM     21  H   UNL     1       1.929   7.526  20.023  0.00  0.00    +0.000 HD
BRANCH  20  22
ATOM     22  C   UNL     1       1.344   9.509  19.374  0.00  0.00    +0.000 C 
BRANCH  22  23
ATOM     23  C   UNL     1      -0.110   9.493  19.881  0.00  0.00    +0.000 C 
ATOM     24  C   UNL     1      -0.188  10.088  21.304  0.00  0.00    +0.000 C 
ATOM     25  C   UNL     1       0.062  11.600  21.332  0.00  0.00    +0.000 C 
ATOM     26  C   UNL     1      -0.856  12.386  20.376  0.00  0.00    +0.000 C 
ATOM     27  C   UNL     1      -0.837  11.762  18.966  0.00  0.00    +0.000 C 
ATOM     28  C   UNL     1      -1.086  10.252  18.973  0.00  0.00    +0.000 C 
BRANCH  26  29
ATOM     29  C   UNL     1      -2.273  12.512  20.975  0.00  0.00    +0.000 C 
BRANCH  29  30
ATOM     30  N   UNL     1      -2.362  13.575  21.971  0.00  0.00    +0.000 NA
ATOM     31  H   UNL     1      -1.451  13.721  22.402  0.00  0.00    +0.000 HD
ATOM     32  H   UNL     1      -2.994  13.290  22.717  0.00  0.00    +0.000 HD
ENDBRANCH  29  30
ENDBRANCH  26  29
ENDBRANCH  22  23
ENDBRANCH  20  22
ENDBRANCH   1  18
BRANCH   1  33
ATOM     33  C   UNL     1       2.053   5.375  17.912  0.00  0.00    +0.000 C 
BRANCH  33  34
ATOM     34  C   UNL     1       1.884   4.408  19.071  0.00  0.00    +0.000 A 
ATOM     35  C   UNL     1       1.380   3.114  18.881  0.00  0.00    +0.000 A 
ATOM     36  C   UNL     1       1.212   2.249  19.969  0.00  0.00    +0.000 A 
ATOM     37  C   UNL     1       1.553   2.660  21.256  0.00  0.00    +0.000 A 
ATOM     38  C   UNL     1       2.088   3.926  21.454  0.00  0.00    +0.000 A 
ATOM     39  C   UNL     1       2.265   4.785  20.369  0.00  0.00    +0.000 A 
ENDBRANCH  33  34
ENDBRANCH   1  33
TORSDOF 10
ENDMDL
MODEL 8
REMARK VINA RESULT:      -8.1      1.098      1.591
REMARK  Name = 
REMARK  10 active torsions:
REMARK  status: ('A' for Active; 'I' for Inactive)
REMARK    1  A    between atoms: C_2  and  C_4
REMARK    2  A    between atoms: C_8  and  C_9
REMARK    3  A    between atoms: N_11  and  C_12
REMARK    4  A    between atoms: C_12  and  C_13
REMARK    5  A    between atoms: C_12  and  C_20
REMARK    6  A    between atoms: C_13  and  C_14
REMARK    7  A    between atoms: N_22  and  C_23
REMARK    8  A    between atoms: C_23  and  C_24
REMARK    9  A    between atoms: C_27  and  C_28
REMARK   10  A    between atoms: C_28  and  N_29
REMARK                            x       y       z     vdW  Elec       q    Type
REMARK                         _______ _______ _______ _____ _____    ______ ____
ROOT
ATOM      1  C   UNL     1       4.503   5.344  18.026  0.00  0.00    +0.000 C 
ENDROOT
BRANCH   1   4
ATOM      2  C   UNL     1       5.704   5.770  15.864  0.00  0.00    +0.000 C 
ATOM      3  O   UNL     1       5.889   6.958  16.105  0.00  0.00    +0.000 OA
ATOM      4  N   UNL     1       4.936   4.959  16.670  0.00  0.00    +0.000 N 
ATOM      5  H   UNL     1       4.656   4.049  16.336  0.00  0.00    +0.000 HD
BRANCH   2  10
ATOM      6  C   UNL     1       6.041   3.670  12.732  0.00  0.00    +0.000 A 
ATOM      7  C   UNL     1       7.278   4.107  12.240  0.00  0.00    +0.000 A 
ATOM      8  C   UNL     1       8.010   5.080  12.923  0.00  0.00    +0.000 A 
ATOM      9  C   UNL     1       7.515   5.619  14.111  0.00  0.00    +0.000 A 
ATOM     10  C   UNL     1       6.303   5.156  14.642  0.00  0.00    +0.000 A 
ATOM     11  C   UNL     1       5.568   4.177  13.950  0.00  0.00    +0.000 A 
BRANCH   6  13
ATOM     12  N   UNL     1       5.690   1.619  11.521  0.00  0.00    +0.000 NA
ATOM     13  C   UNL     1       5.205   2.765  11.879  0.00  0.00    +0.000 C 
ATOM     14  N   UNL     1       3.966   3.129  11.448  0.00  0.00    +0.000 N 
ATOM     15  H   UNL     1       5.039   1.145  10.893  0.00  0.00    +0.000 HD
ATOM     16  H   UNL     1       3.382   2.392  11.072  0.00  0.00    +0.000 HD
ATOM     17  H   UNL     1       3.440   3.774  12.026  0.00  0.00    +0.000 HD
ENDBRANCH   6  13
ENDBRANCH   2  10
ENDBRANCH   1   4
BRANCH   1  18
ATOM     18  C   UNL     1       3.182   6.158  18.126  0.00  0.00    +0.000 C 
ATOM     19  O   UNL     1       2.200   5.916  17.419  0.00  0.00    +0.000 OA
ATOM     20  N   UNL     1       3.071   7.037  19.185  0.00  0.00    +0.000 N 
ATOM     21  H   UNL     1       3.868   7.151  19.814  0.00  0.00    +0.000 HD
BRANCH  20  22
ATOM     22  C   UNL     1       1.824   7.741  19.405  0.00  0.00    +0.000 C 
BRANCH  22  23
ATOM     23  C   UNL     1       1.913   9.278  19.357  0.00  0.00    +0.000 C 
ATOM     24  C   UNL     1       1.468   9.798  17.973  0.00  0.00    +0.000 C 
ATOM     25  C   UNL     1      -0.037   9.634  17.730  0.00  0.00    +0.000 C 
ATOM     26  C   UNL     1      -0.904  10.263  18.837  0.00  0.00    +0.000 C 
ATOM     27  C   UNL     1      -0.428   9.802  20.230  0.00  0.00    +0.000 C 
ATOM     28  C   UNL     1       1.078   9.975  20.440  0.00  0.00    +0.000 C 
BRANCH  26  29
ATOM     29  C   UNL     1      -0.948  11.798  18.678  0.00  0.00    +0.000 C 
BRANCH  29  30
ATOM     30  N   UNL     1      -1.491  12.206  17.387  0.00  0.00    +0.000 NA
ATOM     31  H   UNL     1      -2.093  13.019  17.508  0.00  0.00    +0.000 HD
ATOM     32  H   UNL     1      -2.079  11.463  17.015  0.00  0.00    +0.000 HD
ENDBRANCH  29  30
ENDBRANCH  26  29
ENDBRANCH  22  23
ENDBRANCH  20  22
ENDBRANCH   1  18
BRANCH   1  33
ATOM     33  C   UNL     1       4.507   4.131  19.003  0.00  0.00    +0.000 C 
BRANCH  33  34
ATOM     34  C   UNL     1       3.164   3.526  19.371  0.00  0.00    +0.000 A 
ATOM     35  C   UNL     1       2.462   2.701  18.482  0.00  0.00    +0.000 A 
ATOM     36  C   UNL     1       1.214   2.173  18.836  0.00  0.00    +0.000 A 
ATOM     37  C   UNL     1       0.657   2.455  20.082  0.00  0.00    +0.000 A 
ATOM     38  C   UNL     1       1.358   3.242  20.987  0.00  0.00    +0.000 A 
ATOM     39  C   UNL     1       2.606   3.760  20.639  0.00  0.00    +0.000 A 
ENDBRANCH  33  34
ENDBRANCH   1  33
TORSDOF 10
ENDMDL
MODEL 9
REMARK VINA RESULT:      -8.0      4.783      7.728
REMARK  Name = 
REMARK  10 active torsions:
REMARK  status: ('A' for Active; 'I' for Inactive)
REMARK    1  A    between atoms: C_2  and  C_4
REMARK    2  A    between atoms: C_8  and  C_9
REMARK    3  A    between atoms: N_11  and  C_12
REMARK    4  A    between atoms: C_12  and  C_13
REMARK    5  A    between atoms: C_12  and  C_20
REMARK    6  A    between atoms: C_13  and  C_14
REMARK    7  A    between atoms: N_22  and  C_23
REMARK    8  A    between atoms: C_23  and  C_24
REMARK    9  A    between atoms: C_27  and  C_28
REMARK   10  A    between atoms: C_28  and  N_29
REMARK                            x       y       z     vdW  Elec       q    Type
REMARK                         _______ _______ _______ _____ _____    ______ ____
ROOT
ATOM      1  C   UNL     1       6.754   6.500  17.358  0.00  0.00    +0.000 C 
ENDROOT
BRANCH   1   4
ATOM      2  C   UNL     1       4.295   6.422  17.855  0.00  0.00    +0.000 C 
ATOM      3  O   UNL     1       4.015   7.272  17.018  0.00  0.00    +0.000 OA
ATOM      4  N   UNL     1       5.595   6.090  18.172  0.00  0.00    +0.000 N 
ATOM      5  H   UNL     1       5.779   5.533  18.992  0.00  0.00    +0.000 HD
BRANCH   2  10
ATOM      6  C   UNL     1       1.942   3.669  18.961  0.00  0.00    +0.000 A 
ATOM      7  C   UNL     1       1.317   4.269  20.062  0.00  0.00    +0.000 A 
ATOM      8  C   UNL     1       1.650   5.568  20.447  0.00  0.00    +0.000 A 
ATOM      9  C   UNL     1       2.608   6.284  19.729  0.00  0.00    +0.000 A 
ATOM     10  C   UNL     1       3.207   5.716  18.595  0.00  0.00    +0.000 A 
ATOM     11  C   UNL     1       2.869   4.406  18.211  0.00  0.00    +0.000 A 
BRANCH   6  13
ATOM     12  N   UNL     1       2.705   1.434  18.490  0.00  0.00    +0.000 NA
ATOM     13  C   UNL     1       1.692   2.216  18.694  0.00  0.00    +0.000 C 
ATOM     14  N   UNL     1       0.432   1.704  18.631  0.00  0.00    +0.000 N 
ATOM     15  H   UNL     1       2.380   0.495  18.259  0.00  0.00    +0.000 HD
ATOM     16  H   UNL     1       0.349   0.697  18.671  0.00  0.00    +0.000 HD
ATOM     17  H   UNL     1      -0.289   2.168  19.173  0.00  0.00    +0.000 HD
ENDBRANCH   6  13
ENDBRANCH   2  10
ENDBRANCH   1   4
BRANCH   1  18
ATOM     18  C   UNL     1       7.769   7.465  18.035  0.00  0.00    +0.000 C 
ATOM     19  O   UNL     1       8.525   7.102  18.940  0.00  0.00    +0.000 OA
ATOM     20  N   UNL     1       7.942   8.700  17.443  0.00  0.00    +0.000 N 
ATOM     21  H   UNL     1       7.367   8.942  16.634  0.00  0.00    +0.000 HD
BRANCH  20  22
ATOM     22  C   UNL     1       8.954   9.603  17.952  0.00  0.00    +0.000 C 
BRANCH  22  23
ATOM     23  C   UNL     1       8.426  10.905  18.582  0.00  0.00    +0.000 C 
ATOM     24  C   UNL     1       9.096  11.149  19.950  0.00  0.00    +0.000 C 
ATOM     25  C   UNL     1      10.579  11.522  19.831  0.00  0.00    +0.000 C 
ATOM     26  C   UNL     1      10.831  12.719  18.895  0.00  0.00    +0.000 C 
ATOM     27  C   UNL     1      10.113  12.517  17.545  0.00  0.00    +0.000 C 
ATOM     28  C   UNL     1       8.637  12.143  17.699  0.00  0.00    +0.000 C 
BRANCH  26  29
ATOM     29  C   UNL     1      10.457  14.040  19.600  0.00  0.00    +0.000 C 
BRANCH  29  30
ATOM     30  N   UNL     1      10.662  13.976  21.044  0.00  0.00    +0.000 NA
ATOM     31  H   UNL     1      11.249  14.752  21.344  0.00  0.00    +0.000 HD
ATOM     32  H   UNL     1      11.168  13.122  21.278  0.00  0.00    +0.000 HD
ENDBRANCH  29  30
ENDBRANCH  26  29
ENDBRANCH  22  23
ENDBRANCH  20  22
ENDBRANCH   1  18
BRANCH   1  33
ATOM     33  C   UNL     1       7.467   5.278  16.708  0.00  0.00    +0.000 C 
BRANCH  33  34
ATOM     34  C   UNL     1       6.932   4.786  15.375  0.00  0.00    +0.000 A 
ATOM     35  C   UNL     1       7.575   5.087  14.168  0.00  0.00    +0.000 A 
ATOM     36  C   UNL     1       7.049   4.640  12.949  0.00  0.00    +0.000 A 
ATOM     37  C   UNL     1       5.881   3.882  12.922  0.00  0.00    +0.000 A 
ATOM     38  C   UNL     1       5.252   3.544  14.114  0.00  0.00    +0.000 A 
ATOM     39  C   UNL     1       5.780   3.981  15.328  0.00  0.00    +0.000 A 
ENDBRANCH  33  34
ENDBRANCH   1  33
TORSDOF 10
ENDMDL
