MODEL 1
REMARK VINA RESULT:      -7.6      0.000      0.000
REMARK  Name = 
REMARK  10 active torsions:
REMARK  status: ('A' for Active; 'I' for Inactive)
REMARK    1  A    between atoms: C_1  and  C_2
REMARK    2  A    between atoms: C_2  and  C_22
REMARK    3  A    between atoms: N_3  and  O_4
REMARK    4  A    between atoms: O_4  and  C_5
REMARK    5  A    between atoms: C_5  and  C_6
REMARK    6  A    between atoms: C_6  and  O_7
REMARK    7  A    between atoms: O_7  and  C_8
REMARK    8  A    between atoms: C_11  and  C_12
REMARK    9  A    between atoms: C_12  and  C_13
REMARK   10  A    between atoms: C_25  and  C_26
REMARK                            x       y       z     vdW  Elec       q    Type
REMARK                         _______ _______ _______ _____ _____    ______ ____
ROOT
ATOM      1  C   UNL     1       8.273   9.713  17.783  0.00  0.00    +0.000 C 
ENDROOT
BRANCH   1   2
ATOM      2  O   UNL     1       9.374  10.216  18.542  0.00  0.00    +0.000 OA
BRANCH   2   5
ATOM      3  C   UNL     1      11.206  11.792  19.667  0.00  0.00    +0.000 C 
ATOM      4  C   UNL     1       9.781  11.681  20.179  0.00  0.00    +0.000 C 
ATOM      5  N   UNL     1       8.883  10.893  19.662  0.00  0.00    +0.000 NA
BRANCH   4   6
ATOM      6  C   UNL     1       9.403  12.508  21.373  0.00  0.00    +0.000 A 
ATOM      7  C   UNL     1       9.738  13.859  21.468  0.00  0.00    +0.000 A 
ATOM      8  C   UNL     1       9.401  14.593  22.613  0.00  0.00    +0.000 A 
ATOM      9  C   UNL     1       8.703  14.011  23.686  0.00  0.00    +0.000 A 
ATOM     10  C   UNL     1       8.355  12.656  23.562  0.00  0.00    +0.000 A 
ATOM     11  C   UNL     1       8.703  11.912  22.428  0.00  0.00    +0.000 A 
BRANCH   9  12
ATOM     12  C   UNL     1       8.362  14.797  24.894  0.00  0.00    +0.000 A 
ATOM     13  C   UNL     1       9.240  15.753  25.422  0.00  0.00    +0.000 A 
ATOM     14  C   UNL     1       8.883  16.452  26.566  0.00  0.00    +0.000 A 
ATOM     15  N   UNL     1       7.716  16.280  27.217  0.00  0.00    +0.000 NA
ATOM     16  C   UNL     1       6.873  15.365  26.701  0.00  0.00    +0.000 A 
ATOM     17  C   UNL     1       7.146  14.611  25.569  0.00  0.00    +0.000 A 
ENDBRANCH   9  12
ENDBRANCH   4   6
ENDBRANCH   2   5
ENDBRANCH   1   2
BRANCH   1  18
ATOM     18  C   UNL     1       8.147   8.225  18.073  0.00  0.00    +0.000 C 
BRANCH  18  19
ATOM     19  O   UNL     1       7.701   7.537  16.898  0.00  0.00    +0.000 OA
BRANCH  19  20
ATOM     20  C   UNL     1       6.659   6.666  17.071  0.00  0.00    +0.000 A 
ATOM     21  C   UNL     1       7.007   5.397  17.539  0.00  0.00    +0.000 A 
ATOM     22  C   UNL     1       6.025   4.428  17.772  0.00  0.00    +0.000 A 
ATOM     23  C   UNL     1       4.674   4.723  17.551  0.00  0.00    +0.000 A 
ATOM     24  C   UNL     1       4.333   5.993  17.076  0.00  0.00    +0.000 A 
ATOM     25  C   UNL     1       5.316   6.958  16.846  0.00  0.00    +0.000 A 
BRANCH  23  26
ATOM     26  C   UNL     1       3.592   3.706  17.839  0.00  0.00    +0.000 C 
BRANCH  26  27
ATOM     27  C   UNL     1       2.461   4.174  18.765  0.00  0.00    +0.000 C 
ATOM     28  S   UNL     1       2.985   4.602  20.463  0.00  0.00    +0.000 S 
ATOM     29  C   UNL     1       1.985   3.363  21.180  0.00  0.00    +0.000 C 
ATOM     30  O   UNL     1       2.009   3.072  22.362  0.00  0.00    +0.000 OA
ATOM     31  N   UNL     1       1.193   2.794  20.242  0.00  0.00    +0.000 N 
ATOM     32  C   UNL     1       1.392   3.116  18.934  0.00  0.00    +0.000 C 
ATOM     33  O   UNL     1       0.772   2.598  18.015  0.00  0.00    +0.000 OA
ATOM     34  H   UNL     1       0.554   2.061  20.501  0.00  0.00    +0.000 HD
ENDBRANCH  26  27
ENDBRANCH  23  26
ENDBRANCH  19  20
ENDBRANCH  18  19
ENDBRANCH   1  18
TORSDOF 9
ENDMDL
MODEL 2
REMARK VINA RESULT:      -7.4      4.513      9.098
REMARK  Name = 
REMARK  10 active torsions:
REMARK  status: ('A' for Active; 'I' for Inactive)
REMARK    1  A    between atoms: C_1  and  C_2
REMARK    2  A    between atoms: C_2  and  C_22
REMARK    3  A    between atoms: N_3  and  O_4
REMARK    4  A    between atoms: O_4  and  C_5
REMARK    5  A    between atoms: C_5  and  C_6
REMARK    6  A    between atoms: C_6  and  O_7
REMARK    7  A    between atoms: O_7  and  C_8
REMARK    8  A    between atoms: C_11  and  C_12
REMARK    9  A    between atoms: C_12  and  C_13
REMARK   10  A    between atoms: C_25  and  C_26
REMARK                            x       y       z     vdW  Elec       q    Type
REMARK                         _______ _______ _______ _____ _____    ______ ____
ROOT
ATOM      1  C   UNL     1       4.932   3.832  19.653  0.00  0.00    +0.000 C 
ENDROOT
BRANCH   1   2
ATOM      2  O   UNL     1       3.517   4.029  19.663  0.00  0.00    +0.000 OA
BRANCH   2   5
ATOM      3  C   UNL     1       1.975   5.064  17.751  0.00  0.00    +0.000 C 
ATOM      4  C   UNL     1       2.468   5.865  18.944  0.00  0.00    +0.000 C 
ATOM      5  N   UNL     1       3.247   5.384  19.869  0.00  0.00    +0.000 NA
BRANCH   4   6
ATOM      6  C   UNL     1       2.054   7.304  19.037  0.00  0.00    +0.000 A 
ATOM      7  C   UNL     1       2.070   8.147  17.924  0.00  0.00    +0.000 A 
ATOM      8  C   UNL     1       1.712   9.495  18.052  0.00  0.00    +0.000 A 
ATOM      9  C   UNL     1       1.308  10.039  19.284  0.00  0.00    +0.000 A 
ATOM     10  C   UNL     1       1.278   9.171  20.387  0.00  0.00    +0.000 A 
ATOM     11  C   UNL     1       1.650   7.827  20.270  0.00  0.00    +0.000 A 
BRANCH   9  12
ATOM     12  C   UNL     1       0.941  11.469  19.407  0.00  0.00    +0.000 A 
ATOM     13  C   UNL     1       0.049  11.918  20.391  0.00  0.00    +0.000 A 
ATOM     14  C   UNL     1      -0.277  13.265  20.455  0.00  0.00    +0.000 A 
ATOM     15  N   UNL     1       0.223  14.199  19.624  0.00  0.00    +0.000 NA
ATOM     16  C   UNL     1       1.085  13.763  18.684  0.00  0.00    +0.000 A 
ATOM     17  C   UNL     1       1.463  12.437  18.535  0.00  0.00    +0.000 A 
ENDBRANCH   9  12
ENDBRANCH   4   6
ENDBRANCH   2   5
ENDBRANCH   1   2
BRANCH   1  18
ATOM     18  C   UNL     1       5.431   4.104  18.242  0.00  0.00    +0.000 C 
BRANCH  18  19
ATOM     19  O   UNL     1       6.827   4.431  18.275  0.00  0.00    +0.000 OA
BRANCH  19  20
ATOM     20  C   UNL     1       7.134   5.761  18.175  0.00  0.00    +0.000 A 
ATOM     21  C   UNL     1       8.143   6.210  19.030  0.00  0.00    +0.000 A 
ATOM     22  C   UNL     1       8.556   7.547  19.005  0.00  0.00    +0.000 A 
ATOM     23  C   UNL     1       7.972   8.452  18.110  0.00  0.00    +0.000 A 
ATOM     24  C   UNL     1       6.958   7.996  17.261  0.00  0.00    +0.000 A 
ATOM     25  C   UNL     1       6.549   6.661  17.288  0.00  0.00    +0.000 A 
BRANCH  23  26
ATOM     26  C   UNL     1       8.434   9.890  18.034  0.00  0.00    +0.000 C 
BRANCH  26  27
ATOM     27  C   UNL     1       9.573  10.279  18.985  0.00  0.00    +0.000 C 
ATOM     28  S   UNL     1       9.043  10.748  20.669  0.00  0.00    +0.000 S 
ATOM     29  C   UNL     1       9.681  12.366  20.518  0.00  0.00    +0.000 C 
ATOM     30  O   UNL     1       9.508  13.244  21.344  0.00  0.00    +0.000 OA
ATOM     31  N   UNL     1      10.387  12.489  19.371  0.00  0.00    +0.000 N 
ATOM     32  C   UNL     1      10.359  11.467  18.471  0.00  0.00    +0.000 C 
ATOM     33  O   UNL     1      10.909  11.520  17.379  0.00  0.00    +0.000 OA
ATOM     34  H   UNL     1      10.823  13.367  19.140  0.00  0.00    +0.000 HD
ENDBRANCH  26  27
ENDBRANCH  23  26
ENDBRANCH  19  20
ENDBRANCH  18  19
ENDBRANCH   1  18
TORSDOF 9
ENDMDL
MODEL 3
REMARK VINA RESULT:      -7.4      7.913     12.270
REMARK  Name = 
REMARK  10 active torsions:
REMARK  status: ('A' for Active; 'I' for Inactive)
REMARK    1  A    between atoms: C_1  and  C_2
REMARK    2  A    between atoms: C_2  and  C_22
REMARK    3  A    between atoms: N_3  and  O_4
REMARK    4  A    between atoms: O_4  and  C_5
REMARK    5  A    between atoms: C_5  and  C_6
REMARK    6  A    between atoms: C_6  and  O_7
REMARK    7  A    between atoms: O_7  and  C_8
REMARK    8  A    between atoms: C_11  and  C_12
REMARK    9  A    between atoms: C_12  and  C_13
REMARK   10  A    between atoms: C_25  and  C_26
REMARK                            x       y       z     vdW  Elec       q    Type
REMARK                         _______ _______ _______ _____ _____    ______ ____
ROOT
ATOM      1  C   UNL     1       0.876   9.025  20.160  0.00  0.00    +0.000 C 
ENDROOT
BRANCH   1   2
ATOM      2  O   UNL     1       1.660   7.843  20.332  0.00  0.00    +0.000 OA
BRANCH   2   5
ATOM      3  C   UNL     1       2.661   5.375  20.223  0.00  0.00    +0.000 C 
ATOM      4  C   UNL     1       2.860   6.400  19.120  0.00  0.00    +0.000 C 
ATOM      5  N   UNL     1       2.406   7.619  19.173  0.00  0.00    +0.000 NA
BRANCH   4   6
ATOM      6  C   UNL     1       3.658   5.986  17.919  0.00  0.00    +0.000 A 
ATOM      7  C   UNL     1       4.353   6.915  17.142  0.00  0.00    +0.000 A 
ATOM      8  C   UNL     1       5.059   6.499  16.006  0.00  0.00    +0.000 A 
ATOM      9  C   UNL     1       5.112   5.148  15.621  0.00  0.00    +0.000 A 
ATOM     10  C   UNL     1       4.424   4.226  16.427  0.00  0.00    +0.000 A 
ATOM     11  C   UNL     1       3.704   4.636  17.555  0.00  0.00    +0.000 A 
BRANCH   9  12
ATOM     12  C   UNL     1       5.854   4.724  14.412  0.00  0.00    +0.000 A 
ATOM     13  C   UNL     1       5.330   3.778  13.519  0.00  0.00    +0.000 A 
ATOM     14  C   UNL     1       6.071   3.401  12.409  0.00  0.00    +0.000 A 
ATOM     15  N   UNL     1       7.287   3.899  12.113  0.00  0.00    +0.000 NA
ATOM     16  C   UNL     1       7.784   4.812  12.970  0.00  0.00    +0.000 A 
ATOM     17  C   UNL     1       7.122   5.244  14.111  0.00  0.00    +0.000 A 
ENDBRANCH   9  12
ENDBRANCH   4   6
ENDBRANCH   2   5
ENDBRANCH   1   2
BRANCH   1  18
ATOM     18  C   UNL     1       0.419   9.486  21.537  0.00  0.00    +0.000 C 
BRANCH  18  19
ATOM     19  O   UNL     1       0.818  10.846  21.751  0.00  0.00    +0.000 OA
BRANCH  19  20
ATOM     20  C   UNL     1      -0.154  11.792  21.571  0.00  0.00    +0.000 A 
ATOM     21  C   UNL     1      -0.810  12.208  22.731  0.00  0.00    +0.000 A 
ATOM     22  C   UNL     1      -1.811  13.186  22.674  0.00  0.00    +0.000 A 
ATOM     23  C   UNL     1      -2.159  13.771  21.450  0.00  0.00    +0.000 A 
ATOM     24  C   UNL     1      -1.502  13.345  20.291  0.00  0.00    +0.000 A 
ATOM     25  C   UNL     1      -0.504  12.370  20.352  0.00  0.00    +0.000 A 
BRANCH  23  26
ATOM     26  C   UNL     1      -3.204  14.861  21.371  0.00  0.00    +0.000 C 
BRANCH  26  27
ATOM     27  C   UNL     1      -4.621  14.465  21.808  0.00  0.00    +0.000 C 
ATOM     28  S   UNL     1      -4.885  14.426  23.616  0.00  0.00    +0.000 S 
ATOM     29  C   UNL     1      -5.267  12.723  23.615  0.00  0.00    +0.000 C 
ATOM     30  O   UNL     1      -5.428  12.063  24.625  0.00  0.00    +0.000 OA
ATOM     31  N   UNL     1      -5.361  12.261  22.346  0.00  0.00    +0.000 N 
ATOM     32  C   UNL     1      -4.998  13.082  21.322  0.00  0.00    +0.000 C 
ATOM     33  O   UNL     1      -4.984  12.726  20.151  0.00  0.00    +0.000 OA
ATOM     34  H   UNL     1      -5.579  11.293  22.178  0.00  0.00    +0.000 HD
ENDBRANCH  26  27
ENDBRANCH  23  26
ENDBRANCH  19  20
ENDBRANCH  18  19
ENDBRANCH   1  18
TORSDOF 9
ENDMDL
MODEL 4
REMARK VINA RESULT:      -7.4      5.345     10.408
REMARK  Name = 
REMARK  10 active torsions:
REMARK  status: ('A' for Active; 'I' for Inactive)
REMARK    1  A    between atoms: C_1  and  C_2
REMARK    2  A    between atoms: C_2  and  C_22
REMARK    3  A    between atoms: N_3  and  O_4
REMARK    4  A    between atoms: O_4  and  C_5
REMARK    5  A    between atoms: C_5  and  C_6
REMARK    6  A    between atoms: C_6  and  O_7
REMARK    7  A    between atoms: O_7  and  C_8
REMARK    8  A    between atoms: C_11  and  C_12
REMARK    9  A    between atoms: C_12  and  C_13
REMARK   10  A    between atoms: C_25  and  C_26
REMARK                            x       y       z     vdW  Elec       q    Type
REMARK                         _______ _______ _______ _____ _____    ______ ____
ROOT
ATOM      1  C   UNL     1       7.374   6.422  17.108  0.00  0.00    +0.000 C 
ENDROOT
BRANCH   1   2
ATOM      2  O   UNL     1       6.073   5.879  17.340  0.00  0.00    +0.000 OA
BRANCH   2   5
ATOM      3  C   UNL     1       3.572   5.033  17.708  0.00  0.00    +0.000 C 
ATOM      4  C   UNL     1       3.996   6.477  17.906  0.00  0.00    +0.000 C 
ATOM      5  N   UNL     1       5.205   6.913  17.700  0.00  0.00    +0.000 NA
BRANCH   4   6
ATOM      6  C   UNL     1       2.946   7.460  18.333  0.00  0.00    +0.000 A 
ATOM      7  C   UNL     1       2.570   8.533  17.523  0.00  0.00    +0.000 A 
ATOM      8  C   UNL     1       1.612   9.453  17.966  0.00  0.00    +0.000 A 
ATOM      9  C   UNL     1       0.984   9.322  19.218  0.00  0.00    +0.000 A 
ATOM     10  C   UNL     1       1.359   8.225  20.009  0.00  0.00    +0.000 A 
ATOM     11  C   UNL     1       2.328   7.310  19.579  0.00  0.00    +0.000 A 
BRANCH   9  12
ATOM     12  C   UNL     1      -0.021  10.308  19.678  0.00  0.00    +0.000 A 
ATOM     13  C   UNL     1       0.022  10.856  20.968  0.00  0.00    +0.000 A 
ATOM     14  C   UNL     1      -0.952  11.763  21.359  0.00  0.00    +0.000 A 
ATOM     15  N   UNL     1      -1.957  12.174  20.562  0.00  0.00    +0.000 NA
ATOM     16  C   UNL     1      -1.990  11.650  19.321  0.00  0.00    +0.000 A 
ATOM     17  C   UNL     1      -1.067  10.730  18.845  0.00  0.00    +0.000 A 
ENDBRANCH   9  12
ENDBRANCH   4   6
ENDBRANCH   2   5
ENDBRANCH   1   2
BRANCH   1  18
ATOM     18  C   UNL     1       7.313   7.916  17.391  0.00  0.00    +0.000 C 
BRANCH  18  19
ATOM     19  O   UNL     1       8.359   8.281  18.300  0.00  0.00    +0.000 OA
BRANCH  19  20
ATOM     20  C   UNL     1       8.603   9.622  18.427  0.00  0.00    +0.000 A 
ATOM     21  C   UNL     1       9.323   9.997  19.563  0.00  0.00    +0.000 A 
ATOM     22  C   UNL     1       9.648  11.339  19.791  0.00  0.00    +0.000 A 
ATOM     23  C   UNL     1       9.266  12.326  18.873  0.00  0.00    +0.000 A 
ATOM     24  C   UNL     1       8.541  11.943  17.740  0.00  0.00    +0.000 A 
ATOM     25  C   UNL     1       8.219  10.603  17.515  0.00  0.00    +0.000 A 
BRANCH  23  26
ATOM     26  C   UNL     1       9.647  13.775  19.076  0.00  0.00    +0.000 C 
BRANCH  26  27
ATOM     27  C   UNL     1       9.157  14.754  18.000  0.00  0.00    +0.000 C 
ATOM     28  S   UNL     1      10.357  16.053  17.539  0.00  0.00    +0.000 S 
ATOM     29  C   UNL     1       9.301  17.340  18.062  0.00  0.00    +0.000 C 
ATOM     30  O   UNL     1       9.632  18.512  18.112  0.00  0.00    +0.000 OA
ATOM     31  N   UNL     1       8.084  16.849  18.390  0.00  0.00    +0.000 N 
ATOM     32  C   UNL     1       7.914  15.498  18.435  0.00  0.00    +0.000 C 
ATOM     33  O   UNL     1       6.870  14.966  18.789  0.00  0.00    +0.000 OA
ATOM     34  H   UNL     1       7.360  17.471  18.710  0.00  0.00    +0.000 HD
ENDBRANCH  26  27
ENDBRANCH  23  26
ENDBRANCH  19  20
ENDBRANCH  18  19
ENDBRANCH   1  18
TORSDOF 9
ENDMDL
MODEL 5
REMARK VINA RESULT:      -7.4      6.384      8.080
REMARK  Name = 
REMARK  10 active torsions:
REMARK  status: ('A' for Active; 'I' for Inactive)
REMARK    1  A    between atoms: C_1  and  C_2
REMARK    2  A    between atoms: C_2  and  C_22
REMARK    3  A    between atoms: N_3  and  O_4
REMARK    4  A    between atoms: O_4  and  C_5
REMARK    5  A    between atoms: C_5  and  C_6
REMARK    6  A    between atoms: C_6  and  O_7
REMARK    7  A    between atoms: O_7  and  C_8
REMARK    8  A    between atoms: C_11  and  C_12
REMARK    9  A    between atoms: C_12  and  C_13
REMARK   10  A    between atoms: C_25  and  C_26
REMARK                            x       y       z     vdW  Elec       q    Type
REMARK                         _______ _______ _______ _____ _____    ______ ____
ROOT
ATOM      1  C   UNL     1       0.474  10.098  18.185  0.00  0.00    +0.000 C 
ENDROOT
BRANCH   1   2
ATOM      2  O   UNL     1      -0.328   9.881  19.347  0.00  0.00    +0.000 OA
BRANCH   2   5
ATOM      3  C   UNL     1       0.021   9.847  21.990  0.00  0.00    +0.000 C 
ATOM      4  C   UNL     1      -0.408  11.088  21.225  0.00  0.00    +0.000 C 
ATOM      5  N   UNL     1      -0.614  11.113  19.940  0.00  0.00    +0.000 NA
BRANCH   4   6
ATOM      6  C   UNL     1      -0.638  12.346  22.010  0.00  0.00    +0.000 A 
ATOM      7  C   UNL     1       0.119  13.498  21.791  0.00  0.00    +0.000 A 
ATOM      8  C   UNL     1      -0.097  14.645  22.566  0.00  0.00    +0.000 A 
ATOM      9  C   UNL     1      -1.085  14.686  23.566  0.00  0.00    +0.000 A 
ATOM     10  C   UNL     1      -1.850  13.524  23.758  0.00  0.00    +0.000 A 
ATOM     11  C   UNL     1      -1.629  12.369  22.998  0.00  0.00    +0.000 A 
BRANCH   9  12
ATOM     12  C   UNL     1      -1.296  15.902  24.385  0.00  0.00    +0.000 A 
ATOM     13  C   UNL     1      -1.771  17.095  23.821  0.00  0.00    +0.000 A 
ATOM     14  C   UNL     1      -1.937  18.213  24.626  0.00  0.00    +0.000 A 
ATOM     15  N   UNL     1      -1.677  18.232  25.947  0.00  0.00    +0.000 NA
ATOM     16  C   UNL     1      -1.227  17.082  26.485  0.00  0.00    +0.000 A 
ATOM     17  C   UNL     1      -1.020  15.917  25.760  0.00  0.00    +0.000 A 
ENDBRANCH   9  12
ENDBRANCH   4   6
ENDBRANCH   2   5
ENDBRANCH   1   2
BRANCH   1  18
ATOM     18  C   UNL     1       1.836   9.467  18.433  0.00  0.00    +0.000 C 
BRANCH  18  19
ATOM     19  O   UNL     1       1.691   8.307  19.262  0.00  0.00    +0.000 OA
BRANCH  19  20
ATOM     20  C   UNL     1       2.516   7.254  18.970  0.00  0.00    +0.000 A 
ATOM     21  C   UNL     1       3.132   7.303  17.718  0.00  0.00    +0.000 A 
ATOM     22  C   UNL     1       4.012   6.291  17.317  0.00  0.00    +0.000 A 
ATOM     23  C   UNL     1       4.297   5.220  18.172  0.00  0.00    +0.000 A 
ATOM     24  C   UNL     1       3.670   5.175  19.422  0.00  0.00    +0.000 A 
ATOM     25  C   UNL     1       2.794   6.186  19.820  0.00  0.00    +0.000 A 
BRANCH  23  26
ATOM     26  C   UNL     1       5.279   4.140  17.777  0.00  0.00    +0.000 C 
BRANCH  26  27
ATOM     27  C   UNL     1       6.738   4.586  17.617  0.00  0.00    +0.000 C 
ATOM     28  S   UNL     1       7.283   5.872  18.796  0.00  0.00    +0.000 S 
ATOM     29  C   UNL     1       7.625   7.019  17.526  0.00  0.00    +0.000 C 
ATOM     30  O   UNL     1       7.929   8.181  17.724  0.00  0.00    +0.000 OA
ATOM     31  N   UNL     1       7.508   6.429  16.313  0.00  0.00    +0.000 N 
ATOM     32  C   UNL     1       7.006   5.165  16.245  0.00  0.00    +0.000 C 
ATOM     33  O   UNL     1       6.800   4.582  15.189  0.00  0.00    +0.000 OA
ATOM     34  H   UNL     1       7.678   6.963  15.476  0.00  0.00    +0.000 HD
ENDBRANCH  26  27
ENDBRANCH  23  26
ENDBRANCH  19  20
ENDBRANCH  18  19
ENDBRANCH   1  18
TORSDOF 9
ENDMDL
MODEL 6
REMARK VINA RESULT:      -7.4      6.298      8.190
REMARK  Name = 
REMARK  10 active torsions:
REMARK  status: ('A' for Active; 'I' for Inactive)
REMARK    1  A    between atoms: C_1  and  C_2
REMARK    2  A    between atoms: C_2  and  C_22
REMARK    3  A    between atoms: N_3  and  O_4
REMARK    4  A    between atoms: O_4  and  C_5
REMARK    5  A    between atoms: C_5  and  C_6
REMARK    6  A    between atoms: C_6  and  O_7
REMARK    7  A    between atoms: O_7  and  C_8
REMARK    8  A    between atoms: C_11  and  C_12
REMARK    9  A    between atoms: C_12  and  C_13
REMARK   10  A    between atoms: C_25  and  C_26
REMARK                            x       y       z     vdW  Elec       q    Type
REMARK                         _______ _______ _______ _____ _____    ______ ____
ROOT
ATOM      1  C   UNL     1       2.114   5.785  20.966  0.00  0.00    +0.000 C 
ENDROOT
BRANCH   1   2
ATOM      2  O   UNL     1       2.030   7.058  20.322  0.00  0.00    +0.000 OA
BRANCH   2   5
ATOM      3  C   UNL     1       1.199   9.256  19.064  0.00  0.00    +0.000 C 
ATOM      4  C   UNL     1       0.979   9.016  20.548  0.00  0.00    +0.000 C 
ATOM      5  N   UNL     1       1.407   7.964  21.183  0.00  0.00    +0.000 NA
BRANCH   4   6
ATOM      6  C   UNL     1       0.255  10.075  21.326  0.00  0.00    +0.000 A 
ATOM      7  C   UNL     1      -0.506   9.767  22.455  0.00  0.00    +0.000 A 
ATOM      8  C   UNL     1      -1.199  10.775  23.138  0.00  0.00    +0.000 A 
ATOM      9  C   UNL     1      -1.139  12.120  22.731  0.00  0.00    +0.000 A 
ATOM     10  C   UNL     1      -0.352  12.413  21.606  0.00  0.00    +0.000 A 
ATOM     11  C   UNL     1       0.331  11.408  20.909  0.00  0.00    +0.000 A 
BRANCH   9  12
ATOM     12  C   UNL     1      -1.884  13.173  23.457  0.00  0.00    +0.000 A 
ATOM     13  C   UNL     1      -1.263  14.357  23.879  0.00  0.00    +0.000 A 
ATOM     14  C   UNL     1      -1.999  15.308  24.571  0.00  0.00    +0.000 A 
ATOM     15  N   UNL     1      -3.306  15.176  24.865  0.00  0.00    +0.000 NA
ATOM     16  C   UNL     1      -3.901  14.040  24.452  0.00  0.00    +0.000 A 
ATOM     17  C   UNL     1      -3.246  13.029  23.763  0.00  0.00    +0.000 A 
ENDBRANCH   9  12
ENDBRANCH   4   6
ENDBRANCH   2   5
ENDBRANCH   1   2
BRANCH   1  18
ATOM     18  C   UNL     1       1.036   4.890  20.373  0.00  0.00    +0.000 C 
BRANCH  18  19
ATOM     19  O   UNL     1       1.595   3.614  20.036  0.00  0.00    +0.000 OA
BRANCH  19  20
ATOM     20  C   UNL     1       2.508   3.609  19.016  0.00  0.00    +0.000 A 
ATOM     21  C   UNL     1       2.314   4.581  18.031  0.00  0.00    +0.000 A 
ATOM     22  C   UNL     1       3.196   4.685  16.949  0.00  0.00    +0.000 A 
ATOM     23  C   UNL     1       4.294   3.823  16.845  0.00  0.00    +0.000 A 
ATOM     24  C   UNL     1       4.478   2.848  17.832  0.00  0.00    +0.000 A 
ATOM     25  C   UNL     1       3.597   2.748  18.911  0.00  0.00    +0.000 A 
BRANCH  23  26
ATOM     26  C   UNL     1       5.285   3.947  15.709  0.00  0.00    +0.000 C 
BRANCH  26  27
ATOM     27  C   UNL     1       6.447   4.923  15.936  0.00  0.00    +0.000 C 
ATOM     28  S   UNL     1       7.584   4.463  17.291  0.00  0.00    +0.000 S 
ATOM     29  C   UNL     1       7.234   5.913  18.198  0.00  0.00    +0.000 C 
ATOM     30  O   UNL     1       7.639   6.122  19.327  0.00  0.00    +0.000 OA
ATOM     31  N   UNL     1       6.465   6.753  17.467  0.00  0.00    +0.000 N 
ATOM     32  C   UNL     1       5.959   6.313  16.281  0.00  0.00    +0.000 C 
ATOM     33  O   UNL     1       5.199   6.978  15.589  0.00  0.00    +0.000 OA
ATOM     34  H   UNL     1       6.180   7.638  17.853  0.00  0.00    +0.000 HD
ENDBRANCH  26  27
ENDBRANCH  23  26
ENDBRANCH  19  20
ENDBRANCH  18  19
ENDBRANCH   1  18
TORSDOF 9
ENDMDL
MODEL 7
REMARK VINA RESULT:      -7.4      1.676      2.490
REMARK  Name = 
REMARK  10 active torsions:
REMARK  status: ('A' for Active; 'I' for Inactive)
REMARK    1  A    between atoms: C_1  and  C_2
REMARK    2  A    between atoms: C_2  and  C_22
REMARK    3  A    between atoms: N_3  and  O_4
REMARK    4  A    between atoms: O_4  and  C_5
REMARK    5  A    between atoms: C_5  and  C_6
REMARK    6  A    between atoms: C_6  and  O_7
REMARK    7  A    between atoms: O_7  and  C_8
REMARK    8  A    between atoms: C_11  and  C_12
REMARK    9  A    between atoms: C_12  and  C_13
REMARK   10  A    between atoms: C_25  and  C_26
REMARK                            x       y       z     vdW  Elec       q    Type
REMARK                         _______ _______ _______ _____ _____    ______ ____
ROOT
ATOM      1  C   UNL     1       7.430   8.564  17.687  0.00  0.00    +0.000 C 
ENDROOT
BRANCH   1   2
ATOM      2  O   UNL     1       8.630   9.337  17.727  0.00  0.00    +0.000 OA
BRANCH   2   5
ATOM      3  C   UNL     1      10.559  11.176  17.667  0.00  0.00    +0.000 C 
ATOM      4  C   UNL     1       9.508  11.112  18.761  0.00  0.00    +0.000 C 
ATOM      5  N   UNL     1       8.579  10.202  18.823  0.00  0.00    +0.000 NA
BRANCH   4   6
ATOM      6  C   UNL     1       9.571  12.142  19.850  0.00  0.00    +0.000 A 
ATOM      7  C   UNL     1       9.404  11.804  21.193  0.00  0.00    +0.000 A 
ATOM      8  C   UNL     1       9.434  12.796  22.182  0.00  0.00    +0.000 A 
ATOM      9  C   UNL     1       9.650  14.149  21.866  0.00  0.00    +0.000 A 
ATOM     10  C   UNL     1       9.837  14.467  20.511  0.00  0.00    +0.000 A 
ATOM     11  C   UNL     1       9.793  13.483  19.516  0.00  0.00    +0.000 A 
BRANCH   9  12
ATOM     12  C   UNL     1       9.669  15.188  22.921  0.00  0.00    +0.000 A 
ATOM     13  C   UNL     1       8.686  15.241  23.920  0.00  0.00    +0.000 A 
ATOM     14  C   UNL     1       8.737  16.245  24.877  0.00  0.00    +0.000 A 
ATOM     15  N   UNL     1       9.694  17.191  24.922  0.00  0.00    +0.000 NA
ATOM     16  C   UNL     1      10.640  17.132  23.964  0.00  0.00    +0.000 A 
ATOM     17  C   UNL     1      10.667  16.174  22.961  0.00  0.00    +0.000 A 
ENDBRANCH   9  12
ENDBRANCH   4   6
ENDBRANCH   2   5
ENDBRANCH   1   2
BRANCH   1  18
ATOM     18  C   UNL     1       7.820   7.094  17.716  0.00  0.00    +0.000 C 
BRANCH  18  19
ATOM     19  O   UNL     1       7.115   6.383  16.690  0.00  0.00    +0.000 OA
BRANCH  19  20
ATOM     20  C   UNL     1       6.239   5.423  17.118  0.00  0.00    +0.000 A 
ATOM     21  C   UNL     1       6.236   5.183  18.494  0.00  0.00    +0.000 A 
ATOM     22  C   UNL     1       5.368   4.236  19.051  0.00  0.00    +0.000 A 
ATOM     23  C   UNL     1       4.479   3.525  18.235  0.00  0.00    +0.000 A 
ATOM     24  C   UNL     1       4.492   3.767  16.858  0.00  0.00    +0.000 A 
ATOM     25  C   UNL     1       5.358   4.713  16.306  0.00  0.00    +0.000 A 
BRANCH  23  26
ATOM     26  C   UNL     1       3.501   2.531  18.821  0.00  0.00    +0.000 C 
BRANCH  26  27
ATOM     27  C   UNL     1       2.276   3.130  19.524  0.00  0.00    +0.000 C 
ATOM     28  S   UNL     1       1.703   4.726  18.844  0.00  0.00    +0.000 S 
ATOM     29  C   UNL     1       1.986   5.571  20.345  0.00  0.00    +0.000 C 
ATOM     30  O   UNL     1       1.891   6.778  20.474  0.00  0.00    +0.000 OA
ATOM     31  N   UNL     1       2.315   4.696  21.324  0.00  0.00    +0.000 N 
ATOM     32  C   UNL     1       2.538   3.394  20.991  0.00  0.00    +0.000 C 
ATOM     33  O   UNL     1       2.907   2.551  21.797  0.00  0.00    +0.000 OA
ATOM     34  H   UNL     1       2.507   5.031  22.254  0.00  0.00    +0.000 HD
ENDBRANCH  26  27
ENDBRANCH  23  26
ENDBRANCH  19  20
ENDBRANCH  18  19
ENDBRANCH   1  18
TORSDOF 9
ENDMDL
MODEL 8
REMARK VINA RESULT:      -7.3      5.238      6.963
REMARK  Name = 
REMARK  10 active torsions:
REMARK  status: ('A' for Active; 'I' for Inactive)
REMARK    1  A    between atoms: C_1  and  C_2
REMARK    2  A    between atoms: C_2  and  C_22
REMARK    3  A    between atoms: N_3  and  O_4
REMARK    4  A    between atoms: O_4  and  C_5
REMARK    5  A    between atoms: C_5  and  C_6
REMARK    6  A    between atoms: C_6  and  O_7
REMARK    7  A    between atoms: O_7  and  C_8
REMARK    8  A    between atoms: C_11  and  C_12
REMARK    9  A    between atoms: C_12  and  C_13
REMARK   10  A    between atoms: C_25  and  C_26
REMARK                            x       y       z     vdW  Elec       q    Type
REMARK                         _______ _______ _______ _____ _____    ______ ____
ROOT
ATOM      1  C   UNL     1      -0.443  10.213  19.334  0.00  0.00    +0.000 C 
ENDROOT
BRANCH   1   2
ATOM      2  O   UNL     1      -0.605  11.594  19.005  0.00  0.00    +0.000 OA
BRANCH   2   5
ATOM      3  C   UNL     1       0.048  13.681  20.530  0.00  0.00    +0.000 C 
ATOM      4  C   UNL     1       0.957  13.129  19.446  0.00  0.00    +0.000 C 
ATOM      5  N   UNL     1       0.641  12.132  18.672  0.00  0.00    +0.000 NA
BRANCH   4   6
ATOM      6  C   UNL     1       2.284  13.800  19.240  0.00  0.00    +0.000 A 
ATOM      7  C   UNL     1       2.783  14.065  17.964  0.00  0.00    +0.000 A 
ATOM      8  C   UNL     1       4.041  14.661  17.807  0.00  0.00    +0.000 A 
ATOM      9  C   UNL     1       4.829  15.028  18.912  0.00  0.00    +0.000 A 
ATOM     10  C   UNL     1       4.301  14.773  20.187  0.00  0.00    +0.000 A 
ATOM     11  C   UNL     1       3.051  14.163  20.352  0.00  0.00    +0.000 A 
BRANCH   9  12
ATOM     12  C   UNL     1       6.162  15.648  18.730  0.00  0.00    +0.000 A 
ATOM     13  C   UNL     1       7.206  14.975  18.080  0.00  0.00    +0.000 A 
ATOM     14  C   UNL     1       8.442  15.591  17.949  0.00  0.00    +0.000 A 
ATOM     15  N   UNL     1       8.715  16.828  18.405  0.00  0.00    +0.000 NA
ATOM     16  C   UNL     1       7.707  17.474  19.024  0.00  0.00    +0.000 A 
ATOM     17  C   UNL     1       6.442  16.936  19.211  0.00  0.00    +0.000 A 
ENDBRANCH   9  12
ENDBRANCH   4   6
ENDBRANCH   2   5
ENDBRANCH   1   2
BRANCH   1  18
ATOM     18  C   UNL     1       0.789   9.700  18.602  0.00  0.00    +0.000 C 
BRANCH  18  19
ATOM     19  O   UNL     1       1.592   8.915  19.492  0.00  0.00    +0.000 OA
BRANCH  19  20
ATOM     20  C   UNL     1       2.336   7.923  18.912  0.00  0.00    +0.000 A 
ATOM     21  C   UNL     1       2.344   6.703  19.592  0.00  0.00    +0.000 A 
ATOM     22  C   UNL     1       3.055   5.609  19.085  0.00  0.00    +0.000 A 
ATOM     23  C   UNL     1       3.759   5.719  17.880  0.00  0.00    +0.000 A 
ATOM     24  C   UNL     1       3.751   6.946  17.208  0.00  0.00    +0.000 A 
ATOM     25  C   UNL     1       3.040   8.035  17.716  0.00  0.00    +0.000 A 
BRANCH  23  26
ATOM     26  C   UNL     1       4.496   4.538  17.290  0.00  0.00    +0.000 C 
BRANCH  26  27
ATOM     27  C   UNL     1       6.026   4.588  17.381  0.00  0.00    +0.000 C 
ATOM     28  S   UNL     1       6.682   5.566  18.779  0.00  0.00    +0.000 S 
ATOM     29  C   UNL     1       7.500   6.692  17.726  0.00  0.00    +0.000 C 
ATOM     30  O   UNL     1       8.052   7.706  18.113  0.00  0.00    +0.000 OA
ATOM     31  N   UNL     1       7.434   6.270  16.441  0.00  0.00    +0.000 N 
ATOM     32  C   UNL     1       6.647   5.200  16.143  0.00  0.00    +0.000 C 
ATOM     33  O   UNL     1       6.473   4.794  15.002  0.00  0.00    +0.000 OA
ATOM     34  H   UNL     1       7.864   6.814  15.711  0.00  0.00    +0.000 HD
ENDBRANCH  26  27
ENDBRANCH  23  26
ENDBRANCH  19  20
ENDBRANCH  18  19
ENDBRANCH   1  18
TORSDOF 9
ENDMDL
MODEL 9
REMARK VINA RESULT:      -7.3      5.126     10.365
REMARK  Name = 
REMARK  10 active torsions:
REMARK  status: ('A' for Active; 'I' for Inactive)
REMARK    1  A    between atoms: C_1  and  C_2
REMARK    2  A    between atoms: C_2  and  C_22
REMARK    3  A    between atoms: N_3  and  O_4
REMARK    4  A    between atoms: O_4  and  C_5
REMARK    5  A    between atoms: C_5  and  C_6
REMARK    6  A    between atoms: C_6  and  O_7
REMARK    7  A    between atoms: O_7  and  C_8
REMARK    8  A    between atoms: C_11  and  C_12
REMARK    9  A    between atoms: C_12  and  C_13
REMARK   10  A    between atoms: C_25  and  C_26
REMARK                            x       y       z     vdW  Elec       q    Type
REMARK                         _______ _______ _______ _____ _____    ______ ____
ROOT
ATOM      1  C   UNL     1       7.345   6.409  17.688  0.00  0.00    +0.000 C 
ENDROOT
BRANCH   1   2
ATOM      2  O   UNL     1       6.073   6.070  17.134  0.00  0.00    +0.000 OA
BRANCH   2   5
ATOM      3  C   UNL     1       3.774   5.103  18.076  0.00  0.00    +0.000 C 
ATOM      4  C   UNL     1       4.053   6.589  17.935  0.00  0.00    +0.000 C 
ATOM      5  N   UNL     1       5.157   7.077  17.447  0.00  0.00    +0.000 NA
BRANCH   4   6
ATOM      6  C   UNL     1       2.974   7.544  18.354  0.00  0.00    +0.000 A 
ATOM      7  C   UNL     1       2.587   8.616  17.548  0.00  0.00    +0.000 A 
ATOM      8  C   UNL     1       1.601   9.510  17.984  0.00  0.00    +0.000 A 
ATOM      9  C   UNL     1       0.957   9.353  19.225  0.00  0.00    +0.000 A 
ATOM     10  C   UNL     1       1.345   8.257  20.012  0.00  0.00    +0.000 A 
ATOM     11  C   UNL     1       2.340   7.368  19.589  0.00  0.00    +0.000 A 
BRANCH   9  12
ATOM     12  C   UNL     1      -0.077  10.311  19.678  0.00  0.00    +0.000 A 
ATOM     13  C   UNL     1      -0.134  10.761  21.005  0.00  0.00    +0.000 A 
ATOM     14  C   UNL     1      -1.132  11.646  21.385  0.00  0.00    +0.000 A 
ATOM     15  N   UNL     1      -2.070  12.125  20.546  0.00  0.00    +0.000 NA
ATOM     16  C   UNL     1      -2.008  11.695  19.271  0.00  0.00    +0.000 A 
ATOM     17  C   UNL     1      -1.054  10.804  18.800  0.00  0.00    +0.000 A 
ENDBRANCH   9  12
ENDBRANCH   4   6
ENDBRANCH   2   5
ENDBRANCH   1   2
BRANCH   1  18
ATOM     18  C   UNL     1       7.519   7.916  17.570  0.00  0.00    +0.000 C 
BRANCH  18  19
ATOM     19  O   UNL     1       8.531   8.361  18.481  0.00  0.00    +0.000 OA
BRANCH  19  20
ATOM     20  C   UNL     1       8.728   9.715  18.545  0.00  0.00    +0.000 A 
ATOM     21  C   UNL     1       9.418  10.169  19.671  0.00  0.00    +0.000 A 
ATOM     22  C   UNL     1       9.695  11.531  19.836  0.00  0.00    +0.000 A 
ATOM     23  C   UNL     1       9.294  12.458  18.866  0.00  0.00    +0.000 A 
ATOM     24  C   UNL     1       8.598  11.996  17.744  0.00  0.00    +0.000 A 
ATOM     25  C   UNL     1       8.324  10.636  17.581  0.00  0.00    +0.000 A 
BRANCH  23  26
ATOM     26  C   UNL     1       9.623  13.928  19.002  0.00  0.00    +0.000 C 
BRANCH  26  27
ATOM     27  C   UNL     1       8.722  14.732  19.949  0.00  0.00    +0.000 C 
ATOM     28  S   UNL     1       7.058  15.106  19.294  0.00  0.00    +0.000 S 
ATOM     29  C   UNL     1       7.320  16.831  19.361  0.00  0.00    +0.000 C 
ATOM     30  O   UNL     1       6.545  17.654  18.908  0.00  0.00    +0.000 OA
ATOM     31  N   UNL     1       8.489  17.106  19.986  0.00  0.00    +0.000 N 
ATOM     32  C   UNL     1       9.324  16.076  20.297  0.00  0.00    +0.000 C 
ATOM     33  O   UNL     1      10.429  16.237  20.797  0.00  0.00    +0.000 OA
ATOM     34  H   UNL     1       8.781  18.062  20.107  0.00  0.00    +0.000 HD
ENDBRANCH  26  27
ENDBRANCH  23  26
ENDBRANCH  19  20
ENDBRANCH  18  19
ENDBRANCH   1  18
TORSDOF 9
ENDMDL
