MODEL 1
REMARK VINA RESULT:      -6.9      0.000      0.000
REMARK  Name = 
REMARK  17 active torsions:
REMARK  status: ('A' for Active; 'I' for Inactive)
REMARK    1  A    between atoms: C_1  and  C_2
REMARK    2  A    between atoms: C_2  and  C_3
REMARK    3  A    between atoms: C_3  and  C_4
REMARK    4  A    between atoms: C_4  and  C_5
REMARK    5  A    between atoms: C_5  and  C_6
REMARK    6  A    between atoms: C_6  and  C_7
REMARK    7  A    between atoms: C_7  and  C_8
REMARK    8  A    between atoms: C_8  and  C_9
REMARK    9  A    between atoms: C_9  and  C_10
REMARK   10  A    between atoms: C_10  and  C_11
REMARK   11  A    between atoms: C_11  and  C_12
REMARK   12  A    between atoms: C_12  and  C_13
REMARK   13  A    between atoms: C_13  and  C_14
REMARK   14  A    between atoms: N_16  and  C_17
REMARK   15  A    between atoms: C_20  and  C_21
REMARK   16  A    between atoms: C_21  and  C_22
REMARK   17  A    between atoms: N_24  and  O_25
REMARK                            x       y       z     vdW  Elec       q    Type
REMARK                         _______ _______ _______ _____ _____    ______ ____
ROOT
ATOM      1  C   UNL     1       2.290   4.740  20.450  0.00  0.00    +0.000 C 
ATOM      2  O   UNL     1       1.174   4.672  20.972  0.00  0.00    +0.000 OA
ATOM      3  N   UNL     1       2.844   5.850  19.830  0.00  0.00    +0.000 N 
ATOM      4  H   UNL     1       3.704   5.718  19.324  0.00  0.00    +0.000 HD
ENDROOT
BRANCH   3   5
ATOM      5  C   UNL     1       2.190   7.098  19.675  0.00  0.00    +0.000 A 
ATOM      6  C   UNL     1       2.116   7.757  18.450  0.00  0.00    +0.000 A 
ATOM      7  C   UNL     1       1.516   9.011  18.341  0.00  0.00    +0.000 A 
ATOM      8  C   UNL     1       0.920   9.609  19.453  0.00  0.00    +0.000 A 
ATOM      9  C   UNL     1       1.003   8.960  20.693  0.00  0.00    +0.000 A 
ATOM     10  C   UNL     1       1.612   7.702  20.801  0.00  0.00    +0.000 A 
BRANCH   8  11
ATOM     11  C   UNL     1       0.153  10.899  19.307  0.00  0.00    +0.000 C 
BRANCH  11  12
ATOM     12  C   UNL     1      -0.995  10.866  18.306  0.00  0.00    +0.000 C 
ATOM     13  O   UNL     1      -1.849   9.975  18.331  0.00  0.00    +0.000 OA
ATOM     14  N   UNL     1      -1.103  11.911  17.423  0.00  0.00    +0.000 N 
ATOM     15  H   UNL     1      -0.339  12.529  17.163  0.00  0.00    +0.000 HD
BRANCH  14  16
ATOM     16  O   UNL     1      -2.167  11.813  16.489  0.00  0.00    +0.000 OA
ATOM     17  H   UNL     1      -1.953  12.533  15.853  0.00  0.00    +0.000 HD
ENDBRANCH  14  16
ENDBRANCH  11  12
ENDBRANCH   8  11
ENDBRANCH   3   5
BRANCH   1  18
ATOM     18  C   UNL     1       3.113   3.486  20.365  0.00  0.00    +0.000 C 
BRANCH  18  19
ATOM     19  C   UNL     1       2.246   2.354  19.832  0.00  0.00    +0.000 C 
BRANCH  19  20
ATOM     20  C   UNL     1       1.711   2.683  18.449  0.00  0.00    +0.000 C 
BRANCH  20  21
ATOM     21  C   UNL     1       2.813   2.543  17.408  0.00  0.00    +0.000 C 
BRANCH  21  22
ATOM     22  C   UNL     1       3.151   3.901  16.816  0.00  0.00    +0.000 C 
BRANCH  22  23
ATOM     23  C   UNL     1       4.570   4.301  17.187  0.00  0.00    +0.000 C 
BRANCH  23  24
ATOM     24  C   UNL     1       5.079   5.364  16.230  0.00  0.00    +0.000 C 
BRANCH  24  25
ATOM     25  C   UNL     1       6.498   5.040  15.798  0.00  0.00    +0.000 C 
BRANCH  25  26
ATOM     26  C   UNL     1       6.579   4.968  14.282  0.00  0.00    +0.000 C 
BRANCH  26  27
ATOM     27  C   UNL     1       5.949   3.675  13.786  0.00  0.00    +0.000 C 
BRANCH  27  28
ATOM     28  C   UNL     1       6.472   3.337  12.398  0.00  0.00    +0.000 C 
BRANCH  28  30
ATOM     29  C   UNL     1       4.156   3.353  11.462  0.00  0.00    +0.000 C 
ATOM     30  C   UNL     1       5.434   2.549  11.612  0.00  0.00    +0.000 C 
ENDBRANCH  28  30
ENDBRANCH  27  28
ENDBRANCH  26  27
ENDBRANCH  25  26
ENDBRANCH  24  25
ENDBRANCH  23  24
ENDBRANCH  22  23
ENDBRANCH  21  22
ENDBRANCH  20  21
ENDBRANCH  19  20
ENDBRANCH  18  19
ENDBRANCH   1  18
TORSDOF 16
ENDMDL
MODEL 2
REMARK VINA RESULT:      -6.9      2.509      3.528
REMARK  Name = 
REMARK  17 active torsions:
REMARK  status: ('A' for Active; 'I' for Inactive)
REMARK    1  A    between atoms: C_1  and  C_2
REMARK    2  A    between atoms: C_2  and  C_3
REMARK    3  A    between atoms: C_3  and  C_4
REMARK    4  A    between atoms: C_4  and  C_5
REMARK    5  A    between atoms: C_5  and  C_6
REMARK    6  A    between atoms: C_6  and  C_7
REMARK    7  A    between atoms: C_7  and  C_8
REMARK    8  A    between atoms: C_8  and  C_9
REMARK    9  A    between atoms: C_9  and  C_10
REMARK   10  A    between atoms: C_10  and  C_11
REMARK   11  A    between atoms: C_11  and  C_12
REMARK   12  A    between atoms: C_12  and  C_13
REMARK   13  A    between atoms: C_13  and  C_14
REMARK   14  A    between atoms: N_16  and  C_17
REMARK   15  A    between atoms: C_20  and  C_21
REMARK   16  A    between atoms: C_21  and  C_22
REMARK   17  A    between atoms: N_24  and  O_25
REMARK                            x       y       z     vdW  Elec       q    Type
REMARK                         _______ _______ _______ _____ _____    ______ ____
ROOT
ATOM      1  C   UNL     1       1.627   4.797  20.956  0.00  0.00    +0.000 C 
ATOM      2  O   UNL     1       0.680   4.557  20.203  0.00  0.00    +0.000 OA
ATOM      3  N   UNL     1       2.256   6.021  21.127  0.00  0.00    +0.000 N 
ATOM      4  H   UNL     1       3.105   6.035  21.667  0.00  0.00    +0.000 HD
ENDROOT
BRANCH   3   5
ATOM      5  C   UNL     1       1.915   7.207  20.429  0.00  0.00    +0.000 A 
ATOM      6  C   UNL     1       2.353   7.463  19.132  0.00  0.00    +0.000 A 
ATOM      7  C   UNL     1       2.050   8.665  18.492  0.00  0.00    +0.000 A 
ATOM      8  C   UNL     1       1.244   9.617  19.122  0.00  0.00    +0.000 A 
ATOM      9  C   UNL     1       0.812   9.374  20.433  0.00  0.00    +0.000 A 
ATOM     10  C   UNL     1       1.124   8.167  21.075  0.00  0.00    +0.000 A 
BRANCH   8  11
ATOM     11  C   UNL     1       0.803  10.853  18.380  0.00  0.00    +0.000 C 
BRANCH  11  12
ATOM     12  C   UNL     1       1.707  12.068  18.543  0.00  0.00    +0.000 C 
ATOM     13  O   UNL     1       1.732  12.722  19.591  0.00  0.00    +0.000 OA
ATOM     14  N   UNL     1       2.565  12.369  17.514  0.00  0.00    +0.000 N 
ATOM     15  H   UNL     1       2.442  12.064  16.552  0.00  0.00    +0.000 HD
BRANCH  14  16
ATOM     16  O   UNL     1       3.358  13.530  17.700  0.00  0.00    +0.000 OA
ATOM     17  H   UNL     1       4.247  13.225  17.408  0.00  0.00    +0.000 HD
ENDBRANCH  14  16
ENDBRANCH  11  12
ENDBRANCH   8  11
ENDBRANCH   3   5
BRANCH   1  18
ATOM     18  C   UNL     1       2.256   3.649  21.695  0.00  0.00    +0.000 C 
BRANCH  18  19
ATOM     19  C   UNL     1       2.395   2.462  20.752  0.00  0.00    +0.000 C 
BRANCH  19  20
ATOM     20  C   UNL     1       3.854   2.080  20.572  0.00  0.00    +0.000 C 
BRANCH  20  21
ATOM     21  C   UNL     1       4.292   2.332  19.136  0.00  0.00    +0.000 C 
BRANCH  21  22
ATOM     22  C   UNL     1       4.884   3.726  19.005  0.00  0.00    +0.000 C 
BRANCH  22  23
ATOM     23  C   UNL     1       4.035   4.574  18.073  0.00  0.00    +0.000 C 
BRANCH  23  24
ATOM     24  C   UNL     1       4.306   4.192  16.628  0.00  0.00    +0.000 C 
BRANCH  24  25
ATOM     25  C   UNL     1       5.371   5.099  16.039  0.00  0.00    +0.000 C 
BRANCH  25  26
ATOM     26  C   UNL     1       4.948   6.553  16.168  0.00  0.00    +0.000 C 
BRANCH  26  27
ATOM     27  C   UNL     1       5.990   7.332  16.956  0.00  0.00    +0.000 C 
BRANCH  27  28
ATOM     28  C   UNL     1       7.239   6.487  17.151  0.00  0.00    +0.000 C 
BRANCH  28  30
ATOM     29  C   UNL     1       7.838   5.610  19.411  0.00  0.00    +0.000 C 
ATOM     30  C   UNL     1       7.901   6.808  18.483  0.00  0.00    +0.000 C 
ENDBRANCH  28  30
ENDBRANCH  27  28
ENDBRANCH  26  27
ENDBRANCH  25  26
ENDBRANCH  24  25
ENDBRANCH  23  24
ENDBRANCH  22  23
ENDBRANCH  21  22
ENDBRANCH  20  21
ENDBRANCH  19  20
ENDBRANCH  18  19
ENDBRANCH   1  18
TORSDOF 16
ENDMDL
MODEL 3
REMARK VINA RESULT:      -6.8      6.955      8.503
REMARK  Name = 
REMARK  17 active torsions:
REMARK  status: ('A' for Active; 'I' for Inactive)
REMARK    1  A    between atoms: C_1  and  C_2
REMARK    2  A    between atoms: C_2  and  C_3
REMARK    3  A    between atoms: C_3  and  C_4
REMARK    4  A    between atoms: C_4  and  C_5
REMARK    5  A    between atoms: C_5  and  C_6
REMARK    6  A    between atoms: C_6  and  C_7
REMARK    7  A    between atoms: C_7  and  C_8
REMARK    8  A    between atoms: C_8  and  C_9
REMARK    9  A    between atoms: C_9  and  C_10
REMARK   10  A    between atoms: C_10  and  C_11
REMARK   11  A    between atoms: C_11  and  C_12
REMARK   12  A    between atoms: C_12  and  C_13
REMARK   13  A    between atoms: C_13  and  C_14
REMARK   14  A    between atoms: N_16  and  C_17
REMARK   15  A    between atoms: C_20  and  C_21
REMARK   16  A    between atoms: C_21  and  C_22
REMARK   17  A    between atoms: N_24  and  O_25
REMARK                            x       y       z     vdW  Elec       q    Type
REMARK                         _______ _______ _______ _____ _____    ______ ____
ROOT
ATOM      1  C   UNL     1       8.088   8.055  18.140  0.00  0.00    +0.000 C 
ATOM      2  O   UNL     1       7.781   8.572  17.063  0.00  0.00    +0.000 OA
ATOM      3  N   UNL     1       8.766   8.666  19.185  0.00  0.00    +0.000 N 
ATOM      4  H   UNL     1       9.073   8.081  19.944  0.00  0.00    +0.000 HD
ENDROOT
BRANCH   3   5
ATOM      5  C   UNL     1       9.242  10.001  19.167  0.00  0.00    +0.000 A 
ATOM      6  C   UNL     1       9.885  10.581  20.258  0.00  0.00    +0.000 A 
ATOM      7  C   UNL     1      10.290  11.915  20.231  0.00  0.00    +0.000 A 
ATOM      8  C   UNL     1      10.112  12.684  19.078  0.00  0.00    +0.000 A 
ATOM      9  C   UNL     1       9.452  12.114  17.981  0.00  0.00    +0.000 A 
ATOM     10  C   UNL     1       9.040  10.774  18.014  0.00  0.00    +0.000 A 
BRANCH   8  11
ATOM     11  C   UNL     1      10.672  14.082  19.001  0.00  0.00    +0.000 C 
BRANCH  11  12
ATOM     12  C   UNL     1      11.104  14.536  17.612  0.00  0.00    +0.000 C 
ATOM     13  O   UNL     1      12.099  14.061  17.056  0.00  0.00    +0.000 OA
ATOM     14  N   UNL     1      10.300  15.434  16.954  0.00  0.00    +0.000 N 
ATOM     15  H   UNL     1       9.633  16.052  17.408  0.00  0.00    +0.000 HD
BRANCH  14  16
ATOM     16  O   UNL     1      10.767  15.851  15.681  0.00  0.00    +0.000 OA
ATOM     17  H   UNL     1      10.171  16.608  15.478  0.00  0.00    +0.000 HD
ENDBRANCH  14  16
ENDBRANCH  11  12
ENDBRANCH   8  11
ENDBRANCH   3   5
BRANCH   1  18
ATOM     18  C   UNL     1       7.811   6.590  18.330  0.00  0.00    +0.000 C 
BRANCH  18  19
ATOM     19  C   UNL     1       6.685   6.168  17.398  0.00  0.00    +0.000 C 
BRANCH  19  20
ATOM     20  C   UNL     1       5.416   5.872  18.179  0.00  0.00    +0.000 C 
BRANCH  20  21
ATOM     21  C   UNL     1       4.195   6.354  17.407  0.00  0.00    +0.000 C 
BRANCH  21  22
ATOM     22  C   UNL     1       2.924   6.001  18.162  0.00  0.00    +0.000 C 
BRANCH  22  23
ATOM     23  C   UNL     1       3.098   6.275  19.647  0.00  0.00    +0.000 C 
BRANCH  23  24
ATOM     24  C   UNL     1       2.692   5.054  20.454  0.00  0.00    +0.000 C 
BRANCH  24  25
ATOM     25  C   UNL     1       1.194   4.835  20.351  0.00  0.00    +0.000 C 
BRANCH  25  26
ATOM     26  C   UNL     1       0.870   3.359  20.510  0.00  0.00    +0.000 C 
BRANCH  26  27
ATOM     27  C   UNL     1       2.059   2.513  20.081  0.00  0.00    +0.000 C 
BRANCH  27  28
ATOM     28  C   UNL     1       1.728   1.751  18.808  0.00  0.00    +0.000 C 
BRANCH  28  30
ATOM     29  C   UNL     1       3.878   2.520  17.798  0.00  0.00    +0.000 C 
ATOM     30  C   UNL     1       2.378   2.413  17.602  0.00  0.00    +0.000 C 
ENDBRANCH  28  30
ENDBRANCH  27  28
ENDBRANCH  26  27
ENDBRANCH  25  26
ENDBRANCH  24  25
ENDBRANCH  23  24
ENDBRANCH  22  23
ENDBRANCH  21  22
ENDBRANCH  20  21
ENDBRANCH  19  20
ENDBRANCH  18  19
ENDBRANCH   1  18
TORSDOF 16
ENDMDL
MODEL 4
REMARK VINA RESULT:      -6.7      2.026      3.279
REMARK  Name = 
REMARK  17 active torsions:
REMARK  status: ('A' for Active; 'I' for Inactive)
REMARK    1  A    between atoms: C_1  and  C_2
REMARK    2  A    between atoms: C_2  and  C_3
REMARK    3  A    between atoms: C_3  and  C_4
REMARK    4  A    between atoms: C_4  and  C_5
REMARK    5  A    between atoms: C_5  and  C_6
REMARK    6  A    between atoms: C_6  and  C_7
REMARK    7  A    between atoms: C_7  and  C_8
REMARK    8  A    between atoms: C_8  and  C_9
REMARK    9  A    between atoms: C_9  and  C_10
REMARK   10  A    between atoms: C_10  and  C_11
REMARK   11  A    between atoms: C_11  and  C_12
REMARK   12  A    between atoms: C_12  and  C_13
REMARK   13  A    between atoms: C_13  and  C_14
REMARK   14  A    between atoms: N_16  and  C_17
REMARK   15  A    between atoms: C_20  and  C_21
REMARK   16  A    between atoms: C_21  and  C_22
REMARK   17  A    between atoms: N_24  and  O_25
REMARK                            x       y       z     vdW  Elec       q    Type
REMARK                         _______ _______ _______ _____ _____    ______ ____
ROOT
ATOM      1  C   UNL     1       1.734   4.275  20.701  0.00  0.00    +0.000 C 
ATOM      2  O   UNL     1       0.571   4.196  20.298  0.00  0.00    +0.000 OA
ATOM      3  N   UNL     1       2.548   5.397  20.659  0.00  0.00    +0.000 N 
ATOM      4  H   UNL     1       3.519   5.275  20.892  0.00  0.00    +0.000 HD
ENDROOT
BRANCH   3   5
ATOM      5  C   UNL     1       2.168   6.648  20.111  0.00  0.00    +0.000 A 
ATOM      6  C   UNL     1       2.494   7.025  18.811  0.00  0.00    +0.000 A 
ATOM      7  C   UNL     1       2.158   8.287  18.320  0.00  0.00    +0.000 A 
ATOM      8  C   UNL     1       1.427   9.180  19.107  0.00  0.00    +0.000 A 
ATOM      9  C   UNL     1       1.108   8.814  20.422  0.00  0.00    +0.000 A 
ATOM     10  C   UNL     1       1.454   7.548  20.915  0.00  0.00    +0.000 A 
BRANCH   8  11
ATOM     11  C   UNL     1       0.945  10.487  18.530  0.00  0.00    +0.000 C 
BRANCH  11  12
ATOM     12  C   UNL     1      -0.566  10.626  18.403  0.00  0.00    +0.000 C 
ATOM     13  O   UNL     1      -1.236  11.214  19.258  0.00  0.00    +0.000 OA
ATOM     14  N   UNL     1      -1.158  10.151  17.259  0.00  0.00    +0.000 N 
ATOM     15  H   UNL     1      -0.749   9.452  16.645  0.00  0.00    +0.000 HD
BRANCH  14  16
ATOM     16  O   UNL     1      -2.571  10.272  17.208  0.00  0.00    +0.000 OA
ATOM     17  H   UNL     1      -2.695  11.247  17.160  0.00  0.00    +0.000 HD
ENDBRANCH  14  16
ENDBRANCH  11  12
ENDBRANCH   8  11
ENDBRANCH   3   5
BRANCH   1  18
ATOM     18  C   UNL     1       2.402   3.022  21.194  0.00  0.00    +0.000 C 
BRANCH  18  19
ATOM     19  C   UNL     1       3.833   2.981  20.678  0.00  0.00    +0.000 C 
BRANCH  19  20
ATOM     20  C   UNL     1       3.967   2.004  19.522  0.00  0.00    +0.000 C 
BRANCH  20  21
ATOM     21  C   UNL     1       2.622   1.813  18.834  0.00  0.00    +0.000 C 
BRANCH  21  22
ATOM     22  C   UNL     1       2.709   2.259  17.383  0.00  0.00    +0.000 C 
BRANCH  22  23
ATOM     23  C   UNL     1       3.065   3.734  17.304  0.00  0.00    +0.000 C 
BRANCH  23  24
ATOM     24  C   UNL     1       4.178   3.949  16.293  0.00  0.00    +0.000 C 
BRANCH  24  25
ATOM     25  C   UNL     1       5.131   5.022  16.786  0.00  0.00    +0.000 C 
BRANCH  25  26
ATOM     26  C   UNL     1       5.899   4.520  17.998  0.00  0.00    +0.000 C 
BRANCH  26  27
ATOM     27  C   UNL     1       6.552   5.687  18.723  0.00  0.00    +0.000 C 
BRANCH  27  28
ATOM     28  C   UNL     1       7.534   6.394  17.801  0.00  0.00    +0.000 C 
BRANCH  28  30
ATOM     29  C   UNL     1       8.031   8.841  17.768  0.00  0.00    +0.000 C 
ATOM     30  C   UNL     1       8.221   7.541  18.527  0.00  0.00    +0.000 C 
ENDBRANCH  28  30
ENDBRANCH  27  28
ENDBRANCH  26  27
ENDBRANCH  25  26
ENDBRANCH  24  25
ENDBRANCH  23  24
ENDBRANCH  22  23
ENDBRANCH  21  22
ENDBRANCH  20  21
ENDBRANCH  19  20
ENDBRANCH  18  19
ENDBRANCH   1  18
TORSDOF 16
ENDMDL
MODEL 5
REMARK VINA RESULT:      -6.5      4.182      8.375
REMARK  Name = 
REMARK  17 active torsions:
REMARK  status: ('A' for Active; 'I' for Inactive)
REMARK    1  A    between atoms: C_1  and  C_2
REMARK    2  A    between atoms: C_2  and  C_3
REMARK    3  A    between atoms: C_3  and  C_4
REMARK    4  A    between atoms: C_4  and  C_5
REMARK    5  A    between atoms: C_5  and  C_6
REMARK    6  A    between atoms: C_6  and  C_7
REMARK    7  A    between atoms: C_7  and  C_8
REMARK    8  A    between atoms: C_8  and  C_9
REMARK    9  A    between atoms: C_9  and  C_10
REMARK   10  A    between atoms: C_10  and  C_11
REMARK   11  A    between atoms: C_11  and  C_12
REMARK   12  A    between atoms: C_12  and  C_13
REMARK   13  A    between atoms: C_13  and  C_14
REMARK   14  A    between atoms: N_16  and  C_17
REMARK   15  A    between atoms: C_20  and  C_21
REMARK   16  A    between atoms: C_21  and  C_22
REMARK   17  A    between atoms: N_24  and  O_25
REMARK                            x       y       z     vdW  Elec       q    Type
REMARK                         _______ _______ _______ _____ _____    ______ ____
ROOT
ATOM      1  C   UNL     1       6.819   6.590  16.443  0.00  0.00    +0.000 C 
ATOM      2  O   UNL     1       5.743   7.110  16.139  0.00  0.00    +0.000 OA
ATOM      3  N   UNL     1       7.447   5.544  15.783  0.00  0.00    +0.000 N 
ATOM      4  H   UNL     1       8.249   5.129  16.228  0.00  0.00    +0.000 HD
ENDROOT
BRANCH   3   5
ATOM      5  C   UNL     1       6.925   4.881  14.644  0.00  0.00    +0.000 A 
ATOM      6  C   UNL     1       7.497   5.003  13.380  0.00  0.00    +0.000 A 
ATOM      7  C   UNL     1       6.927   4.386  12.267  0.00  0.00    +0.000 A 
ATOM      8  C   UNL     1       5.798   3.576  12.410  0.00  0.00    +0.000 A 
ATOM      9  C   UNL     1       5.207   3.459  13.676  0.00  0.00    +0.000 A 
ATOM     10  C   UNL     1       5.779   4.087  14.791  0.00  0.00    +0.000 A 
BRANCH   8  11
ATOM     11  C   UNL     1       5.263   2.799  11.234  0.00  0.00    +0.000 C 
BRANCH  11  12
ATOM     12  C   UNL     1       3.857   3.178  10.786  0.00  0.00    +0.000 C 
ATOM     13  O   UNL     1       2.856   2.772  11.384  0.00  0.00    +0.000 OA
ATOM     14  N   UNL     1       3.735   4.062   9.743  0.00  0.00    +0.000 N 
ATOM     15  H   UNL     1       4.457   4.242   9.051  0.00  0.00    +0.000 HD
BRANCH  14  16
ATOM     16  O   UNL     1       2.406   4.353   9.342  0.00  0.00    +0.000 OA
ATOM     17  H   UNL     1       1.881   4.035  10.111  0.00  0.00    +0.000 HD
ENDBRANCH  14  16
ENDBRANCH  11  12
ENDBRANCH   8  11
ENDBRANCH   3   5
BRANCH   1  18
ATOM     18  C   UNL     1       7.491   7.037  17.712  0.00  0.00    +0.000 C 
BRANCH  18  19
ATOM     19  C   UNL     1       7.789   5.820  18.576  0.00  0.00    +0.000 C 
BRANCH  19  20
ATOM     20  C   UNL     1       6.745   4.736  18.367  0.00  0.00    +0.000 C 
BRANCH  20  21
ATOM     21  C   UNL     1       5.563   4.952  19.302  0.00  0.00    +0.000 C 
BRANCH  21  22
ATOM     22  C   UNL     1       4.649   3.738  19.281  0.00  0.00    +0.000 C 
BRANCH  22  23
ATOM     23  C   UNL     1       3.939   3.635  17.941  0.00  0.00    +0.000 C 
BRANCH  23  24
ATOM     24  C   UNL     1       3.407   2.227  17.740  0.00  0.00    +0.000 C 
BRANCH  24  25
ATOM     25  C   UNL     1       2.763   1.725  19.020  0.00  0.00    +0.000 C 
BRANCH  25  26
ATOM     26  C   UNL     1       1.363   2.300  19.161  0.00  0.00    +0.000 C 
BRANCH  26  27
ATOM     27  C   UNL     1       1.197   2.940  20.531  0.00  0.00    +0.000 C 
BRANCH  27  28
ATOM     28  C   UNL     1       0.865   4.417  20.383  0.00  0.00    +0.000 C 
BRANCH  28  30
ATOM     29  C   UNL     1       2.152   6.496  19.875  0.00  0.00    +0.000 C 
ATOM     30  C   UNL     1       2.059   5.276  20.772  0.00  0.00    +0.000 C 
ENDBRANCH  28  30
ENDBRANCH  27  28
ENDBRANCH  26  27
ENDBRANCH  25  26
ENDBRANCH  24  25
ENDBRANCH  23  24
ENDBRANCH  22  23
ENDBRANCH  21  22
ENDBRANCH  20  21
ENDBRANCH  19  20
ENDBRANCH  18  19
ENDBRANCH   1  18
TORSDOF 16
ENDMDL
MODEL 6
REMARK VINA RESULT:      -6.5      3.021      5.842
REMARK  Name = 
REMARK  17 active torsions:
REMARK  status: ('A' for Active; 'I' for Inactive)
REMARK    1  A    between atoms: C_1  and  C_2
REMARK    2  A    between atoms: C_2  and  C_3
REMARK    3  A    between atoms: C_3  and  C_4
REMARK    4  A    between atoms: C_4  and  C_5
REMARK    5  A    between atoms: C_5  and  C_6
REMARK    6  A    between atoms: C_6  and  C_7
REMARK    7  A    between atoms: C_7  and  C_8
REMARK    8  A    between atoms: C_8  and  C_9
REMARK    9  A    between atoms: C_9  and  C_10
REMARK   10  A    between atoms: C_10  and  C_11
REMARK   11  A    between atoms: C_11  and  C_12
REMARK   12  A    between atoms: C_12  and  C_13
REMARK   13  A    between atoms: C_13  and  C_14
REMARK   14  A    between atoms: N_16  and  C_17
REMARK   15  A    between atoms: C_20  and  C_21
REMARK   16  A    between atoms: C_21  and  C_22
REMARK   17  A    between atoms: N_24  and  O_25
REMARK                            x       y       z     vdW  Elec       q    Type
REMARK                         _______ _______ _______ _____ _____    ______ ____
ROOT
ATOM      1  C   UNL     1       0.746   9.736  18.515  0.00  0.00    +0.000 C 
ATOM      2  O   UNL     1       0.635   9.576  19.733  0.00  0.00    +0.000 OA
ATOM      3  N   UNL     1      -0.168  10.357  17.677  0.00  0.00    +0.000 N 
ATOM      4  H   UNL     1      -0.010  10.288  16.686  0.00  0.00    +0.000 HD
ENDROOT
BRANCH   3   5
ATOM      5  C   UNL     1      -1.410  10.895  18.098  0.00  0.00    +0.000 A 
ATOM      6  C   UNL     1      -1.502  11.915  19.042  0.00  0.00    +0.000 A 
ATOM      7  C   UNL     1      -2.741  12.384  19.479  0.00  0.00    +0.000 A 
ATOM      8  C   UNL     1      -3.922  11.879  18.929  0.00  0.00    +0.000 A 
ATOM      9  C   UNL     1      -3.839  10.842  17.989  0.00  0.00    +0.000 A 
ATOM     10  C   UNL     1      -2.592  10.369  17.558  0.00  0.00    +0.000 A 
BRANCH   8  11
ATOM     11  C   UNL     1      -5.254  12.480  19.300  0.00  0.00    +0.000 C 
BRANCH  11  12
ATOM     12  C   UNL     1      -6.233  12.657  18.147  0.00  0.00    +0.000 C 
ATOM     13  O   UNL     1      -7.052  11.781  17.852  0.00  0.00    +0.000 OA
ATOM     14  N   UNL     1      -6.240  13.865  17.494  0.00  0.00    +0.000 N 
ATOM     15  H   UNL     1      -5.466  14.524  17.490  0.00  0.00    +0.000 HD
BRANCH  14  16
ATOM     16  O   UNL     1      -7.144  13.965  16.405  0.00  0.00    +0.000 OA
ATOM     17  H   UNL     1      -7.616  14.806  16.602  0.00  0.00    +0.000 HD
ENDBRANCH  14  16
ENDBRANCH  11  12
ENDBRANCH   8  11
ENDBRANCH   3   5
BRANCH   1  18
ATOM     18  C   UNL     1       1.925   9.113  17.821  0.00  0.00    +0.000 C 
BRANCH  18  19
ATOM     19  C   UNL     1       2.402   7.912  18.625  0.00  0.00    +0.000 C 
BRANCH  19  20
ATOM     20  C   UNL     1       2.529   6.683  17.741  0.00  0.00    +0.000 C 
BRANCH  20  21
ATOM     21  C   UNL     1       3.996   6.344  17.514  0.00  0.00    +0.000 C 
BRANCH  21  22
ATOM     22  C   UNL     1       4.557   5.609  18.721  0.00  0.00    +0.000 C 
BRANCH  22  23
ATOM     23  C   UNL     1       4.828   4.154  18.374  0.00  0.00    +0.000 C 
BRANCH  23  24
ATOM     24  C   UNL     1       4.268   3.833  16.999  0.00  0.00    +0.000 C 
BRANCH  24  25
ATOM     25  C   UNL     1       2.923   3.142  17.133  0.00  0.00    +0.000 C 
BRANCH  25  26
ATOM     26  C   UNL     1       3.045   1.936  18.049  0.00  0.00    +0.000 C 
BRANCH  26  27
ATOM     27  C   UNL     1       2.023   2.027  19.172  0.00  0.00    +0.000 C 
BRANCH  27  28
ATOM     28  C   UNL     1       1.248   3.332  19.070  0.00  0.00    +0.000 C 
BRANCH  28  30
ATOM     29  C   UNL     1       1.971   4.858  20.910  0.00  0.00    +0.000 C 
ATOM     30  C   UNL     1       0.915   3.867  20.455  0.00  0.00    +0.000 C 
ENDBRANCH  28  30
ENDBRANCH  27  28
ENDBRANCH  26  27
ENDBRANCH  25  26
ENDBRANCH  24  25
ENDBRANCH  23  24
ENDBRANCH  22  23
ENDBRANCH  21  22
ENDBRANCH  20  21
ENDBRANCH  19  20
ENDBRANCH  18  19
ENDBRANCH   1  18
TORSDOF 16
ENDMDL
MODEL 7
REMARK VINA RESULT:      -6.5      7.662      9.107
REMARK  Name = 
REMARK  17 active torsions:
REMARK  status: ('A' for Active; 'I' for Inactive)
REMARK    1  A    between atoms: C_1  and  C_2
REMARK    2  A    between atoms: C_2  and  C_3
REMARK    3  A    between atoms: C_3  and  C_4
REMARK    4  A    between atoms: C_4  and  C_5
REMARK    5  A    between atoms: C_5  and  C_6
REMARK    6  A    between atoms: C_6  and  C_7
REMARK    7  A    between atoms: C_7  and  C_8
REMARK    8  A    between atoms: C_8  and  C_9
REMARK    9  A    between atoms: C_9  and  C_10
REMARK   10  A    between atoms: C_10  and  C_11
REMARK   11  A    between atoms: C_11  and  C_12
REMARK   12  A    between atoms: C_12  and  C_13
REMARK   13  A    between atoms: C_13  and  C_14
REMARK   14  A    between atoms: N_16  and  C_17
REMARK   15  A    between atoms: C_20  and  C_21
REMARK   16  A    between atoms: C_21  and  C_22
REMARK   17  A    between atoms: N_24  and  O_25
REMARK                            x       y       z     vdW  Elec       q    Type
REMARK                         _______ _______ _______ _____ _____    ______ ____
ROOT
ATOM      1  C   UNL     1       8.700   9.384  18.628  0.00  0.00    +0.000 C 
ATOM      2  O   UNL     1       8.227   9.987  17.661  0.00  0.00    +0.000 OA
ATOM      3  N   UNL     1       9.561   9.903  19.583  0.00  0.00    +0.000 N 
ATOM      4  H   UNL     1       9.978   9.256  20.232  0.00  0.00    +0.000 HD
ENDROOT
BRANCH   3   5
ATOM      5  C   UNL     1      10.061  11.229  19.583  0.00  0.00    +0.000 A 
ATOM      6  C   UNL     1      11.337  11.547  19.124  0.00  0.00    +0.000 A 
ATOM      7  C   UNL     1      11.823  12.853  19.191  0.00  0.00    +0.000 A 
ATOM      8  C   UNL     1      11.011  13.885  19.665  0.00  0.00    +0.000 A 
ATOM      9  C   UNL     1       9.731  13.572  20.143  0.00  0.00    +0.000 A 
ATOM     10  C   UNL     1       9.249  12.258  20.081  0.00  0.00    +0.000 A 
BRANCH   8  11
ATOM     11  C   UNL     1      11.486  15.315  19.610  0.00  0.00    +0.000 C 
BRANCH  11  12
ATOM     12  C   UNL     1      11.069  16.093  18.368  0.00  0.00    +0.000 C 
ATOM     13  O   UNL     1      10.711  17.273  18.434  0.00  0.00    +0.000 OA
ATOM     14  N   UNL     1      11.187  15.467  17.152  0.00  0.00    +0.000 N 
ATOM     15  H   UNL     1      11.222  14.460  17.023  0.00  0.00    +0.000 HD
BRANCH  14  16
ATOM     16  O   UNL     1      10.751  16.222  16.033  0.00  0.00    +0.000 OA
ATOM     17  H   UNL     1      11.000  17.139  16.289  0.00  0.00    +0.000 HD
ENDBRANCH  14  16
ENDBRANCH  11  12
ENDBRANCH   8  11
ENDBRANCH   3   5
BRANCH   1  18
ATOM     18  C   UNL     1       8.422   7.913  18.752  0.00  0.00    +0.000 C 
BRANCH  18  19
ATOM     19  C   UNL     1       7.573   7.461  17.572  0.00  0.00    +0.000 C 
BRANCH  19  20
ATOM     20  C   UNL     1       6.735   6.248  17.938  0.00  0.00    +0.000 C 
BRANCH  20  21
ATOM     21  C   UNL     1       7.453   4.968  17.533  0.00  0.00    +0.000 C 
BRANCH  21  22
ATOM     22  C   UNL     1       6.862   4.421  16.244  0.00  0.00    +0.000 C 
BRANCH  22  23
ATOM     23  C   UNL     1       5.466   4.982  16.023  0.00  0.00    +0.000 C 
BRANCH  23  24
ATOM     24  C   UNL     1       4.439   3.866  16.093  0.00  0.00    +0.000 C 
BRANCH  24  25
ATOM     25  C   UNL     1       4.110   3.549  17.540  0.00  0.00    +0.000 C 
BRANCH  25  26
ATOM     26  C   UNL     1       2.837   2.723  17.618  0.00  0.00    +0.000 C 
BRANCH  26  27
ATOM     27  C   UNL     1       1.673   3.596  18.060  0.00  0.00    +0.000 C 
BRANCH  27  28
ATOM     28  C   UNL     1       0.988   2.983  19.272  0.00  0.00    +0.000 C 
BRANCH  28  30
ATOM     29  C   UNL     1       2.296   4.438  20.824  0.00  0.00    +0.000 C 
ATOM     30  C   UNL     1       0.907   3.991  20.409  0.00  0.00    +0.000 C 
ENDBRANCH  28  30
ENDBRANCH  27  28
ENDBRANCH  26  27
ENDBRANCH  25  26
ENDBRANCH  24  25
ENDBRANCH  23  24
ENDBRANCH  22  23
ENDBRANCH  21  22
ENDBRANCH  20  21
ENDBRANCH  19  20
ENDBRANCH  18  19
ENDBRANCH   1  18
TORSDOF 16
ENDMDL
MODEL 8
REMARK VINA RESULT:      -6.4      3.697      5.273
REMARK  Name = 
REMARK  17 active torsions:
REMARK  status: ('A' for Active; 'I' for Inactive)
REMARK    1  A    between atoms: C_1  and  C_2
REMARK    2  A    between atoms: C_2  and  C_3
REMARK    3  A    between atoms: C_3  and  C_4
REMARK    4  A    between atoms: C_4  and  C_5
REMARK    5  A    between atoms: C_5  and  C_6
REMARK    6  A    between atoms: C_6  and  C_7
REMARK    7  A    between atoms: C_7  and  C_8
REMARK    8  A    between atoms: C_8  and  C_9
REMARK    9  A    between atoms: C_9  and  C_10
REMARK   10  A    between atoms: C_10  and  C_11
REMARK   11  A    between atoms: C_11  and  C_12
REMARK   12  A    between atoms: C_12  and  C_13
REMARK   13  A    between atoms: C_13  and  C_14
REMARK   14  A    between atoms: N_16  and  C_17
REMARK   15  A    between atoms: C_20  and  C_21
REMARK   16  A    between atoms: C_21  and  C_22
REMARK   17  A    between atoms: N_24  and  O_25
REMARK                            x       y       z     vdW  Elec       q    Type
REMARK                         _______ _______ _______ _____ _____    ______ ____
ROOT
ATOM      1  C   UNL     1       4.209   5.167  18.732  0.00  0.00    +0.000 C 
ATOM      2  O   UNL     1       4.517   5.390  19.905  0.00  0.00    +0.000 OA
ATOM      3  N   UNL     1       3.337   5.912  17.952  0.00  0.00    +0.000 N 
ATOM      4  H   UNL     1       3.071   5.530  17.060  0.00  0.00    +0.000 HD
ENDROOT
BRANCH   3   5
ATOM      5  C   UNL     1       2.631   7.057  18.400  0.00  0.00    +0.000 A 
ATOM      6  C   UNL     1       2.405   8.163  17.584  0.00  0.00    +0.000 A 
ATOM      7  C   UNL     1       1.759   9.299  18.072  0.00  0.00    +0.000 A 
ATOM      8  C   UNL     1       1.268   9.326  19.379  0.00  0.00    +0.000 A 
ATOM      9  C   UNL     1       1.504   8.223  20.212  0.00  0.00    +0.000 A 
ATOM     10  C   UNL     1       2.160   7.086  19.720  0.00  0.00    +0.000 A 
BRANCH   8  11
ATOM     11  C   UNL     1       0.450  10.497  19.862  0.00  0.00    +0.000 C 
BRANCH  11  12
ATOM     12  C   UNL     1      -0.600  11.008  18.884  0.00  0.00    +0.000 C 
ATOM     13  O   UNL     1      -1.688  10.439  18.746  0.00  0.00    +0.000 OA
ATOM     14  N   UNL     1      -0.335  12.178  18.216  0.00  0.00    +0.000 N 
ATOM     15  H   UNL     1       0.594  12.563  18.071  0.00  0.00    +0.000 HD
BRANCH  14  16
ATOM     16  O   UNL     1      -1.328  12.590  17.290  0.00  0.00    +0.000 OA
ATOM     17  H   UNL     1      -1.189  11.966  16.543  0.00  0.00    +0.000 HD
ENDBRANCH  14  16
ENDBRANCH  11  12
ENDBRANCH   8  11
ENDBRANCH   3   5
BRANCH   1  18
ATOM     18  C   UNL     1       4.726   3.912  18.088  0.00  0.00    +0.000 C 
BRANCH  18  19
ATOM     19  C   UNL     1       4.524   4.002  16.582  0.00  0.00    +0.000 C 
BRANCH  19  20
ATOM     20  C   UNL     1       5.842   3.838  15.845  0.00  0.00    +0.000 C 
BRANCH  20  21
ATOM     21  C   UNL     1       6.998   4.299  16.722  0.00  0.00    +0.000 C 
BRANCH  21  22
ATOM     22  C   UNL     1       7.251   5.784  16.517  0.00  0.00    +0.000 C 
BRANCH  22  23
ATOM     23  C   UNL     1       7.463   6.473  17.855  0.00  0.00    +0.000 C 
BRANCH  23  24
ATOM     24  C   UNL     1       7.098   7.943  17.748  0.00  0.00    +0.000 C 
BRANCH  24  25
ATOM     25  C   UNL     1       8.327   8.761  17.395  0.00  0.00    +0.000 C 
BRANCH  25  26
ATOM     26  C   UNL     1       8.287  10.101  18.112  0.00  0.00    +0.000 C 
BRANCH  26  27
ATOM     27  C   UNL     1       9.269  10.103  19.273  0.00  0.00    +0.000 C 
BRANCH  27  28
ATOM     28  C   UNL     1      10.009  11.430  19.331  0.00  0.00    +0.000 C 
BRANCH  28  30
ATOM     29  C   UNL     1      10.791  12.841  17.425  0.00  0.00    +0.000 C 
ATOM     30  C   UNL     1      11.000  11.543  18.182  0.00  0.00    +0.000 C 
ENDBRANCH  28  30
ENDBRANCH  27  28
ENDBRANCH  26  27
ENDBRANCH  25  26
ENDBRANCH  24  25
ENDBRANCH  23  24
ENDBRANCH  22  23
ENDBRANCH  21  22
ENDBRANCH  20  21
ENDBRANCH  19  20
ENDBRANCH  18  19
ENDBRANCH   1  18
TORSDOF 16
ENDMDL
MODEL 9
REMARK VINA RESULT:      -6.4      3.113      4.425
REMARK  Name = 
REMARK  17 active torsions:
REMARK  status: ('A' for Active; 'I' for Inactive)
REMARK    1  A    between atoms: C_1  and  C_2
REMARK    2  A    between atoms: C_2  and  C_3
REMARK    3  A    between atoms: C_3  and  C_4
REMARK    4  A    between atoms: C_4  and  C_5
REMARK    5  A    between atoms: C_5  and  C_6
REMARK    6  A    between atoms: C_6  and  C_7
REMARK    7  A    between atoms: C_7  and  C_8
REMARK    8  A    between atoms: C_8  and  C_9
REMARK    9  A    between atoms: C_9  and  C_10
REMARK   10  A    between atoms: C_10  and  C_11
REMARK   11  A    between atoms: C_11  and  C_12
REMARK   12  A    between atoms: C_12  and  C_13
REMARK   13  A    between atoms: C_13  and  C_14
REMARK   14  A    between atoms: N_16  and  C_17
REMARK   15  A    between atoms: C_20  and  C_21
REMARK   16  A    between atoms: C_21  and  C_22
REMARK   17  A    between atoms: N_24  and  O_25
REMARK                            x       y       z     vdW  Elec       q    Type
REMARK                         _______ _______ _______ _____ _____    ______ ____
ROOT
ATOM      1  C   UNL     1       2.044   7.141  19.980  0.00  0.00    +0.000 C 
ATOM      2  O   UNL     1       2.308   7.888  19.036  0.00  0.00    +0.000 OA
ATOM      3  N   UNL     1       1.230   7.436  21.064  0.00  0.00    +0.000 N 
ATOM      4  H   UNL     1       1.220   6.782  21.829  0.00  0.00    +0.000 HD
ENDROOT
BRANCH   3   5
ATOM      5  C   UNL     1       0.581   8.680  21.269  0.00  0.00    +0.000 A 
ATOM      6  C   UNL     1       0.224   9.519  20.217  0.00  0.00    +0.000 A 
ATOM      7  C   UNL     1      -0.361  10.763  20.454  0.00  0.00    +0.000 A 
ATOM      8  C   UNL     1      -0.658  11.168  21.757  0.00  0.00    +0.000 A 
ATOM      9  C   UNL     1      -0.288  10.336  22.823  0.00  0.00    +0.000 A 
ATOM     10  C   UNL     1       0.306   9.090  22.582  0.00  0.00    +0.000 A 
BRANCH   8  11
ATOM     11  C   UNL     1      -1.413  12.450  22.004  0.00  0.00    +0.000 C 
BRANCH  11  12
ATOM     12  C   UNL     1      -0.616  13.556  22.685  0.00  0.00    +0.000 C 
ATOM     13  O   UNL     1      -0.838  13.888  23.853  0.00  0.00    +0.000 OA
ATOM     14  N   UNL     1       0.422  14.119  21.985  0.00  0.00    +0.000 N 
ATOM     15  H   UNL     1       0.515  14.098  20.973  0.00  0.00    +0.000 HD
BRANCH  14  16
ATOM     16  O   UNL     1       1.107  15.168  22.649  0.00  0.00    +0.000 OA
ATOM     17  H   UNL     1       1.257  15.813  21.922  0.00  0.00    +0.000 HD
ENDBRANCH  14  16
ENDBRANCH  11  12
ENDBRANCH   8  11
ENDBRANCH   3   5
BRANCH   1  18
ATOM     18  C   UNL     1       2.741   5.811  20.051  0.00  0.00    +0.000 C 
BRANCH  18  19
ATOM     19  C   UNL     1       2.175   5.011  21.216  0.00  0.00    +0.000 C 
BRANCH  19  20
ATOM     20  C   UNL     1       1.892   3.576  20.803  0.00  0.00    +0.000 C 
BRANCH  20  21
ATOM     21  C   UNL     1       0.824   3.539  19.719  0.00  0.00    +0.000 C 
BRANCH  21  22
ATOM     22  C   UNL     1       1.314   2.732  18.528  0.00  0.00    +0.000 C 
BRANCH  22  23
ATOM     23  C   UNL     1       2.611   2.019  18.871  0.00  0.00    +0.000 C 
BRANCH  23  24
ATOM     24  C   UNL     1       3.695   2.401  17.878  0.00  0.00    +0.000 C 
BRANCH  24  25
ATOM     25  C   UNL     1       3.291   3.654  17.122  0.00  0.00    +0.000 C 
BRANCH  25  26
ATOM     26  C   UNL     1       4.483   4.588  16.984  0.00  0.00    +0.000 C 
BRANCH  26  27
ATOM     27  C   UNL     1       5.556   4.218  17.996  0.00  0.00    +0.000 C 
BRANCH  27  28
ATOM     28  C   UNL     1       6.078   5.468  18.688  0.00  0.00    +0.000 C 
BRANCH  28  30
ATOM     29  C   UNL     1       7.500   7.178  17.553  0.00  0.00    +0.000 C 
ATOM     30  C   UNL     1       7.479   5.806  18.199  0.00  0.00    +0.000 C 
ENDBRANCH  28  30
ENDBRANCH  27  28
ENDBRANCH  26  27
ENDBRANCH  25  26
ENDBRANCH  24  25
ENDBRANCH  23  24
ENDBRANCH  22  23
ENDBRANCH  21  22
ENDBRANCH  20  21
ENDBRANCH  19  20
ENDBRANCH  18  19
ENDBRANCH   1  18
TORSDOF 16
ENDMDL
