MODEL 1
REMARK VINA RESULT:      -7.5      0.000      0.000
REMARK  Name = 
REMARK  9 active torsions:
REMARK  status: ('A' for Active; 'I' for Inactive)
REMARK    1  A    between atoms: C_1  and  S_2
REMARK    2  A    between atoms: S_2  and  C_3
REMARK    3  A    between atoms: C_3  and  C_4
REMARK    4  A    between atoms: C_4  and  C_5
REMARK    5  A    between atoms: C_5  and  N_6
REMARK    6  A    between atoms: C_5  and  C_17
REMARK    7  A    between atoms: C_7  and  C_9
REMARK    8  A    between atoms: C_9  and  O_10
REMARK    9  A    between atoms: O_10  and  C_11
REMARK                            x       y       z     vdW  Elec       q    Type
REMARK                         _______ _______ _______ _____ _____    ______ ____
ROOT
ATOM      1  C   UNL     1       4.221   5.874  17.243  0.00  0.00    +0.000 C 
ENDROOT
BRANCH   1   2
ATOM      2  C   UNL     1       3.948   4.401  17.681  0.00  0.00    +0.000 C 
ATOM      3  O   UNL     1       4.157   3.478  16.885  0.00  0.00    +0.000 OA
ATOM      4  N   UNL     1       3.505   4.132  18.979  0.00  0.00    +0.000 N 
ATOM      5  C   UNL     1       3.493   2.730  19.404  0.00  0.00    +0.000 C 
ATOM      6  C   UNL     1       2.102   2.109  19.334  0.00  0.00    +0.000 C 
ATOM      7  C   UNL     1       1.173   2.523  20.472  0.00  0.00    +0.000 C 
ATOM      8  C   UNL     1       0.989   4.031  20.633  0.00  0.00    +0.000 C 
ATOM      9  C   UNL     1       2.262   4.728  21.114  0.00  0.00    +0.000 C 
ATOM     10  C   UNL     1       3.183   5.157  19.971  0.00  0.00    +0.000 C 
ENDBRANCH   1   2
BRANCH   1  11
ATOM     11  N   UNL     1       5.443   6.445  17.823  0.00  0.00    +0.000 N 
ATOM     12  C   UNL     1       6.745   6.074  17.633  0.00  0.00    +0.000 C 
ATOM     13  O   UNL     1       7.622   6.659  18.292  0.00  0.00    +0.000 OA
ATOM     14  H   UNL     1       5.333   7.154  18.538  0.00  0.00    +0.000 HD
BRANCH  12  15
ATOM     15  C   UNL     1       7.085   4.993  16.621  0.00  0.00    +0.000 C 
BRANCH  15  16
ATOM     16  O   UNL     1       7.593   5.593  15.434  0.00  0.00    +0.000 OA
BRANCH  16  17
ATOM     17  C   UNL     1       7.222   5.011  14.251  0.00  0.00    +0.000 A 
ATOM     18  C   UNL     1       6.133   4.143  14.350  0.00  0.00    +0.000 A 
ATOM     19  C   UNL     1       5.691   3.433  13.234  0.00  0.00    +0.000 A 
ATOM     20  C   UNL     1       6.315   3.614  12.002  0.00  0.00    +0.000 A 
ATOM     21  C   UNL     1       7.355   4.532  11.880  0.00  0.00    +0.000 A 
ATOM     22  C   UNL     1       7.802   5.237  13.001  0.00  0.00    +0.000 A 
ENDBRANCH  16  17
ENDBRANCH  15  16
ENDBRANCH  12  15
ENDBRANCH   1  11
BRANCH   1  23
ATOM     23  C   UNL     1       2.971   6.746  17.482  0.00  0.00    +0.000 C 
BRANCH  23  24
ATOM     24  C   UNL     1       3.240   8.212  17.798  0.00  0.00    +0.000 C 
BRANCH  24  26
ATOM     25  C   UNL     1       1.424   9.032  19.678  0.00  0.00    +0.000 C 
ATOM     26  S   UNL     1       1.669   9.121  17.895  0.00  0.00    +0.000 S 
ENDBRANCH  24  26
ENDBRANCH  23  24
ENDBRANCH   1  23
TORSDOF 8
ENDMDL
MODEL 2
REMARK VINA RESULT:      -7.4      2.389      5.661
REMARK  Name = 
REMARK  9 active torsions:
REMARK  status: ('A' for Active; 'I' for Inactive)
REMARK    1  A    between atoms: C_1  and  S_2
REMARK    2  A    between atoms: S_2  and  C_3
REMARK    3  A    between atoms: C_3  and  C_4
REMARK    4  A    between atoms: C_4  and  C_5
REMARK    5  A    between atoms: C_5  and  N_6
REMARK    6  A    between atoms: C_5  and  C_17
REMARK    7  A    between atoms: C_7  and  C_9
REMARK    8  A    between atoms: C_9  and  O_10
REMARK    9  A    between atoms: O_10  and  C_11
REMARK                            x       y       z     vdW  Elec       q    Type
REMARK                         _______ _______ _______ _____ _____    ______ ____
ROOT
ATOM      1  C   UNL     1       4.878   3.446  17.142  0.00  0.00    +0.000 C 
ENDROOT
BRANCH   1   2
ATOM      2  C   UNL     1       3.378   3.176  17.478  0.00  0.00    +0.000 C 
ATOM      3  O   UNL     1       2.506   3.445  16.644  0.00  0.00    +0.000 OA
ATOM      4  N   UNL     1       3.034   2.599  18.704  0.00  0.00    +0.000 N 
ATOM      5  C   UNL     1       1.647   2.153  18.867  0.00  0.00    +0.000 C 
ATOM      6  C   UNL     1       0.804   3.145  19.663  0.00  0.00    +0.000 C 
ATOM      7  C   UNL     1       1.054   3.113  21.168  0.00  0.00    +0.000 C 
ATOM      8  C   UNL     1       2.510   3.320  21.582  0.00  0.00    +0.000 C 
ATOM      9  C   UNL     1       3.406   2.150  21.178  0.00  0.00    +0.000 C 
ATOM     10  C   UNL     1       3.987   2.293  19.770  0.00  0.00    +0.000 C 
ENDBRANCH   1   2
BRANCH   1  11
ATOM     11  N   UNL     1       5.670   3.892  18.294  0.00  0.00    +0.000 N 
ATOM     12  C   UNL     1       5.673   5.107  18.923  0.00  0.00    +0.000 C 
ATOM     13  O   UNL     1       6.489   5.287  19.843  0.00  0.00    +0.000 OA
ATOM     14  H   UNL     1       6.389   3.267  18.637  0.00  0.00    +0.000 HD
BRANCH  12  15
ATOM     15  C   UNL     1       4.680   6.179  18.505  0.00  0.00    +0.000 C 
BRANCH  15  16
ATOM     16  O   UNL     1       3.478   6.034  19.253  0.00  0.00    +0.000 OA
BRANCH  16  17
ATOM     17  C   UNL     1       2.638   7.115  19.270  0.00  0.00    +0.000 A 
ATOM     18  C   UNL     1       2.488   7.751  18.036  0.00  0.00    +0.000 A 
ATOM     19  C   UNL     1       1.713   8.905  17.925  0.00  0.00    +0.000 A 
ATOM     20  C   UNL     1       1.052   9.410  19.043  0.00  0.00    +0.000 A 
ATOM     21  C   UNL     1       1.137   8.739  20.260  0.00  0.00    +0.000 A 
ATOM     22  C   UNL     1       1.922   7.588  20.372  0.00  0.00    +0.000 A 
ENDBRANCH  16  17
ENDBRANCH  15  16
ENDBRANCH  12  15
ENDBRANCH   1  11
BRANCH   1  23
ATOM     23  C   UNL     1       4.994   4.388  15.925  0.00  0.00    +0.000 C 
BRANCH  23  24
ATOM     24  C   UNL     1       6.368   4.454  15.271  0.00  0.00    +0.000 C 
BRANCH  24  26
ATOM     25  C   UNL     1       7.575   4.933  12.859  0.00  0.00    +0.000 C 
ATOM     26  S   UNL     1       6.255   3.912  13.539  0.00  0.00    +0.000 S 
ENDBRANCH  24  26
ENDBRANCH  23  24
ENDBRANCH   1  23
TORSDOF 8
ENDMDL
MODEL 3
REMARK VINA RESULT:      -7.2      1.506      1.889
REMARK  Name = 
REMARK  9 active torsions:
REMARK  status: ('A' for Active; 'I' for Inactive)
REMARK    1  A    between atoms: C_1  and  S_2
REMARK    2  A    between atoms: S_2  and  C_3
REMARK    3  A    between atoms: C_3  and  C_4
REMARK    4  A    between atoms: C_4  and  C_5
REMARK    5  A    between atoms: C_5  and  N_6
REMARK    6  A    between atoms: C_5  and  C_17
REMARK    7  A    between atoms: C_7  and  C_9
REMARK    8  A    between atoms: C_9  and  O_10
REMARK    9  A    between atoms: O_10  and  C_11
REMARK                            x       y       z     vdW  Elec       q    Type
REMARK                         _______ _______ _______ _____ _____    ______ ____
ROOT
ATOM      1  C   UNL     1       3.870   6.672  17.997  0.00  0.00    +0.000 C 
ENDROOT
BRANCH   1   2
ATOM      2  C   UNL     1       4.143   5.512  19.005  0.00  0.00    +0.000 C 
ATOM      3  O   UNL     1       5.081   5.605  19.805  0.00  0.00    +0.000 OA
ATOM      4  N   UNL     1       3.305   4.393  19.021  0.00  0.00    +0.000 N 
ATOM      5  C   UNL     1       3.464   3.456  20.135  0.00  0.00    +0.000 C 
ATOM      6  C   UNL     1       4.275   2.222  19.751  0.00  0.00    +0.000 C 
ATOM      7  C   UNL     1       3.504   1.199  18.921  0.00  0.00    +0.000 C 
ATOM      8  C   UNL     1       2.881   1.749  17.641  0.00  0.00    +0.000 C 
ATOM      9  C   UNL     1       1.737   2.725  17.918  0.00  0.00    +0.000 C 
ATOM     10  C   UNL     1       2.205   4.171  18.083  0.00  0.00    +0.000 C 
ENDBRANCH   1   2
BRANCH   1  11
ATOM     11  N   UNL     1       5.071   7.437  17.638  0.00  0.00    +0.000 N 
ATOM     12  C   UNL     1       6.203   7.018  16.996  0.00  0.00    +0.000 C 
ATOM     13  O   UNL     1       7.134   7.830  16.863  0.00  0.00    +0.000 OA
ATOM     14  H   UNL     1       5.139   8.387  17.982  0.00  0.00    +0.000 HD
BRANCH  12  15
ATOM     15  C   UNL     1       6.284   5.602  16.449  0.00  0.00    +0.000 C 
BRANCH  15  16
ATOM     16  O   UNL     1       7.352   5.513  15.513  0.00  0.00    +0.000 OA
BRANCH  16  17
ATOM     17  C   UNL     1       7.056   4.939  14.305  0.00  0.00    +0.000 A 
ATOM     18  C   UNL     1       5.925   4.121  14.316  0.00  0.00    +0.000 A 
ATOM     19  C   UNL     1       5.547   3.422  13.169  0.00  0.00    +0.000 A 
ATOM     20  C   UNL     1       6.280   3.566  11.994  0.00  0.00    +0.000 A 
ATOM     21  C   UNL     1       7.366   4.436  11.956  0.00  0.00    +0.000 A 
ATOM     22  C   UNL     1       7.749   5.130  13.107  0.00  0.00    +0.000 A 
ENDBRANCH  16  17
ENDBRANCH  15  16
ENDBRANCH  12  15
ENDBRANCH   1  11
BRANCH   1  23
ATOM     23  C   UNL     1       2.713   7.560  18.500  0.00  0.00    +0.000 C 
BRANCH  23  24
ATOM     24  C   UNL     1       2.416   8.795  17.659  0.00  0.00    +0.000 C 
BRANCH  24  26
ATOM     25  C   UNL     1       1.669  11.252  18.612  0.00  0.00    +0.000 C 
ATOM     26  S   UNL     1       0.936   9.636  18.298  0.00  0.00    +0.000 S 
ENDBRANCH  24  26
ENDBRANCH  23  24
ENDBRANCH   1  23
TORSDOF 8
ENDMDL
MODEL 4
REMARK VINA RESULT:      -7.2      3.508      7.715
REMARK  Name = 
REMARK  9 active torsions:
REMARK  status: ('A' for Active; 'I' for Inactive)
REMARK    1  A    between atoms: C_1  and  S_2
REMARK    2  A    between atoms: S_2  and  C_3
REMARK    3  A    between atoms: C_3  and  C_4
REMARK    4  A    between atoms: C_4  and  C_5
REMARK    5  A    between atoms: C_5  and  N_6
REMARK    6  A    between atoms: C_5  and  C_17
REMARK    7  A    between atoms: C_7  and  C_9
REMARK    8  A    between atoms: C_9  and  O_10
REMARK    9  A    between atoms: O_10  and  C_11
REMARK                            x       y       z     vdW  Elec       q    Type
REMARK                         _______ _______ _______ _____ _____    ______ ____
ROOT
ATOM      1  C   UNL     1       2.404   5.941  19.373  0.00  0.00    +0.000 C 
ENDROOT
BRANCH   1   2
ATOM      2  C   UNL     1       3.833   5.324  19.484  0.00  0.00    +0.000 C 
ATOM      3  O   UNL     1       4.129   4.640  20.470  0.00  0.00    +0.000 OA
ATOM      4  N   UNL     1       4.757   5.519  18.453  0.00  0.00    +0.000 N 
ATOM      5  C   UNL     1       5.989   4.727  18.501  0.00  0.00    +0.000 C 
ATOM      6  C   UNL     1       7.174   5.522  19.040  0.00  0.00    +0.000 C 
ATOM      7  C   UNL     1       7.775   6.507  18.041  0.00  0.00    +0.000 C 
ATOM      8  C   UNL     1       6.784   7.511  17.454  0.00  0.00    +0.000 C 
ATOM      9  C   UNL     1       5.757   6.851  16.534  0.00  0.00    +0.000 C 
ATOM     10  C   UNL     1       4.516   6.352  17.275  0.00  0.00    +0.000 C 
ENDBRANCH   1   2
BRANCH   1  11
ATOM     11  N   UNL     1       2.032   6.779  20.519  0.00  0.00    +0.000 N 
ATOM     12  C   UNL     1       1.648   8.092  20.542  0.00  0.00    +0.000 C 
ATOM     13  O   UNL     1       1.450   8.624  21.648  0.00  0.00    +0.000 OA
ATOM     14  H   UNL     1       2.155   6.387  21.444  0.00  0.00    +0.000 HD
BRANCH  12  15
ATOM     15  C   UNL     1       1.453   8.847  19.237  0.00  0.00    +0.000 C 
BRANCH  15  16
ATOM     16  O   UNL     1       0.935  10.144  19.510  0.00  0.00    +0.000 OA
BRANCH  16  17
ATOM     17  C   UNL     1      -0.274  10.447  18.944  0.00  0.00    +0.000 A 
ATOM     18  C   UNL     1      -0.974  11.470  19.586  0.00  0.00    +0.000 A 
ATOM     19  C   UNL     1      -2.248  11.835  19.153  0.00  0.00    +0.000 A 
ATOM     20  C   UNL     1      -2.817  11.201  18.050  0.00  0.00    +0.000 A 
ATOM     21  C   UNL     1      -2.095  10.232  17.360  0.00  0.00    +0.000 A 
ATOM     22  C   UNL     1      -0.821   9.861  17.799  0.00  0.00    +0.000 A 
ENDBRANCH  16  17
ENDBRANCH  15  16
ENDBRANCH  12  15
ENDBRANCH   1  11
BRANCH   1  23
ATOM     23  C   UNL     1       1.366   4.841  19.065  0.00  0.00    +0.000 C 
BRANCH  23  24
ATOM     24  C   UNL     1       1.753   3.859  17.966  0.00  0.00    +0.000 C 
BRANCH  24  26
ATOM     25  C   UNL     1       3.482   1.746  18.183  0.00  0.00    +0.000 C 
ATOM     26  S   UNL     1       1.789   2.168  18.633  0.00  0.00    +0.000 S 
ENDBRANCH  24  26
ENDBRANCH  23  24
ENDBRANCH   1  23
TORSDOF 8
ENDMDL
MODEL 5
REMARK VINA RESULT:      -7.2      3.450      7.661
REMARK  Name = 
REMARK  9 active torsions:
REMARK  status: ('A' for Active; 'I' for Inactive)
REMARK    1  A    between atoms: C_1  and  S_2
REMARK    2  A    between atoms: S_2  and  C_3
REMARK    3  A    between atoms: C_3  and  C_4
REMARK    4  A    between atoms: C_4  and  C_5
REMARK    5  A    between atoms: C_5  and  N_6
REMARK    6  A    between atoms: C_5  and  C_17
REMARK    7  A    between atoms: C_7  and  C_9
REMARK    8  A    between atoms: C_9  and  O_10
REMARK    9  A    between atoms: O_10  and  C_11
REMARK                            x       y       z     vdW  Elec       q    Type
REMARK                         _______ _______ _______ _____ _____    ______ ____
ROOT
ATOM      1  C   UNL     1       2.533   5.910  19.194  0.00  0.00    +0.000 C 
ENDROOT
BRANCH   1   2
ATOM      2  C   UNL     1       3.973   5.347  19.402  0.00  0.00    +0.000 C 
ATOM      3  O   UNL     1       4.231   4.684  20.413  0.00  0.00    +0.000 OA
ATOM      4  N   UNL     1       4.952   5.565  18.429  0.00  0.00    +0.000 N 
ATOM      5  C   UNL     1       6.206   4.819  18.563  0.00  0.00    +0.000 C 
ATOM      6  C   UNL     1       7.326   5.662  19.166  0.00  0.00    +0.000 C 
ATOM      7  C   UNL     1       7.953   6.658  18.194  0.00  0.00    +0.000 C 
ATOM      8  C   UNL     1       6.966   7.619  17.535  0.00  0.00    +0.000 C 
ATOM      9  C   UNL     1       6.023   6.914  16.560  0.00  0.00    +0.000 C 
ATOM     10  C   UNL     1       4.757   6.377  17.228  0.00  0.00    +0.000 C 
ENDBRANCH   1   2
BRANCH   1  11
ATOM     11  N   UNL     1       1.998   6.610  20.368  0.00  0.00    +0.000 N 
ATOM     12  C   UNL     1       1.589   7.910  20.487  0.00  0.00    +0.000 C 
ATOM     13  O   UNL     1       1.237   8.311  21.610  0.00  0.00    +0.000 OA
ATOM     14  H   UNL     1       2.006   6.115  21.251  0.00  0.00    +0.000 HD
BRANCH  12  15
ATOM     15  C   UNL     1       1.553   8.808  19.262  0.00  0.00    +0.000 C 
BRANCH  15  16
ATOM     16  O   UNL     1       1.053  10.091  19.625  0.00  0.00    +0.000 OA
BRANCH  16  17
ATOM     17  C   UNL     1      -0.164  10.440  19.103  0.00  0.00    +0.000 A 
ATOM     18  C   UNL     1      -0.508   9.761  17.934  0.00  0.00    +0.000 A 
ATOM     19  C   UNL     1      -1.691  10.066  17.261  0.00  0.00    +0.000 A 
ATOM     20  C   UNL     1      -2.555  11.030  17.775  0.00  0.00    +0.000 A 
ATOM     21  C   UNL     1      -2.254  11.658  18.980  0.00  0.00    +0.000 A 
ATOM     22  C   UNL     1      -1.064  11.358  19.649  0.00  0.00    +0.000 A 
ENDBRANCH  16  17
ENDBRANCH  15  16
ENDBRANCH  12  15
ENDBRANCH   1  11
BRANCH   1  23
ATOM     23  C   UNL     1       1.594   4.803  18.668  0.00  0.00    +0.000 C 
BRANCH  23  24
ATOM     24  C   UNL     1       1.068   3.832  19.717  0.00  0.00    +0.000 C 
BRANCH  24  26
ATOM     25  C   UNL     1       2.377   2.444  17.750  0.00  0.00    +0.000 C 
ATOM     26  S   UNL     1       1.748   2.172  19.417  0.00  0.00    +0.000 S 
ENDBRANCH  24  26
ENDBRANCH  23  24
ENDBRANCH   1  23
TORSDOF 8
ENDMDL
MODEL 6
REMARK VINA RESULT:      -7.1      1.435      2.045
REMARK  Name = 
REMARK  9 active torsions:
REMARK  status: ('A' for Active; 'I' for Inactive)
REMARK    1  A    between atoms: C_1  and  S_2
REMARK    2  A    between atoms: S_2  and  C_3
REMARK    3  A    between atoms: C_3  and  C_4
REMARK    4  A    between atoms: C_4  and  C_5
REMARK    5  A    between atoms: C_5  and  N_6
REMARK    6  A    between atoms: C_5  and  C_17
REMARK    7  A    between atoms: C_7  and  C_9
REMARK    8  A    between atoms: C_9  and  O_10
REMARK    9  A    between atoms: O_10  and  C_11
REMARK                            x       y       z     vdW  Elec       q    Type
REMARK                         _______ _______ _______ _____ _____    ______ ____
ROOT
ATOM      1  C   UNL     1       3.963   6.658  17.965  0.00  0.00    +0.000 C 
ENDROOT
BRANCH   1   2
ATOM      2  C   UNL     1       4.223   5.489  18.965  0.00  0.00    +0.000 C 
ATOM      3  O   UNL     1       5.174   5.559  19.752  0.00  0.00    +0.000 OA
ATOM      4  N   UNL     1       3.360   4.390  18.989  0.00  0.00    +0.000 N 
ATOM      5  C   UNL     1       3.514   3.445  20.098  0.00  0.00    +0.000 C 
ATOM      6  C   UNL     1       4.291   2.195  19.699  0.00  0.00    +0.000 C 
ATOM      7  C   UNL     1       3.486   1.192  18.877  0.00  0.00    +0.000 C 
ATOM      8  C   UNL     1       2.858   1.761  17.606  0.00  0.00    +0.000 C 
ATOM      9  C   UNL     1       1.740   2.761  17.902  0.00  0.00    +0.000 C 
ATOM     10  C   UNL     1       2.243   4.196  18.066  0.00  0.00    +0.000 C 
ENDBRANCH   1   2
BRANCH   1  11
ATOM     11  N   UNL     1       5.163   7.444  17.650  0.00  0.00    +0.000 N 
ATOM     12  C   UNL     1       6.335   7.039  17.075  0.00  0.00    +0.000 C 
ATOM     13  O   UNL     1       7.253   7.871  16.971  0.00  0.00    +0.000 OA
ATOM     14  H   UNL     1       5.191   8.403  17.976  0.00  0.00    +0.000 HD
BRANCH  12  15
ATOM     15  C   UNL     1       6.476   5.615  16.564  0.00  0.00    +0.000 C 
BRANCH  15  16
ATOM     16  O   UNL     1       7.430   5.579  15.509  0.00  0.00    +0.000 OA
BRANCH  16  17
ATOM     17  C   UNL     1       7.054   4.916  14.371  0.00  0.00    +0.000 A 
ATOM     18  C   UNL     1       7.806   5.235  13.239  0.00  0.00    +0.000 A 
ATOM     19  C   UNL     1       7.488   4.682  12.000  0.00  0.00    +0.000 A 
ATOM     20  C   UNL     1       6.434   3.776  11.891  0.00  0.00    +0.000 A 
ATOM     21  C   UNL     1       5.727   3.397  13.028  0.00  0.00    +0.000 A 
ATOM     22  C   UNL     1       6.041   3.959  14.269  0.00  0.00    +0.000 A 
ENDBRANCH  16  17
ENDBRANCH  15  16
ENDBRANCH  12  15
ENDBRANCH   1  11
BRANCH   1  23
ATOM     23  C   UNL     1       2.780   7.524  18.446  0.00  0.00    +0.000 C 
BRANCH  23  24
ATOM     24  C   UNL     1       2.497   8.772  17.620  0.00  0.00    +0.000 C 
BRANCH  24  26
ATOM     25  C   UNL     1       1.217   8.986  20.032  0.00  0.00    +0.000 C 
ATOM     26  S   UNL     1       1.167   9.739  18.396  0.00  0.00    +0.000 S 
ENDBRANCH  24  26
ENDBRANCH  23  24
ENDBRANCH   1  23
TORSDOF 8
ENDMDL
MODEL 7
REMARK VINA RESULT:      -7.0      2.956      5.515
REMARK  Name = 
REMARK  9 active torsions:
REMARK  status: ('A' for Active; 'I' for Inactive)
REMARK    1  A    between atoms: C_1  and  S_2
REMARK    2  A    between atoms: S_2  and  C_3
REMARK    3  A    between atoms: C_3  and  C_4
REMARK    4  A    between atoms: C_4  and  C_5
REMARK    5  A    between atoms: C_5  and  N_6
REMARK    6  A    between atoms: C_5  and  C_17
REMARK    7  A    between atoms: C_7  and  C_9
REMARK    8  A    between atoms: C_9  and  O_10
REMARK    9  A    between atoms: O_10  and  C_11
REMARK                            x       y       z     vdW  Elec       q    Type
REMARK                         _______ _______ _______ _____ _____    ______ ____
ROOT
ATOM      1  C   UNL     1       5.142   4.837  17.850  0.00  0.00    +0.000 C 
ENDROOT
BRANCH   1   2
ATOM      2  C   UNL     1       4.156   3.627  17.845  0.00  0.00    +0.000 C 
ATOM      3  O   UNL     1       4.059   2.921  16.835  0.00  0.00    +0.000 OA
ATOM      4  N   UNL     1       3.415   3.329  18.993  0.00  0.00    +0.000 N 
ATOM      5  C   UNL     1       2.692   2.055  19.008  0.00  0.00    +0.000 C 
ATOM      6  C   UNL     1       1.208   2.222  18.698  0.00  0.00    +0.000 C 
ATOM      7  C   UNL     1       0.383   2.773  19.859  0.00  0.00    +0.000 C 
ATOM      8  C   UNL     1       0.881   4.101  20.426  0.00  0.00    +0.000 C 
ATOM      9  C   UNL     1       2.223   3.966  21.145  0.00  0.00    +0.000 C 
ATOM     10  C   UNL     1       3.425   4.133  20.214  0.00  0.00    +0.000 C 
ENDBRANCH   1   2
BRANCH   1  11
ATOM     11  N   UNL     1       5.283   5.489  16.543  0.00  0.00    +0.000 N 
ATOM     12  C   UNL     1       4.862   6.728  16.145  0.00  0.00    +0.000 C 
ATOM     13  O   UNL     1       5.026   7.047  14.955  0.00  0.00    +0.000 OA
ATOM     14  H   UNL     1       5.658   4.935  15.783  0.00  0.00    +0.000 HD
BRANCH  12  15
ATOM     15  C   UNL     1       4.238   7.677  17.155  0.00  0.00    +0.000 C 
BRANCH  15  16
ATOM     16  O   UNL     1       3.018   7.125  17.637  0.00  0.00    +0.000 OA
BRANCH  16  17
ATOM     17  C   UNL     1       2.258   7.935  18.438  0.00  0.00    +0.000 A 
ATOM     18  C   UNL     1       2.166   7.514  19.766  0.00  0.00    +0.000 A 
ATOM     19  C   UNL     1       1.371   8.212  20.675  0.00  0.00    +0.000 A 
ATOM     20  C   UNL     1       0.690   9.357  20.269  0.00  0.00    +0.000 A 
ATOM     21  C   UNL     1       0.836   9.825  18.966  0.00  0.00    +0.000 A 
ATOM     22  C   UNL     1       1.627   9.121  18.053  0.00  0.00    +0.000 A 
ENDBRANCH  16  17
ENDBRANCH  15  16
ENDBRANCH  12  15
ENDBRANCH   1  11
BRANCH   1  23
ATOM     23  C   UNL     1       6.494   4.425  18.471  0.00  0.00    +0.000 C 
BRANCH  23  24
ATOM     24  C   UNL     1       7.721   5.127  17.904  0.00  0.00    +0.000 C 
BRANCH  24  26
ATOM     25  C   UNL     1       7.847   7.850  17.626  0.00  0.00    +0.000 C 
ATOM     26  S   UNL     1       8.105   6.600  18.899  0.00  0.00    +0.000 S 
ENDBRANCH  24  26
ENDBRANCH  23  24
ENDBRANCH   1  23
TORSDOF 8
ENDMDL
MODEL 8
REMARK VINA RESULT:      -7.0      1.104      1.542
REMARK  Name = 
REMARK  9 active torsions:
REMARK  status: ('A' for Active; 'I' for Inactive)
REMARK    1  A    between atoms: C_1  and  S_2
REMARK    2  A    between atoms: S_2  and  C_3
REMARK    3  A    between atoms: C_3  and  C_4
REMARK    4  A    between atoms: C_4  and  C_5
REMARK    5  A    between atoms: C_5  and  N_6
REMARK    6  A    between atoms: C_5  and  C_17
REMARK    7  A    between atoms: C_7  and  C_9
REMARK    8  A    between atoms: C_9  and  O_10
REMARK    9  A    between atoms: O_10  and  C_11
REMARK                            x       y       z     vdW  Elec       q    Type
REMARK                         _______ _______ _______ _____ _____    ______ ____
ROOT
ATOM      1  C   UNL     1       4.265   5.043  17.469  0.00  0.00    +0.000 C 
ENDROOT
BRANCH   1   2
ATOM      2  C   UNL     1       3.168   3.935  17.539  0.00  0.00    +0.000 C 
ATOM      3  O   UNL     1       2.493   3.679  16.536  0.00  0.00    +0.000 OA
ATOM      4  N   UNL     1       2.981   3.216  18.724  0.00  0.00    +0.000 N 
ATOM      5  C   UNL     1       2.110   2.040  18.660  0.00  0.00    +0.000 C 
ATOM      6  C   UNL     1       0.709   2.320  19.194  0.00  0.00    +0.000 C 
ATOM      7  C   UNL     1       0.619   2.379  20.717  0.00  0.00    +0.000 C 
ATOM      8  C   UNL     1       1.565   3.379  21.377  0.00  0.00    +0.000 C 
ATOM      9  C   UNL     1       3.033   2.970  21.252  0.00  0.00    +0.000 C 
ATOM     10  C   UNL     1       3.695   3.481  19.972  0.00  0.00    +0.000 C 
ENDBRANCH   1   2
BRANCH   1  11
ATOM     11  N   UNL     1       5.602   4.575  17.854  0.00  0.00    +0.000 N 
ATOM     12  C   UNL     1       6.820   4.915  17.333  0.00  0.00    +0.000 C 
ATOM     13  O   UNL     1       7.827   4.331  17.772  0.00  0.00    +0.000 OA
ATOM     14  H   UNL     1       5.657   3.828  18.536  0.00  0.00    +0.000 HD
BRANCH  12  15
ATOM     15  C   UNL     1       6.915   5.995  16.269  0.00  0.00    +0.000 C 
BRANCH  15  16
ATOM     16  O   UNL     1       7.748   5.545  15.205  0.00  0.00    +0.000 OA
BRANCH  16  17
ATOM     17  C   UNL     1       7.128   4.856  14.197  0.00  0.00    +0.000 A 
ATOM     18  C   UNL     1       7.769   4.940  12.960  0.00  0.00    +0.000 A 
ATOM     19  C   UNL     1       7.210   4.339  11.832  0.00  0.00    +0.000 A 
ATOM     20  C   UNL     1       6.023   3.620  11.943  0.00  0.00    +0.000 A 
ATOM     21  C   UNL     1       5.416   3.470  13.187  0.00  0.00    +0.000 A 
ATOM     22  C   UNL     1       5.972   4.079  14.315  0.00  0.00    +0.000 A 
ENDBRANCH  16  17
ENDBRANCH  15  16
ENDBRANCH  12  15
ENDBRANCH   1  11
BRANCH   1  23
ATOM     23  C   UNL     1       3.814   6.297  18.247  0.00  0.00    +0.000 C 
BRANCH  23  24
ATOM     24  C   UNL     1       3.623   7.557  17.414  0.00  0.00    +0.000 C 
BRANCH  24  26
ATOM     25  C   UNL     1       2.033   7.733  19.638  0.00  0.00    +0.000 C 
ATOM     26  S   UNL     1       2.162   8.469  17.998  0.00  0.00    +0.000 S 
ENDBRANCH  24  26
ENDBRANCH  23  24
ENDBRANCH   1  23
TORSDOF 8
ENDMDL
MODEL 9
REMARK VINA RESULT:      -7.0      1.570      2.277
REMARK  Name = 
REMARK  9 active torsions:
REMARK  status: ('A' for Active; 'I' for Inactive)
REMARK    1  A    between atoms: C_1  and  S_2
REMARK    2  A    between atoms: S_2  and  C_3
REMARK    3  A    between atoms: C_3  and  C_4
REMARK    4  A    between atoms: C_4  and  C_5
REMARK    5  A    between atoms: C_5  and  N_6
REMARK    6  A    between atoms: C_5  and  C_17
REMARK    7  A    between atoms: C_7  and  C_9
REMARK    8  A    between atoms: C_9  and  O_10
REMARK    9  A    between atoms: O_10  and  C_11
REMARK                            x       y       z     vdW  Elec       q    Type
REMARK                         _______ _______ _______ _____ _____    ______ ____
ROOT
ATOM      1  C   UNL     1       3.105   6.934  17.927  0.00  0.00    +0.000 C 
ENDROOT
BRANCH   1   2
ATOM      2  C   UNL     1       2.512   6.355  19.249  0.00  0.00    +0.000 C 
ATOM      3  O   UNL     1       2.585   7.015  20.292  0.00  0.00    +0.000 OA
ATOM      4  N   UNL     1       1.870   5.114  19.239  0.00  0.00    +0.000 N 
ATOM      5  C   UNL     1       1.131   4.733  20.446  0.00  0.00    +0.000 C 
ATOM      6  C   UNL     1       1.912   3.764  21.328  0.00  0.00    +0.000 C 
ATOM      7  C   UNL     1       1.932   2.326  20.814  0.00  0.00    +0.000 C 
ATOM      8  C   UNL     1       2.452   2.162  19.388  0.00  0.00    +0.000 C 
ATOM      9  C   UNL     1       1.508   2.762  18.346  0.00  0.00    +0.000 C 
ATOM     10  C   UNL     1       1.778   4.241  18.068  0.00  0.00    +0.000 C 
ENDBRANCH   1   2
BRANCH   1  11
ATOM     11  N   UNL     1       4.522   7.306  18.029  0.00  0.00    +0.000 N 
ATOM     12  C   UNL     1       5.574   6.923  17.244  0.00  0.00    +0.000 C 
ATOM     13  O   UNL     1       6.712   7.309  17.565  0.00  0.00    +0.000 OA
ATOM     14  H   UNL     1       4.805   7.847  18.836  0.00  0.00    +0.000 HD
BRANCH  12  15
ATOM     15  C   UNL     1       5.329   6.073  16.009  0.00  0.00    +0.000 C 
BRANCH  15  16
ATOM     16  O   UNL     1       6.576   5.660  15.459  0.00  0.00    +0.000 OA
BRANCH  16  17
ATOM     17  C   UNL     1       6.518   4.926  14.304  0.00  0.00    +0.000 A 
ATOM     18  C   UNL     1       7.557   5.176  13.407  0.00  0.00    +0.000 A 
ATOM     19  C   UNL     1       7.585   4.545  12.164  0.00  0.00    +0.000 A 
ATOM     20  C   UNL     1       6.589   3.632  11.824  0.00  0.00    +0.000 A 
ATOM     21  C   UNL     1       5.590   3.323  12.743  0.00  0.00    +0.000 A 
ATOM     22  C   UNL     1       5.558   3.962  13.986  0.00  0.00    +0.000 A 
ENDBRANCH  16  17
ENDBRANCH  15  16
ENDBRANCH  12  15
ENDBRANCH   1  11
BRANCH   1  23
ATOM     23  C   UNL     1       2.215   8.076  17.392  0.00  0.00    +0.000 C 
BRANCH  23  24
ATOM     24  C   UNL     1       2.242   9.366  18.201  0.00  0.00    +0.000 C 
BRANCH  24  26
ATOM     25  C   UNL     1       0.544  10.122  20.214  0.00  0.00    +0.000 C 
ATOM     26  S   UNL     1       0.550   9.995  18.416  0.00  0.00    +0.000 S 
ENDBRANCH  24  26
ENDBRANCH  23  24
ENDBRANCH   1  23
TORSDOF 8
ENDMDL
