MODEL 1
REMARK VINA RESULT:      -4.5      0.000      0.000
REMARK  Name = 
REMARK  4 active torsions:
REMARK  status: ('A' for Active; 'I' for Inactive)
REMARK    1  A    between atoms: C_1  and  C_2
REMARK    2  A    between atoms: C_2  and  C_3
REMARK    3  A    between atoms: C_3  and  C_4
REMARK    4  A    between atoms: C_3  and  N_5
REMARK                            x       y       z     vdW  Elec       q    Type
REMARK                         _______ _______ _______ _____ _____    ______ ____
ROOT
ATOM      1  N   UNL     1       4.757   4.800  16.321  0.00  0.00    +0.000 NA
ATOM      2  C   UNL     1       4.988   6.266  16.208  0.00  0.00    +0.000 C 
ATOM      3  C   UNL     1       6.195   6.802  17.017  0.00  0.00    +0.000 C 
ATOM      4  N   UNL     1       7.450   6.101  16.714  0.00  0.00    +0.000 NA
ATOM      5  C   UNL     1       7.261   4.648  16.794  0.00  0.00    +0.000 C 
ATOM      6  C   UNL     1       6.046   4.155  15.971  0.00  0.00    +0.000 C 
ATOM      7  H   UNL     1       8.174   6.392  17.369  0.00  0.00    +0.000 HD
ENDROOT
BRANCH   1   8
ATOM      8  C   UNL     1       4.187   4.397  17.637  0.00  0.00    +0.000 C 
ATOM      9  C   UNL     1       3.882   2.886  17.719  0.00  0.00    +0.000 C 
BRANCH   8  11
ATOM     10  C   UNL     1       1.597   4.337  17.747  0.00  0.00    +0.000 C 
ATOM     11  C   UNL     1       2.864   5.175  17.897  0.00  0.00    +0.000 C 
ENDBRANCH   8  11
ENDBRANCH   1   8
TORSDOF 2
ENDMDL
MODEL 2
REMARK VINA RESULT:      -4.5      2.456      3.381
REMARK  Name = 
REMARK  4 active torsions:
REMARK  status: ('A' for Active; 'I' for Inactive)
REMARK    1  A    between atoms: C_1  and  C_2
REMARK    2  A    between atoms: C_2  and  C_3
REMARK    3  A    between atoms: C_3  and  C_4
REMARK    4  A    between atoms: C_3  and  N_5
REMARK                            x       y       z     vdW  Elec       q    Type
REMARK                         _______ _______ _______ _____ _____    ______ ____
ROOT
ATOM      1  N   UNL     1       2.704   4.557  18.746  0.00  0.00    +0.000 NA
ATOM      2  C   UNL     1       3.899   5.119  19.432  0.00  0.00    +0.000 C 
ATOM      3  C   UNL     1       5.198   4.294  19.266  0.00  0.00    +0.000 C 
ATOM      4  N   UNL     1       5.541   4.032  17.862  0.00  0.00    +0.000 NA
ATOM      5  C   UNL     1       4.381   3.494  17.141  0.00  0.00    +0.000 C 
ATOM      6  C   UNL     1       3.106   4.350  17.332  0.00  0.00    +0.000 C 
ATOM      7  H   UNL     1       6.315   3.371  17.814  0.00  0.00    +0.000 HD
ENDROOT
BRANCH   1   8
ATOM      8  C   UNL     1       2.150   3.353  19.427  0.00  0.00    +0.000 C 
ATOM      9  C   UNL     1       1.030   2.669  18.613  0.00  0.00    +0.000 C 
BRANCH   8  11
ATOM     10  C   UNL     1       1.600   2.647  21.861  0.00  0.00    +0.000 C 
ATOM     11  C   UNL     1       1.567   3.756  20.812  0.00  0.00    +0.000 C 
ENDBRANCH   8  11
ENDBRANCH   1   8
TORSDOF 2
ENDMDL
MODEL 3
REMARK VINA RESULT:      -4.5      2.430      3.775
REMARK  Name = 
REMARK  4 active torsions:
REMARK  status: ('A' for Active; 'I' for Inactive)
REMARK    1  A    between atoms: C_1  and  C_2
REMARK    2  A    between atoms: C_2  and  C_3
REMARK    3  A    between atoms: C_3  and  C_4
REMARK    4  A    between atoms: C_3  and  N_5
REMARK                            x       y       z     vdW  Elec       q    Type
REMARK                         _______ _______ _______ _____ _____    ______ ____
ROOT
ATOM      1  N   UNL     1       3.433   4.125  19.596  0.00  0.00    +0.000 NA
ATOM      2  C   UNL     1       3.760   3.149  18.521  0.00  0.00    +0.000 C 
ATOM      3  C   UNL     1       3.683   3.712  17.081  0.00  0.00    +0.000 C 
ATOM      4  N   UNL     1       4.500   4.918  16.888  0.00  0.00    +0.000 NA
ATOM      5  C   UNL     1       4.224   5.901  17.942  0.00  0.00    +0.000 C 
ATOM      6  C   UNL     1       4.313   5.297  19.364  0.00  0.00    +0.000 C 
ATOM      7  H   UNL     1       4.304   5.325  15.975  0.00  0.00    +0.000 HD
ENDROOT
BRANCH   1   8
ATOM      8  C   UNL     1       1.979   4.436  19.684  0.00  0.00    +0.000 C 
ATOM      9  C   UNL     1       1.671   5.588  20.664  0.00  0.00    +0.000 C 
BRANCH   8  11
ATOM     10  C   UNL     1       1.517   2.733  21.584  0.00  0.00    +0.000 C 
ATOM     11  C   UNL     1       1.200   3.174  20.158  0.00  0.00    +0.000 C 
ENDBRANCH   8  11
ENDBRANCH   1   8
TORSDOF 2
ENDMDL
MODEL 4
REMARK VINA RESULT:      -4.5      2.711      5.100
REMARK  Name = 
REMARK  4 active torsions:
REMARK  status: ('A' for Active; 'I' for Inactive)
REMARK    1  A    between atoms: C_1  and  C_2
REMARK    2  A    between atoms: C_2  and  C_3
REMARK    3  A    between atoms: C_3  and  C_4
REMARK    4  A    between atoms: C_3  and  N_5
REMARK                            x       y       z     vdW  Elec       q    Type
REMARK                         _______ _______ _______ _____ _____    ______ ____
ROOT
ATOM      1  N   UNL     1       2.544   4.762  18.706  0.00  0.00    +0.000 NA
ATOM      2  C   UNL     1       1.449   3.941  18.121  0.00  0.00    +0.000 C 
ATOM      3  C   UNL     1       0.994   2.742  18.990  0.00  0.00    +0.000 C 
ATOM      4  N   UNL     1       0.615   3.129  20.355  0.00  0.00    +0.000 NA
ATOM      5  C   UNL     1       1.661   3.960  20.963  0.00  0.00    +0.000 C 
ATOM      6  C   UNL     1       2.084   5.146  20.064  0.00  0.00    +0.000 C 
ATOM      7  H   UNL     1       0.464   2.295  20.920  0.00  0.00    +0.000 HD
ENDROOT
BRANCH   1   8
ATOM      8  C   UNL     1       3.872   4.088  18.657  0.00  0.00    +0.000 C 
ATOM      9  C   UNL     1       5.025   5.006  19.116  0.00  0.00    +0.000 C 
BRANCH   8  11
ATOM     10  C   UNL     1       5.341   4.340  16.535  0.00  0.00    +0.000 C 
ATOM     11  C   UNL     1       4.170   3.623  17.202  0.00  0.00    +0.000 C 
ENDBRANCH   8  11
ENDBRANCH   1   8
TORSDOF 2
ENDMDL
MODEL 5
REMARK VINA RESULT:      -4.5      1.410      2.102
REMARK  Name = 
REMARK  4 active torsions:
REMARK  status: ('A' for Active; 'I' for Inactive)
REMARK    1  A    between atoms: C_1  and  C_2
REMARK    2  A    between atoms: C_2  and  C_3
REMARK    3  A    between atoms: C_3  and  C_4
REMARK    4  A    between atoms: C_3  and  N_5
REMARK                            x       y       z     vdW  Elec       q    Type
REMARK                         _______ _______ _______ _____ _____    ______ ____
ROOT
ATOM      1  N   UNL     1       4.965   5.041  17.303  0.00  0.00    +0.000 NA
ATOM      2  C   UNL     1       6.207   5.437  18.021  0.00  0.00    +0.000 C 
ATOM      3  C   UNL     1       7.471   4.629  17.638  0.00  0.00    +0.000 C 
ATOM      4  N   UNL     1       7.741   4.630  16.194  0.00  0.00    +0.000 NA
ATOM      5  C   UNL     1       6.533   4.265  15.444  0.00  0.00    +0.000 C 
ATOM      6  C   UNL     1       5.295   5.097  15.857  0.00  0.00    +0.000 C 
ATOM      7  H   UNL     1       8.491   3.974  15.983  0.00  0.00    +0.000 HD
ENDROOT
BRANCH   1   8
ATOM      8  C   UNL     1       4.404   3.744  17.772  0.00  0.00    +0.000 C 
ATOM      9  C   UNL     1       2.986   3.472  17.227  0.00  0.00    +0.000 C 
BRANCH   8  11
ATOM     10  C   UNL     1       4.320   2.340  19.951  0.00  0.00    +0.000 C 
ATOM     11  C   UNL     1       4.338   3.733  19.327  0.00  0.00    +0.000 C 
ENDBRANCH   8  11
ENDBRANCH   1   8
TORSDOF 2
ENDMDL
MODEL 6
REMARK VINA RESULT:      -4.5      1.194      1.822
REMARK  Name = 
REMARK  4 active torsions:
REMARK  status: ('A' for Active; 'I' for Inactive)
REMARK    1  A    between atoms: C_1  and  C_2
REMARK    2  A    between atoms: C_2  and  C_3
REMARK    3  A    between atoms: C_3  and  C_4
REMARK    4  A    between atoms: C_3  and  N_5
REMARK                            x       y       z     vdW  Elec       q    Type
REMARK                         _______ _______ _______ _____ _____    ______ ____
ROOT
ATOM      1  N   UNL     1       5.539   4.122  17.406  0.00  0.00    +0.000 NA
ATOM      2  C   UNL     1       5.781   3.876  15.958  0.00  0.00    +0.000 C 
ATOM      3  C   UNL     1       6.182   5.128  15.140  0.00  0.00    +0.000 C 
ATOM      4  N   UNL     1       7.342   5.835  15.699  0.00  0.00    +0.000 NA
ATOM      5  C   UNL     1       7.154   6.079  17.134  0.00  0.00    +0.000 C 
ATOM      6  C   UNL     1       6.756   4.803  17.913  0.00  0.00    +0.000 C 
ATOM      7  H   UNL     1       7.474   6.721  15.212  0.00  0.00    +0.000 HD
ENDROOT
BRANCH   1   8
ATOM      8  C   UNL     1       4.258   4.835  17.674  0.00  0.00    +0.000 C 
ATOM      9  C   UNL     1       4.147   5.339  19.128  0.00  0.00    +0.000 C 
BRANCH   8  11
ATOM     10  C   UNL     1       1.697   4.448  17.789  0.00  0.00    +0.000 C 
ATOM     11  C   UNL     1       3.059   3.883  17.396  0.00  0.00    +0.000 C 
ENDBRANCH   8  11
ENDBRANCH   1   8
TORSDOF 2
ENDMDL
MODEL 7
REMARK VINA RESULT:      -4.4      3.170      4.629
REMARK  Name = 
REMARK  4 active torsions:
REMARK  status: ('A' for Active; 'I' for Inactive)
REMARK    1  A    between atoms: C_1  and  C_2
REMARK    2  A    between atoms: C_2  and  C_3
REMARK    3  A    between atoms: C_3  and  C_4
REMARK    4  A    between atoms: C_3  and  N_5
REMARK                            x       y       z     vdW  Elec       q    Type
REMARK                         _______ _______ _______ _____ _____    ______ ____
ROOT
ATOM      1  N   UNL     1       3.287   3.771  19.969  0.00  0.00    +0.000 NA
ATOM      2  C   UNL     1       1.815   3.548  19.958  0.00  0.00    +0.000 C 
ATOM      3  C   UNL     1       1.264   2.885  18.672  0.00  0.00    +0.000 C 
ATOM      4  N   UNL     1       1.936   1.621  18.340  0.00  0.00    +0.000 NA
ATOM      5  C   UNL     1       3.394   1.792  18.362  0.00  0.00    +0.000 C 
ATOM      6  C   UNL     1       3.901   2.456  19.664  0.00  0.00    +0.000 C 
ATOM      7  H   UNL     1       1.638   1.304  17.419  0.00  0.00    +0.000 HD
ENDROOT
BRANCH   1   8
ATOM      8  C   UNL     1       3.717   4.890  19.084  0.00  0.00    +0.000 C 
ATOM      9  C   UNL     1       5.225   5.199  19.201  0.00  0.00    +0.000 C 
BRANCH   8  11
ATOM     10  C   UNL     1       2.576   7.065  18.254  0.00  0.00    +0.000 C 
ATOM     11  C   UNL     1       2.927   6.180  19.447  0.00  0.00    +0.000 C 
ENDBRANCH   8  11
ENDBRANCH   1   8
TORSDOF 2
ENDMDL
MODEL 8
REMARK VINA RESULT:      -4.4      3.027      5.177
REMARK  Name = 
REMARK  4 active torsions:
REMARK  status: ('A' for Active; 'I' for Inactive)
REMARK    1  A    between atoms: C_1  and  C_2
REMARK    2  A    between atoms: C_2  and  C_3
REMARK    3  A    between atoms: C_3  and  C_4
REMARK    4  A    between atoms: C_3  and  N_5
REMARK                            x       y       z     vdW  Elec       q    Type
REMARK                         _______ _______ _______ _____ _____    ______ ____
ROOT
ATOM      1  N   UNL     1       3.325   3.086  19.504  0.00  0.00    +0.000 NA
ATOM      2  C   UNL     1       2.728   3.578  20.775  0.00  0.00    +0.000 C 
ATOM      3  C   UNL     1       1.265   4.073  20.664  0.00  0.00    +0.000 C 
ATOM      4  N   UNL     1       0.362   3.076  20.074  0.00  0.00    +0.000 NA
ATOM      5  C   UNL     1       0.924   2.547  18.825  0.00  0.00    +0.000 C 
ATOM      6  C   UNL     1       2.385   2.063  18.982  0.00  0.00    +0.000 C 
ATOM      7  H   UNL     1      -0.547   3.499  19.892  0.00  0.00    +0.000 HD
ENDROOT
BRANCH   1   8
ATOM      8  C   UNL     1       3.659   4.181  18.551  0.00  0.00    +0.000 C 
ATOM      9  C   UNL     1       4.502   3.695  17.353  0.00  0.00    +0.000 C 
BRANCH   8  11
ATOM     10  C   UNL     1       5.963   5.268  19.033  0.00  0.00    +0.000 C 
ATOM     11  C   UNL     1       4.459   5.293  19.289  0.00  0.00    +0.000 C 
ENDBRANCH   8  11
ENDBRANCH   1   8
TORSDOF 2
ENDMDL
MODEL 9
REMARK VINA RESULT:      -4.4      3.233      4.599
REMARK  Name = 
REMARK  4 active torsions:
REMARK  status: ('A' for Active; 'I' for Inactive)
REMARK    1  A    between atoms: C_1  and  C_2
REMARK    2  A    between atoms: C_2  and  C_3
REMARK    3  A    between atoms: C_3  and  C_4
REMARK    4  A    between atoms: C_3  and  N_5
REMARK                            x       y       z     vdW  Elec       q    Type
REMARK                         _______ _______ _______ _____ _____    ______ ____
ROOT
ATOM      1  N   UNL     1       1.960   4.357  18.284  0.00  0.00    +0.000 NA
ATOM      2  C   UNL     1       2.820   3.677  17.278  0.00  0.00    +0.000 C 
ATOM      3  C   UNL     1       3.602   2.450  17.808  0.00  0.00    +0.000 C 
ATOM      4  N   UNL     1       2.740   1.447  18.447  0.00  0.00    +0.000 NA
ATOM      5  C   UNL     1       1.858   2.080  19.434  0.00  0.00    +0.000 C 
ATOM      6  C   UNL     1       1.095   3.299  18.863  0.00  0.00    +0.000 C 
ATOM      7  H   UNL     1       3.314   0.737  18.900  0.00  0.00    +0.000 HD
ENDROOT
BRANCH   1   8
ATOM      8  C   UNL     1       2.736   5.151  19.278  0.00  0.00    +0.000 C 
ATOM      9  C   UNL     1       1.863   5.674  20.438  0.00  0.00    +0.000 C 
BRANCH   8  11
ATOM     10  C   UNL     1       2.419   7.484  18.192  0.00  0.00    +0.000 C 
ATOM     11  C   UNL     1       3.393   6.373  18.574  0.00  0.00    +0.000 C 
ENDBRANCH   8  11
ENDBRANCH   1   8
TORSDOF 2
ENDMDL
