MODEL 1
REMARK VINA RESULT:      -8.3      0.000      0.000
REMARK  Name = 
REMARK  6 active torsions:
REMARK  status: ('A' for Active; 'I' for Inactive)
REMARK    1  A    between atoms: C_2  and  CA_4
REMARK    2  A    between atoms: C_8  and  C_9
REMARK    3  A    between atoms: C_9  and  C_10
REMARK    4  A    between atoms: C_16  and  O_17
REMARK    5  A    between atoms: O_17  and  C_18
REMARK    6  A    between atoms: C_18  and  C_19
REMARK                            x       y       z     vdW  Elec       q    Type
REMARK                         _______ _______ _______ _____ _____    ______ ____
ROOT
ATOM      1  C   UNL     1       4.094   5.623  18.146  0.00  0.00    +0.000 A 
ATOM      2  C   UNL     1       5.266   6.403  18.103  0.00  0.00    +0.000 A 
ATOM      3  C   UNL     1       6.248   6.159  17.135  0.00  0.00    +0.000 A 
ATOM      4 CL   UNL     1       7.673   7.114  17.102  0.00  0.00    +0.000 Cl
ATOM      5  C   UNL     1       6.066   5.159  16.199  0.00  0.00    +0.000 A 
ATOM      6  C   UNL     1       4.909   4.374  16.236  0.00  0.00    +0.000 A 
ATOM      7  C   UNL     1       3.933   4.574  17.221  0.00  0.00    +0.000 A 
ENDROOT
BRANCH   1   8
ATOM      8  C   UNL     1       3.054   5.959  19.197  0.00  0.00    +0.000 C 
BRANCH   8  13
ATOM      9  CA  UNL     1       1.127   8.919  20.304  0.00  0.00    +0.000 A 
ATOM     10  C   UNL     1       1.008   9.691  19.142  0.00  0.00    +0.000 A 
ATOM     11  C   UNL     1       1.543   9.231  17.948  0.00  0.00    +0.000 A 
ATOM     12  C   UNL     1       2.204   8.006  17.918  0.00  0.00    +0.000 A 
ATOM     13  C   UNL     1       2.320   7.273  19.092  0.00  0.00    +0.000 A 
ATOM     14  N   UNL     1       1.787   7.709  20.262  0.00  0.00    +0.000 NA
BRANCH   9  16
ATOM     15  O   UNL     1      -0.491   8.822  22.098  0.00  0.00    +0.000 OA
ATOM     16  C   UNL     1       0.524   9.431  21.630  0.00  0.00    +0.000 C 
ATOM     17  OXT UNL     1       1.100  10.432  22.178  0.00  0.00    +0.000 OA
ENDBRANCH   9  16
ENDBRANCH   8  13
ENDBRANCH   1   8
BRANCH   7  18
ATOM     18  O   UNL     1       2.808   3.785  17.337  0.00  0.00    +0.000 OA
BRANCH  18  19
ATOM     19  C   UNL     1       3.060   2.438  17.766  0.00  0.00    +0.000 C 
BRANCH  19  20
ATOM     20  C   UNL     1       2.417   2.144  19.117  0.00  0.00    +0.000 C 
ATOM     21  C   UNL     1       3.321   2.580  20.272  0.00  0.00    +0.000 C 
ATOM     22  C   UNL     1       2.380   2.692  21.460  0.00  0.00    +0.000 C 
ATOM     23  C   UNL     1       1.020   3.072  20.877  0.00  0.00    +0.000 C 
ATOM     24  C   UNL     1       1.138   2.938  19.360  0.00  0.00    +0.000 C 
ENDBRANCH  19  20
ENDBRANCH  18  19
ENDBRANCH   7  18
TORSDOF 6
ENDMDL
MODEL 2
REMARK VINA RESULT:      -8.0      2.234      4.178
REMARK  Name = 
REMARK  6 active torsions:
REMARK  status: ('A' for Active; 'I' for Inactive)
REMARK    1  A    between atoms: C_2  and  CA_4
REMARK    2  A    between atoms: C_8  and  C_9
REMARK    3  A    between atoms: C_9  and  C_10
REMARK    4  A    between atoms: C_16  and  O_17
REMARK    5  A    between atoms: O_17  and  C_18
REMARK    6  A    between atoms: C_18  and  C_19
REMARK                            x       y       z     vdW  Elec       q    Type
REMARK                         _______ _______ _______ _____ _____    ______ ____
ROOT
ATOM      1  C   UNL     1       3.132   5.503  18.141  0.00  0.00    +0.000 A 
ATOM      2  C   UNL     1       2.112   4.898  18.900  0.00  0.00    +0.000 A 
ATOM      3  C   UNL     1       1.757   3.562  18.677  0.00  0.00    +0.000 A 
ATOM      4 CL   UNL     1       0.506   2.842  19.605  0.00  0.00    +0.000 Cl
ATOM      5  C   UNL     1       2.419   2.818  17.719  0.00  0.00    +0.000 A 
ATOM      6  C   UNL     1       3.430   3.411  16.955  0.00  0.00    +0.000 A 
ATOM      7  C   UNL     1       3.773   4.757  17.134  0.00  0.00    +0.000 A 
ENDROOT
BRANCH   1   8
ATOM      8  C   UNL     1       3.493   6.942  18.454  0.00  0.00    +0.000 C 
BRANCH   8  13
ATOM      9  CA  UNL     1       1.018   8.900  20.388  0.00  0.00    +0.000 A 
ATOM     10  C   UNL     1       0.417   9.718  19.425  0.00  0.00    +0.000 A 
ATOM     11  C   UNL     1       0.800   9.619  18.095  0.00  0.00    +0.000 A 
ATOM     12  C   UNL     1       1.790   8.710  17.732  0.00  0.00    +0.000 A 
ATOM     13  C   UNL     1       2.379   7.925  18.715  0.00  0.00    +0.000 A 
ATOM     14  N   UNL     1       2.000   8.006  20.016  0.00  0.00    +0.000 NA
BRANCH   9  16
ATOM     15  O   UNL     1       1.414   9.499  22.697  0.00  0.00    +0.000 OA
ATOM     16  C   UNL     1       0.584   9.009  21.866  0.00  0.00    +0.000 C 
ATOM     17  OXT UNL     1      -0.595   8.607  22.152  0.00  0.00    +0.000 OA
ENDBRANCH   9  16
ENDBRANCH   8  13
ENDBRANCH   1   8
BRANCH   7  18
ATOM     18  O   UNL     1       4.717   5.403  16.362  0.00  0.00    +0.000 OA
BRANCH  18  19
ATOM     19  C   UNL     1       5.924   4.657  16.142  0.00  0.00    +0.000 C 
BRANCH  19  20
ATOM     20  C   UNL     1       7.102   5.245  16.912  0.00  0.00    +0.000 C 
ATOM     21  C   UNL     1       6.976   6.764  17.049  0.00  0.00    +0.000 C 
ATOM     22  C   UNL     1       7.892   7.110  18.211  0.00  0.00    +0.000 C 
ATOM     23  C   UNL     1       7.888   5.884  19.122  0.00  0.00    +0.000 C 
ATOM     24  C   UNL     1       7.170   4.771  18.360  0.00  0.00    +0.000 C 
ENDBRANCH  19  20
ENDBRANCH  18  19
ENDBRANCH   7  18
TORSDOF 6
ENDMDL
MODEL 3
REMARK VINA RESULT:      -7.9      2.071      4.130
REMARK  Name = 
REMARK  6 active torsions:
REMARK  status: ('A' for Active; 'I' for Inactive)
REMARK    1  A    between atoms: C_2  and  CA_4
REMARK    2  A    between atoms: C_8  and  C_9
REMARK    3  A    between atoms: C_9  and  C_10
REMARK    4  A    between atoms: C_16  and  O_17
REMARK    5  A    between atoms: O_17  and  C_18
REMARK    6  A    between atoms: C_18  and  C_19
REMARK                            x       y       z     vdW  Elec       q    Type
REMARK                         _______ _______ _______ _____ _____    ______ ____
ROOT
ATOM      1  C   UNL     1       3.160   4.982  18.966  0.00  0.00    +0.000 A 
ATOM      2  C   UNL     1       2.468   4.497  20.092  0.00  0.00    +0.000 A 
ATOM      3  C   UNL     1       2.025   3.170  20.138  0.00  0.00    +0.000 A 
ATOM      4 CL   UNL     1       1.176   2.597  21.515  0.00  0.00    +0.000 Cl
ATOM      5  C   UNL     1       2.279   2.316  19.081  0.00  0.00    +0.000 A 
ATOM      6  C   UNL     1       2.959   2.789  17.954  0.00  0.00    +0.000 A 
ATOM      7  C   UNL     1       3.375   4.124  17.871  0.00  0.00    +0.000 A 
ENDROOT
BRANCH   1   8
ATOM      8  C   UNL     1       3.643   6.419  18.991  0.00  0.00    +0.000 C 
BRANCH   8  13
ATOM      9  CA  UNL     1       1.118   8.812  20.255  0.00  0.00    +0.000 A 
ATOM     10  C   UNL     1       0.780   9.565  19.125  0.00  0.00    +0.000 A 
ATOM     11  C   UNL     1       1.365   9.277  17.901  0.00  0.00    +0.000 A 
ATOM     12  C   UNL     1       2.292   8.242  17.809  0.00  0.00    +0.000 A 
ATOM     13  C   UNL     1       2.619   7.525  18.953  0.00  0.00    +0.000 A 
ATOM     14  N   UNL     1       2.041   7.792  20.153  0.00  0.00    +0.000 NA
BRANCH   9  16
ATOM     15  O   UNL     1      -0.608   8.510  21.922  0.00  0.00    +0.000 OA
ATOM     16  C   UNL     1       0.460   9.132  21.615  0.00  0.00    +0.000 C 
ATOM     17  OXT UNL     1       1.047   9.996  22.351  0.00  0.00    +0.000 OA
ENDBRANCH   9  16
ENDBRANCH   8  13
ENDBRANCH   1   8
BRANCH   7  18
ATOM     18  O   UNL     1       3.992   4.652  16.755  0.00  0.00    +0.000 OA
BRANCH  18  19
ATOM     19  C   UNL     1       5.210   3.994  16.375  0.00  0.00    +0.000 C 
BRANCH  19  20
ATOM     20  C   UNL     1       6.436   4.845  16.689  0.00  0.00    +0.000 C 
ATOM     21  C   UNL     1       6.129   6.337  16.555  0.00  0.00    +0.000 C 
ATOM     22  C   UNL     1       7.228   7.018  17.355  0.00  0.00    +0.000 C 
ATOM     23  C   UNL     1       7.609   6.032  18.457  0.00  0.00    +0.000 C 
ATOM     24  C   UNL     1       6.903   4.716  18.135  0.00  0.00    +0.000 C 
ENDBRANCH  19  20
ENDBRANCH  18  19
ENDBRANCH   7  18
TORSDOF 6
ENDMDL
MODEL 4
REMARK VINA RESULT:      -7.9      2.720      6.036
REMARK  Name = 
REMARK  6 active torsions:
REMARK  status: ('A' for Active; 'I' for Inactive)
REMARK    1  A    between atoms: C_2  and  CA_4
REMARK    2  A    between atoms: C_8  and  C_9
REMARK    3  A    between atoms: C_9  and  C_10
REMARK    4  A    between atoms: C_16  and  O_17
REMARK    5  A    between atoms: O_17  and  C_18
REMARK    6  A    between atoms: C_18  and  C_19
REMARK                            x       y       z     vdW  Elec       q    Type
REMARK                         _______ _______ _______ _____ _____    ______ ____
ROOT
ATOM      1  C   UNL     1       2.385   6.753  18.759  0.00  0.00    +0.000 A 
ATOM      2  C   UNL     1       2.109   8.021  18.212  0.00  0.00    +0.000 A 
ATOM      3  C   UNL     1       1.596   9.046  19.015  0.00  0.00    +0.000 A 
ATOM      4 CL   UNL     1       1.258  10.583  18.330  0.00  0.00    +0.000 Cl
ATOM      5  C   UNL     1       1.371   8.827  20.362  0.00  0.00    +0.000 A 
ATOM      6  C   UNL     1       1.635   7.570  20.915  0.00  0.00    +0.000 A 
ATOM      7  C   UNL     1       2.111   6.519  20.120  0.00  0.00    +0.000 A 
ENDROOT
BRANCH   1   8
ATOM      8  C   UNL     1       2.971   5.695  17.845  0.00  0.00    +0.000 C 
BRANCH   8  13
ATOM      9  CA  UNL     1       6.351   5.083  16.466  0.00  0.00    +0.000 A 
ATOM     10  C   UNL     1       7.189   5.184  17.583  0.00  0.00    +0.000 A 
ATOM     11  C   UNL     1       6.645   5.430  18.836  0.00  0.00    +0.000 A 
ATOM     12  C   UNL     1       5.268   5.585  18.968  0.00  0.00    +0.000 A 
ATOM     13  C   UNL     1       4.467   5.497  17.837  0.00  0.00    +0.000 A 
ATOM     14  N   UNL     1       4.989   5.242  16.610  0.00  0.00    +0.000 NA
BRANCH   9  16
ATOM     15  O   UNL     1       7.885   5.571  14.662  0.00  0.00    +0.000 OA
ATOM     16  C   UNL     1       6.959   4.802  15.074  0.00  0.00    +0.000 C 
ATOM     17  OXT UNL     1       6.495   3.798  14.434  0.00  0.00    +0.000 OA
ENDBRANCH   9  16
ENDBRANCH   8  13
ENDBRANCH   1   8
BRANCH   7  18
ATOM     18  O   UNL     1       2.325   5.245  20.606  0.00  0.00    +0.000 OA
BRANCH  18  19
ATOM     19  C   UNL     1       1.193   4.367  20.508  0.00  0.00    +0.000 C 
BRANCH  19  20
ATOM     20  C   UNL     1       1.568   3.027  19.882  0.00  0.00    +0.000 C 
ATOM     21  C   UNL     1       1.334   3.032  18.371  0.00  0.00    +0.000 C 
ATOM     22  C   UNL     1       2.189   1.886  17.857  0.00  0.00    +0.000 C 
ATOM     23  C   UNL     1       3.368   1.784  18.822  0.00  0.00    +0.000 C 
ATOM     24  C   UNL     1       3.054   2.703  20.001  0.00  0.00    +0.000 C 
ENDBRANCH  19  20
ENDBRANCH  18  19
ENDBRANCH   7  18
TORSDOF 6
ENDMDL
MODEL 5
REMARK VINA RESULT:      -7.7      1.056      1.471
REMARK  Name = 
REMARK  6 active torsions:
REMARK  status: ('A' for Active; 'I' for Inactive)
REMARK    1  A    between atoms: C_2  and  CA_4
REMARK    2  A    between atoms: C_8  and  C_9
REMARK    3  A    between atoms: C_9  and  C_10
REMARK    4  A    between atoms: C_16  and  O_17
REMARK    5  A    between atoms: O_17  and  C_18
REMARK    6  A    between atoms: C_18  and  C_19
REMARK                            x       y       z     vdW  Elec       q    Type
REMARK                         _______ _______ _______ _____ _____    ______ ____
ROOT
ATOM      1  C   UNL     1       4.613   5.849  17.928  0.00  0.00    +0.000 A 
ATOM      2  C   UNL     1       5.350   7.042  17.797  0.00  0.00    +0.000 A 
ATOM      3  C   UNL     1       6.742   7.006  17.649  0.00  0.00    +0.000 A 
ATOM      4 CL   UNL     1       7.625   8.470  17.499  0.00  0.00    +0.000 Cl
ATOM      5  C   UNL     1       7.405   5.794  17.614  0.00  0.00    +0.000 A 
ATOM      6  C   UNL     1       6.684   4.603  17.750  0.00  0.00    +0.000 A 
ATOM      7  C   UNL     1       5.297   4.618  17.939  0.00  0.00    +0.000 A 
ENDROOT
BRANCH   1   8
ATOM      8  C   UNL     1       3.106   5.953  18.050  0.00  0.00    +0.000 C 
BRANCH   8  13
ATOM      9  CA  UNL     1       1.484   8.579  20.095  0.00  0.00    +0.000 A 
ATOM     10  C   UNL     1       1.426   9.680  19.234  0.00  0.00    +0.000 A 
ATOM     11  C   UNL     1       1.900   9.570  17.935  0.00  0.00    +0.000 A 
ATOM     12  C   UNL     1       2.440   8.362  17.502  0.00  0.00    +0.000 A 
ATOM     13  C   UNL     1       2.500   7.293  18.386  0.00  0.00    +0.000 A 
ATOM     14  N   UNL     1       2.025   7.389  19.655  0.00  0.00    +0.000 NA
BRANCH   9  16
ATOM     15  O   UNL     1       1.705   9.237  22.411  0.00  0.00    +0.000 OA
ATOM     16  C   UNL     1       0.948   8.703  21.538  0.00  0.00    +0.000 C 
ATOM     17  OXT UNL     1      -0.234   8.269  21.754  0.00  0.00    +0.000 OA
ENDBRANCH   9  16
ENDBRANCH   8  13
ENDBRANCH   1   8
BRANCH   7  18
ATOM     18  O   UNL     1       4.552   3.475  18.142  0.00  0.00    +0.000 OA
BRANCH  18  19
ATOM     19  C   UNL     1       4.502   3.024  19.504  0.00  0.00    +0.000 C 
BRANCH  19  20
ATOM     20  C   UNL     1       3.100   2.574  19.902  0.00  0.00    +0.000 C 
ATOM     21  C   UNL     1       2.429   3.591  20.827  0.00  0.00    +0.000 C 
ATOM     22  C   UNL     1       0.947   3.273  20.717  0.00  0.00    +0.000 C 
ATOM     23  C   UNL     1       0.746   2.713  19.311  0.00  0.00    +0.000 C 
ATOM     24  C   UNL     1       2.138   2.492  18.721  0.00  0.00    +0.000 C 
ENDBRANCH  19  20
ENDBRANCH  18  19
ENDBRANCH   7  18
TORSDOF 6
ENDMDL
MODEL 6
REMARK VINA RESULT:      -7.6      1.677      2.269
REMARK  Name = 
REMARK  6 active torsions:
REMARK  status: ('A' for Active; 'I' for Inactive)
REMARK    1  A    between atoms: C_2  and  CA_4
REMARK    2  A    between atoms: C_8  and  C_9
REMARK    3  A    between atoms: C_9  and  C_10
REMARK    4  A    between atoms: C_16  and  O_17
REMARK    5  A    between atoms: O_17  and  C_18
REMARK    6  A    between atoms: C_18  and  C_19
REMARK                            x       y       z     vdW  Elec       q    Type
REMARK                         _______ _______ _______ _____ _____    ______ ____
ROOT
ATOM      1  C   UNL     1       4.649   6.009  17.638  0.00  0.00    +0.000 A 
ATOM      2  C   UNL     1       5.508   7.123  17.585  0.00  0.00    +0.000 A 
ATOM      3  C   UNL     1       6.898   6.953  17.630  0.00  0.00    +0.000 A 
ATOM      4 CL   UNL     1       7.931   8.322  17.572  0.00  0.00    +0.000 Cl
ATOM      5  C   UNL     1       7.439   5.683  17.711  0.00  0.00    +0.000 A 
ATOM      6  C   UNL     1       6.594   4.570  17.771  0.00  0.00    +0.000 A 
ATOM      7  C   UNL     1       5.202   4.721  17.768  0.00  0.00    +0.000 A 
ENDROOT
BRANCH   1   8
ATOM      8  C   UNL     1       3.156   6.258  17.550  0.00  0.00    +0.000 C 
BRANCH   8  13
ATOM      9  CA  UNL     1       1.375   9.133  19.055  0.00  0.00    +0.000 A 
ATOM     10  C   UNL     1       1.193   8.750  20.388  0.00  0.00    +0.000 A 
ATOM     11  C   UNL     1       1.686   7.531  20.832  0.00  0.00    +0.000 A 
ATOM     12  C   UNL     1       2.351   6.694  19.940  0.00  0.00    +0.000 A 
ATOM     13  C   UNL     1       2.500   7.096  18.619  0.00  0.00    +0.000 A 
ATOM     14  N   UNL     1       2.033   8.294  18.180  0.00  0.00    +0.000 NA
BRANCH   9  16
ATOM     15  O   UNL     1       1.616  11.496  18.598  0.00  0.00    +0.000 OA
ATOM     16  C   UNL     1       0.831  10.494  18.567  0.00  0.00    +0.000 C 
ATOM     17  OXT UNL     1      -0.376  10.516  18.148  0.00  0.00    +0.000 OA
ENDBRANCH   9  16
ENDBRANCH   8  13
ENDBRANCH   1   8
BRANCH   7  18
ATOM     18  O   UNL     1       4.329   3.660  17.890  0.00  0.00    +0.000 OA
BRANCH  18  19
ATOM     19  C   UNL     1       4.308   3.046  19.188  0.00  0.00    +0.000 C 
BRANCH  19  20
ATOM     20  C   UNL     1       3.096   3.486  20.004  0.00  0.00    +0.000 C 
ATOM     21  C   UNL     1       1.794   3.263  19.233  0.00  0.00    +0.000 C 
ATOM     22  C   UNL     1       0.720   3.262  20.308  0.00  0.00    +0.000 C 
ATOM     23  C   UNL     1       1.397   2.731  21.570  0.00  0.00    +0.000 C 
ATOM     24  C   UNL     1       2.893   2.663  21.271  0.00  0.00    +0.000 C 
ENDBRANCH  19  20
ENDBRANCH  18  19
ENDBRANCH   7  18
TORSDOF 6
ENDMDL
MODEL 7
REMARK VINA RESULT:      -7.6      3.035      7.152
REMARK  Name = 
REMARK  6 active torsions:
REMARK  status: ('A' for Active; 'I' for Inactive)
REMARK    1  A    between atoms: C_2  and  CA_4
REMARK    2  A    between atoms: C_8  and  C_9
REMARK    3  A    between atoms: C_9  and  C_10
REMARK    4  A    between atoms: C_16  and  O_17
REMARK    5  A    between atoms: O_17  and  C_18
REMARK    6  A    between atoms: C_18  and  C_19
REMARK                            x       y       z     vdW  Elec       q    Type
REMARK                         _______ _______ _______ _____ _____    ______ ____
ROOT
ATOM      1  C   UNL     1       2.750   5.487  18.742  0.00  0.00    +0.000 A 
ATOM      2  C   UNL     1       2.548   4.113  18.509  0.00  0.00    +0.000 A 
ATOM      3  C   UNL     1       1.688   3.371  19.328  0.00  0.00    +0.000 A 
ATOM      4 CL   UNL     1       1.459   1.696  19.036  0.00  0.00    +0.000 Cl
ATOM      5  C   UNL     1       1.014   3.988  20.366  0.00  0.00    +0.000 A 
ATOM      6  C   UNL     1       1.212   5.351  20.611  0.00  0.00    +0.000 A 
ATOM      7  C   UNL     1       2.099   6.102  19.829  0.00  0.00    +0.000 A 
ENDROOT
BRANCH   1   8
ATOM      8  C   UNL     1       3.666   6.241  17.799  0.00  0.00    +0.000 C 
BRANCH   8  13
ATOM      9  CA  UNL     1       6.588   5.010  15.889  0.00  0.00    +0.000 A 
ATOM     10  C   UNL     1       7.558   4.787  16.873  0.00  0.00    +0.000 A 
ATOM     11  C   UNL     1       7.254   5.014  18.208  0.00  0.00    +0.000 A 
ATOM     12  C   UNL     1       5.986   5.471  18.556  0.00  0.00    +0.000 A 
ATOM     13  C   UNL     1       5.052   5.700  17.553  0.00  0.00    +0.000 A 
ATOM     14  N   UNL     1       5.337   5.467  16.246  0.00  0.00    +0.000 NA
BRANCH   9  16
ATOM     15  O   UNL     1       6.298   3.821  13.804  0.00  0.00    +0.000 OA
ATOM     16  C   UNL     1       6.927   4.750  14.405  0.00  0.00    +0.000 C 
ATOM     17  OXT UNL     1       7.814   5.502  13.875  0.00  0.00    +0.000 OA
ENDBRANCH   9  16
ENDBRANCH   8  13
ENDBRANCH   1   8
BRANCH   7  18
ATOM     18  O   UNL     1       2.376   7.432  20.071  0.00  0.00    +0.000 OA
BRANCH  18  19
ATOM     19  C   UNL     1       1.464   8.080  20.971  0.00  0.00    +0.000 C 
BRANCH  19  20
ATOM     20  C   UNL     1       1.009   9.435  20.438  0.00  0.00    +0.000 C 
ATOM     21  C   UNL     1       1.133   9.505  18.915  0.00  0.00    +0.000 C 
ATOM     22  C   UNL     1       0.212  10.648  18.518  0.00  0.00    +0.000 C 
ATOM     23  C   UNL     1      -0.896  10.671  19.569  0.00  0.00    +0.000 C 
ATOM     24  C   UNL     1      -0.472   9.709  20.678  0.00  0.00    +0.000 C 
ENDBRANCH  19  20
ENDBRANCH  18  19
ENDBRANCH   7  18
TORSDOF 6
ENDMDL
MODEL 8
REMARK VINA RESULT:      -7.5      3.018      7.120
REMARK  Name = 
REMARK  6 active torsions:
REMARK  status: ('A' for Active; 'I' for Inactive)
REMARK    1  A    between atoms: C_2  and  CA_4
REMARK    2  A    between atoms: C_8  and  C_9
REMARK    3  A    between atoms: C_9  and  C_10
REMARK    4  A    between atoms: C_16  and  O_17
REMARK    5  A    between atoms: O_17  and  C_18
REMARK    6  A    between atoms: C_18  and  C_19
REMARK                            x       y       z     vdW  Elec       q    Type
REMARK                         _______ _______ _______ _____ _____    ______ ____
ROOT
ATOM      1  C   UNL     1       2.734   5.630  18.740  0.00  0.00    +0.000 A 
ATOM      2  C   UNL     1       2.497   4.266  18.480  0.00  0.00    +0.000 A 
ATOM      3  C   UNL     1       1.604   3.535  19.273  0.00  0.00    +0.000 A 
ATOM      4 CL   UNL     1       1.334   1.872  18.947  0.00  0.00    +0.000 Cl
ATOM      5  C   UNL     1       0.932   4.152  20.311  0.00  0.00    +0.000 A 
ATOM      6  C   UNL     1       1.164   5.505  20.582  0.00  0.00    +0.000 A 
ATOM      7  C   UNL     1       2.083   6.244  19.827  0.00  0.00    +0.000 A 
ENDROOT
BRANCH   1   8
ATOM      8  C   UNL     1       3.685   6.374  17.824  0.00  0.00    +0.000 C 
BRANCH   8  13
ATOM      9  CA  UNL     1       6.558   5.052  15.901  0.00  0.00    +0.000 A 
ATOM     10  C   UNL     1       7.522   4.792  16.881  0.00  0.00    +0.000 A 
ATOM     11  C   UNL     1       7.231   5.024  18.218  0.00  0.00    +0.000 A 
ATOM     12  C   UNL     1       5.980   5.523  18.571  0.00  0.00    +0.000 A 
ATOM     13  C   UNL     1       5.052   5.787  17.572  0.00  0.00    +0.000 A 
ATOM     14  N   UNL     1       5.324   5.550  16.263  0.00  0.00    +0.000 NA
BRANCH   9  16
ATOM     15  O   UNL     1       6.199   3.906  13.802  0.00  0.00    +0.000 OA
ATOM     16  C   UNL     1       6.884   4.786  14.415  0.00  0.00    +0.000 C 
ATOM     17  OXT UNL     1       7.819   5.486  13.895  0.00  0.00    +0.000 OA
ENDBRANCH   9  16
ENDBRANCH   8  13
ENDBRANCH   1   8
BRANCH   7  18
ATOM     18  O   UNL     1       2.392   7.561  20.096  0.00  0.00    +0.000 OA
BRANCH  18  19
ATOM     19  C   UNL     1       1.377   8.505  19.723  0.00  0.00    +0.000 C 
BRANCH  19  20
ATOM     20  C   UNL     1       1.070   9.484  20.852  0.00  0.00    +0.000 C 
ATOM     21  C   UNL     1      -0.240  10.232  20.601  0.00  0.00    +0.000 C 
ATOM     22  C   UNL     1      -0.642  10.749  21.973  0.00  0.00    +0.000 C 
ATOM     23  C   UNL     1      -0.085   9.742  22.976  0.00  0.00    +0.000 C 
ATOM     24  C   UNL     1       0.827   8.799  22.193  0.00  0.00    +0.000 C 
ENDBRANCH  19  20
ENDBRANCH  18  19
ENDBRANCH   7  18
TORSDOF 6
ENDMDL
MODEL 9
REMARK VINA RESULT:      -7.5      1.301      1.762
REMARK  Name = 
REMARK  6 active torsions:
REMARK  status: ('A' for Active; 'I' for Inactive)
REMARK    1  A    between atoms: C_2  and  CA_4
REMARK    2  A    between atoms: C_8  and  C_9
REMARK    3  A    between atoms: C_9  and  C_10
REMARK    4  A    between atoms: C_16  and  O_17
REMARK    5  A    between atoms: O_17  and  C_18
REMARK    6  A    between atoms: C_18  and  C_19
REMARK                            x       y       z     vdW  Elec       q    Type
REMARK                         _______ _______ _______ _____ _____    ______ ____
ROOT
ATOM      1  C   UNL     1       4.211   6.112  17.415  0.00  0.00    +0.000 A 
ATOM      2  C   UNL     1       5.264   7.040  17.525  0.00  0.00    +0.000 A 
ATOM      3  C   UNL     1       6.597   6.613  17.483  0.00  0.00    +0.000 A 
ATOM      4 CL   UNL     1       7.869   7.756  17.627  0.00  0.00    +0.000 Cl
ATOM      5  C   UNL     1       6.891   5.272  17.315  0.00  0.00    +0.000 A 
ATOM      6  C   UNL     1       5.853   4.341  17.210  0.00  0.00    +0.000 A 
ATOM      7  C   UNL     1       4.514   4.743  17.291  0.00  0.00    +0.000 A 
ENDROOT
BRANCH   1   8
ATOM      8  C   UNL     1       2.791   6.642  17.433  0.00  0.00    +0.000 C 
BRANCH   8  13
ATOM      9  CA  UNL     1       1.312   9.207  19.655  0.00  0.00    +0.000 A 
ATOM     10  C   UNL     1       1.201   8.553  20.888  0.00  0.00    +0.000 A 
ATOM     11  C   UNL     1       1.643   7.245  21.020  0.00  0.00    +0.000 A 
ATOM     12  C   UNL     1       2.188   6.590  19.920  0.00  0.00    +0.000 A 
ATOM     13  C   UNL     1       2.268   7.260  18.706  0.00  0.00    +0.000 A 
ATOM     14  N   UNL     1       1.850   8.546  18.571  0.00  0.00    +0.000 NA
BRANCH   9  16
ATOM     15  O   UNL     1       1.341  11.380  18.595  0.00  0.00    +0.000 OA
ATOM     16  C   UNL     1       0.825  10.666  19.513  0.00  0.00    +0.000 C 
ATOM     17  OXT UNL     1      -0.082  11.053  20.326  0.00  0.00    +0.000 OA
ENDBRANCH   9  16
ENDBRANCH   8  13
ENDBRANCH   1   8
BRANCH   7  18
ATOM     18  O   UNL     1       3.458   3.855  17.258  0.00  0.00    +0.000 OA
BRANCH  18  19
ATOM     19  C   UNL     1       3.698   2.611  17.934  0.00  0.00    +0.000 C 
BRANCH  19  20
ATOM     20  C   UNL     1       2.671   2.354  19.031  0.00  0.00    +0.000 C 
ATOM     21  C   UNL     1       3.151   2.887  20.382  0.00  0.00    +0.000 C 
ATOM     22  C   UNL     1       1.881   3.014  21.206  0.00  0.00    +0.000 C 
ATOM     23  C   UNL     1       0.764   3.302  20.205  0.00  0.00    +0.000 C 
ATOM     24  C   UNL     1       1.358   3.100  18.812  0.00  0.00    +0.000 C 
ENDBRANCH  19  20
ENDBRANCH  18  19
ENDBRANCH   7  18
TORSDOF 6
ENDMDL
