MODEL 1
REMARK VINA RESULT:      -7.7      0.000      0.000
REMARK  Name = 
REMARK  3 active torsions:
REMARK  status: ('A' for Active; 'I' for Inactive)
REMARK    1  A    between atoms: C_1  and  N_2
REMARK    2  A    between atoms: N_2  and  C_3
REMARK    3  A    between atoms: N_2  and  C_12
REMARK                            x       y       z     vdW  Elec       q    Type
REMARK                         _______ _______ _______ _____ _____    ______ ____
ROOT
ATOM      1  C   UNL     1       3.414   7.892  17.522  0.00  0.00    +0.000 C 
ATOM      2  N   UNL     1       3.488   6.428  17.437  0.00  0.00    +0.000 NA
ENDROOT
BRANCH   2   3
ATOM      3  C   UNL     1       2.606   5.771  18.437  0.00  0.00    +0.000 C 
ATOM      4  C   UNL     1       2.785   6.407  19.838  0.00  0.00    +0.000 C 
ATOM      5  C   UNL     1       1.785   5.787  20.801  0.00  0.00    +0.000 C 
ATOM      6  C   UNL     1       2.118   4.326  20.961  0.00  0.00    +0.000 C 
ATOM      7  O   UNL     1       2.042   3.759  22.046  0.00  0.00    +0.000 OA
ATOM      8  C   UNL     1       2.444   3.567  19.724  0.00  0.00    +0.000 A 
ATOM      9  C   UNL     1       2.504   2.166  19.802  0.00  0.00    +0.000 A 
ATOM     10  C   UNL     1       2.651   1.388  18.659  0.00  0.00    +0.000 A 
ATOM     11  C   UNL     1       2.661   2.012  17.428  0.00  0.00    +0.000 A 
ATOM     12  C   UNL     1       2.579   3.410  17.352  0.00  0.00    +0.000 A 
ATOM     13  C   UNL     1       2.579   4.233  18.493  0.00  0.00    +0.000 A 
ENDBRANCH   2   3
BRANCH   2  14
ATOM     14  C   UNL     1       4.889   5.950  17.392  0.00  0.00    +0.000 C 
ATOM     15  C   UNL     1       5.950   7.064  17.615  0.00  0.00    +0.000 C 
ATOM     16  C   UNL     1       7.265   6.488  17.080  0.00  0.00    +0.000 C 
ATOM     17  C   UNL     1       6.765   5.691  15.919  0.00  0.00    +0.000 A 
ATOM     18  C   UNL     1       7.512   5.244  14.831  0.00  0.00    +0.000 A 
ATOM     19  C   UNL     1       6.889   4.454  13.864  0.00  0.00    +0.000 A 
ATOM     20  C   UNL     1       5.568   4.054  14.039  0.00  0.00    +0.000 A 
ATOM     21  C   UNL     1       4.863   4.443  15.181  0.00  0.00    +0.000 A 
ATOM     22  C   UNL     1       5.419   5.340  16.090  0.00  0.00    +0.000 A 
ENDBRANCH   2  14
TORSDOF 2
ENDMDL
MODEL 2
REMARK VINA RESULT:      -7.4      3.830      6.498
REMARK  Name = 
REMARK  3 active torsions:
REMARK  status: ('A' for Active; 'I' for Inactive)
REMARK    1  A    between atoms: C_1  and  N_2
REMARK    2  A    between atoms: N_2  and  C_3
REMARK    3  A    between atoms: N_2  and  C_12
REMARK                            x       y       z     vdW  Elec       q    Type
REMARK                         _______ _______ _______ _____ _____    ______ ____
ROOT
ATOM      1  C   UNL     1       1.046   8.474  21.337  0.00  0.00    +0.000 C 
ATOM      2  N   UNL     1       1.158   8.416  19.874  0.00  0.00    +0.000 NA
ENDROOT
BRANCH   2   3
ATOM      3  C   UNL     1       2.290   7.557  19.439  0.00  0.00    +0.000 C 
ATOM      4  C   UNL     1       2.801   7.977  18.038  0.00  0.00    +0.000 C 
ATOM      5  C   UNL     1       4.027   7.152  17.684  0.00  0.00    +0.000 C 
ATOM      6  C   UNL     1       3.613   5.709  17.560  0.00  0.00    +0.000 C 
ATOM      7  O   UNL     1       4.069   4.976  16.688  0.00  0.00    +0.000 OA
ATOM      8  C   UNL     1       2.703   5.174  18.608  0.00  0.00    +0.000 A 
ATOM      9  C   UNL     1       2.507   3.785  18.670  0.00  0.00    +0.000 A 
ATOM     10  C   UNL     1       1.796   3.204  19.715  0.00  0.00    +0.000 A 
ATOM     11  C   UNL     1       1.345   4.011  20.740  0.00  0.00    +0.000 A 
ATOM     12  C   UNL     1       1.562   5.396  20.685  0.00  0.00    +0.000 A 
ATOM     13  C   UNL     1       2.146   6.030  19.574  0.00  0.00    +0.000 A 
ENDBRANCH   2   3
BRANCH   2  14
ATOM     14  C   UNL     1       1.094   9.764  19.264  0.00  0.00    +0.000 C 
ATOM     15  C   UNL     1       1.146  10.931  20.290  0.00  0.00    +0.000 C 
ATOM     16  C   UNL     1       0.612  12.157  19.542  0.00  0.00    +0.000 C 
ATOM     17  C   UNL     1      -0.433  11.522  18.683  0.00  0.00    +0.000 A 
ATOM     18  C   UNL     1      -1.503  12.160  18.061  0.00  0.00    +0.000 A 
ATOM     19  C   UNL     1      -2.350  11.415  17.240  0.00  0.00    +0.000 A 
ATOM     20  C   UNL     1      -2.069  10.076  16.985  0.00  0.00    +0.000 A 
ATOM     21  C   UNL     1      -0.941   9.476  17.552  0.00  0.00    +0.000 A 
ATOM     22  C   UNL     1      -0.160  10.162  18.479  0.00  0.00    +0.000 A 
ENDBRANCH   2  14
TORSDOF 2
ENDMDL
MODEL 3
REMARK VINA RESULT:      -7.1      2.449      5.777
REMARK  Name = 
REMARK  3 active torsions:
REMARK  status: ('A' for Active; 'I' for Inactive)
REMARK    1  A    between atoms: C_1  and  N_2
REMARK    2  A    between atoms: N_2  and  C_3
REMARK    3  A    between atoms: N_2  and  C_12
REMARK                            x       y       z     vdW  Elec       q    Type
REMARK                         _______ _______ _______ _____ _____    ______ ____
ROOT
ATOM      1  C   UNL     1       1.856   4.483  18.083  0.00  0.00    +0.000 C 
ATOM      2  N   UNL     1       2.984   5.420  18.160  0.00  0.00    +0.000 NA
ENDROOT
BRANCH   2   3
ATOM      3  C   UNL     1       4.292   4.715  18.139  0.00  0.00    +0.000 C 
ATOM      4  C   UNL     1       5.197   5.189  19.304  0.00  0.00    +0.000 C 
ATOM      5  C   UNL     1       6.473   4.363  19.315  0.00  0.00    +0.000 C 
ATOM      6  C   UNL     1       7.239   4.648  18.049  0.00  0.00    +0.000 C 
ATOM      7  O   UNL     1       8.461   4.753  18.041  0.00  0.00    +0.000 OA
ATOM      8  C   UNL     1       6.460   4.694  16.783  0.00  0.00    +0.000 A 
ATOM      9  C   UNL     1       7.167   4.699  15.569  0.00  0.00    +0.000 A 
ATOM     10  C   UNL     1       6.506   4.586  14.351  0.00  0.00    +0.000 A 
ATOM     11  C   UNL     1       5.139   4.391  14.354  0.00  0.00    +0.000 A 
ATOM     12  C   UNL     1       4.439   4.365  15.568  0.00  0.00    +0.000 A 
ATOM     13  C   UNL     1       5.056   4.624  16.806  0.00  0.00    +0.000 A 
ENDBRANCH   2   3
BRANCH   2  14
ATOM     14  C   UNL     1       2.800   6.416  19.240  0.00  0.00    +0.000 C 
ATOM     15  C   UNL     1       1.771   5.993  20.327  0.00  0.00    +0.000 C 
ATOM     16  C   UNL     1       1.388   7.288  21.051  0.00  0.00    +0.000 C 
ATOM     17  C   UNL     1       1.420   8.259  19.916  0.00  0.00    +0.000 A 
ATOM     18  C   UNL     1       0.809   9.510  19.870  0.00  0.00    +0.000 A 
ATOM     19  C   UNL     1       0.998  10.313  18.746  0.00  0.00    +0.000 A 
ATOM     20  C   UNL     1       1.856   9.899  17.732  0.00  0.00    +0.000 A 
ATOM     21  C   UNL     1       2.527   8.677  17.837  0.00  0.00    +0.000 A 
ATOM     22  C   UNL     1       2.249   7.800  18.884  0.00  0.00    +0.000 A 
ENDBRANCH   2  14
TORSDOF 2
ENDMDL
MODEL 4
REMARK VINA RESULT:      -7.1      2.429      5.559
REMARK  Name = 
REMARK  3 active torsions:
REMARK  status: ('A' for Active; 'I' for Inactive)
REMARK    1  A    between atoms: C_1  and  N_2
REMARK    2  A    between atoms: N_2  and  C_3
REMARK    3  A    between atoms: N_2  and  C_12
REMARK                            x       y       z     vdW  Elec       q    Type
REMARK                         _______ _______ _______ _____ _____    ______ ____
ROOT
ATOM      1  C   UNL     1       4.858   7.357  18.053  0.00  0.00    +0.000 C 
ATOM      2  N   UNL     1       3.785   6.685  18.795  0.00  0.00    +0.000 NA
ENDROOT
BRANCH   2   3
ATOM      3  C   UNL     1       3.816   5.212  18.600  0.00  0.00    +0.000 C 
ATOM      4  C   UNL     1       3.644   4.845  17.105  0.00  0.00    +0.000 C 
ATOM      5  C   UNL     1       3.798   3.342  16.937  0.00  0.00    +0.000 C 
ATOM      6  C   UNL     1       2.669   2.661  17.666  0.00  0.00    +0.000 C 
ATOM      7  O   UNL     1       2.103   1.674  17.206  0.00  0.00    +0.000 OA
ATOM      8  C   UNL     1       2.334   3.171  19.023  0.00  0.00    +0.000 A 
ATOM      9  C   UNL     1       1.474   2.404  19.825  0.00  0.00    +0.000 A 
ATOM     10  C   UNL     1       1.242   2.739  21.155  0.00  0.00    +0.000 A 
ATOM     11  C   UNL     1       1.932   3.802  21.702  0.00  0.00    +0.000 A 
ATOM     12  C   UNL     1       2.807   4.552  20.903  0.00  0.00    +0.000 A 
ATOM     13  C   UNL     1       2.952   4.331  19.521  0.00  0.00    +0.000 A 
ENDBRANCH   2   3
BRANCH   2  14
ATOM     14  C   UNL     1       2.474   7.341  18.582  0.00  0.00    +0.000 C 
ATOM     15  C   UNL     1       2.491   8.462  17.504  0.00  0.00    +0.000 C 
ATOM     16  C   UNL     1       1.231   9.294  17.762  0.00  0.00    +0.000 C 
ATOM     17  C   UNL     1       1.160   9.232  19.254  0.00  0.00    +0.000 A 
ATOM     18  C   UNL     1       0.456  10.094  20.092  0.00  0.00    +0.000 A 
ATOM     19  C   UNL     1       0.452   9.847  21.465  0.00  0.00    +0.000 A 
ATOM     20  C   UNL     1       1.071   8.707  21.967  0.00  0.00    +0.000 A 
ATOM     21  C   UNL     1       1.699   7.809  21.099  0.00  0.00    +0.000 A 
ATOM     22  C   UNL     1       1.832   8.105  19.744  0.00  0.00    +0.000 A 
ENDBRANCH   2  14
TORSDOF 2
ENDMDL
MODEL 5
REMARK VINA RESULT:      -7.0      6.809      9.102
REMARK  Name = 
REMARK  3 active torsions:
REMARK  status: ('A' for Active; 'I' for Inactive)
REMARK    1  A    between atoms: C_1  and  N_2
REMARK    2  A    between atoms: N_2  and  C_3
REMARK    3  A    between atoms: N_2  and  C_12
REMARK                            x       y       z     vdW  Elec       q    Type
REMARK                         _______ _______ _______ _____ _____    ______ ____
ROOT
ATOM      1  C   UNL     1      -0.018  12.774  21.582  0.00  0.00    +0.000 C 
ATOM      2  N   UNL     1      -0.584  12.032  20.448  0.00  0.00    +0.000 NA
ENDROOT
BRANCH   2   3
ATOM      3  C   UNL     1      -1.910  12.567  20.043  0.00  0.00    +0.000 C 
ATOM      4  C   UNL     1      -2.873  12.641  21.254  0.00  0.00    +0.000 C 
ATOM      5  C   UNL     1      -4.173  13.300  20.821  0.00  0.00    +0.000 C 
ATOM      6  C   UNL     1      -4.845  12.411  19.808  0.00  0.00    +0.000 C 
ATOM      7  O   UNL     1      -6.061  12.243  19.799  0.00  0.00    +0.000 OA
ATOM      8  C   UNL     1      -3.985  11.823  18.747  0.00  0.00    +0.000 A 
ATOM      9  C   UNL     1      -4.611  11.209  17.650  0.00  0.00    +0.000 A 
ATOM     10  C   UNL     1      -3.877  10.778  16.551  0.00  0.00    +0.000 A 
ATOM     11  C   UNL     1      -2.520  11.031  16.519  0.00  0.00    +0.000 A 
ATOM     12  C   UNL     1      -1.901  11.664  17.606  0.00  0.00    +0.000 A 
ATOM     13  C   UNL     1      -2.588  11.978  18.793  0.00  0.00    +0.000 A 
ENDBRANCH   2   3
BRANCH   2  14
ATOM     14  C   UNL     1      -0.511  10.567  20.657  0.00  0.00    +0.000 C 
ATOM     15  C   UNL     1      -0.038  10.150  22.079  0.00  0.00    +0.000 C 
ATOM     16  C   UNL     1       0.409   8.691  21.948  0.00  0.00    +0.000 C 
ATOM     17  C   UNL     1       1.000   8.705  20.575  0.00  0.00    +0.000 A 
ATOM     18  C   UNL     1       1.894   7.780  20.043  0.00  0.00    +0.000 A 
ATOM     19  C   UNL     1       2.296   7.917  18.713  0.00  0.00    +0.000 A 
ATOM     20  C   UNL     1       1.739   8.914  17.919  0.00  0.00    +0.000 A 
ATOM     21  C   UNL     1       0.779   9.780  18.450  0.00  0.00    +0.000 A 
ATOM     22  C   UNL     1       0.464   9.747  19.807  0.00  0.00    +0.000 A 
ENDBRANCH   2  14
TORSDOF 2
ENDMDL
MODEL 6
REMARK VINA RESULT:      -6.8      6.331      8.524
REMARK  Name = 
REMARK  3 active torsions:
REMARK  status: ('A' for Active; 'I' for Inactive)
REMARK    1  A    between atoms: C_1  and  N_2
REMARK    2  A    between atoms: N_2  and  C_3
REMARK    3  A    between atoms: N_2  and  C_12
REMARK                            x       y       z     vdW  Elec       q    Type
REMARK                         _______ _______ _______ _____ _____    ______ ____
ROOT
ATOM      1  C   UNL     1       1.367  12.358  20.325  0.00  0.00    +0.000 C 
ATOM      2  N   UNL     1       0.331  11.628  19.583  0.00  0.00    +0.000 NA
ENDROOT
BRANCH   2   3
ATOM      3  C   UNL     1      -0.954  12.374  19.548  0.00  0.00    +0.000 C 
ATOM      4  C   UNL     1      -1.476  12.650  20.980  0.00  0.00    +0.000 C 
ATOM      5  C   UNL     1      -2.726  13.512  20.900  0.00  0.00    +0.000 C 
ATOM      6  C   UNL     1      -3.806  12.725  20.205  0.00  0.00    +0.000 C 
ATOM      7  O   UNL     1      -4.977  12.771  20.570  0.00  0.00    +0.000 OA
ATOM      8  C   UNL     1      -3.415  11.966  18.988  0.00  0.00    +0.000 A 
ATOM      9  C   UNL     1      -4.435  11.439  18.179  0.00  0.00    +0.000 A 
ATOM     10  C   UNL     1      -4.148  10.855  16.949  0.00  0.00    +0.000 A 
ATOM     11  C   UNL     1      -2.844  10.867  16.497  0.00  0.00    +0.000 A 
ATOM     12  C   UNL     1      -1.832  11.414  17.298  0.00  0.00    +0.000 A 
ATOM     13  C   UNL     1      -2.065  11.877  18.606  0.00  0.00    +0.000 A 
ENDBRANCH   2   3
BRANCH   2  14
ATOM     14  C   UNL     1       0.248  10.211  20.006  0.00  0.00    +0.000 C 
ATOM     15  C   UNL     1       0.668   9.961  21.482  0.00  0.00    +0.000 C 
ATOM     16  C   UNL     1       0.959   8.460  21.574  0.00  0.00    +0.000 C 
ATOM     17  C   UNL     1       1.554   8.210  20.226  0.00  0.00    +0.000 A 
ATOM     18  C   UNL     1       2.348   7.129  19.852  0.00  0.00    +0.000 A 
ATOM     19  C   UNL     1       2.768   7.026  18.525  0.00  0.00    +0.000 A 
ATOM     20  C   UNL     1       2.323   7.948  17.583  0.00  0.00    +0.000 A 
ATOM     21  C   UNL     1       1.457   8.977  17.963  0.00  0.00    +0.000 A 
ATOM     22  C   UNL     1       1.134   9.177  19.303  0.00  0.00    +0.000 A 
ENDBRANCH   2  14
TORSDOF 2
ENDMDL
MODEL 7
REMARK VINA RESULT:      -6.8      3.339      6.005
REMARK  Name = 
REMARK  3 active torsions:
REMARK  status: ('A' for Active; 'I' for Inactive)
REMARK    1  A    between atoms: C_1  and  N_2
REMARK    2  A    between atoms: N_2  and  C_3
REMARK    3  A    between atoms: N_2  and  C_12
REMARK                            x       y       z     vdW  Elec       q    Type
REMARK                         _______ _______ _______ _____ _____    ______ ____
ROOT
ATOM      1  C   UNL     1       2.962   7.788  17.737  0.00  0.00    +0.000 C 
ATOM      2  N   UNL     1       2.279   7.278  18.932  0.00  0.00    +0.000 NA
ENDROOT
BRANCH   2   3
ATOM      3  C   UNL     1       1.863   8.376  19.843  0.00  0.00    +0.000 C 
ATOM      4  C   UNL     1       1.700   7.861  21.295  0.00  0.00    +0.000 C 
ATOM      5  C   UNL     1       1.389   9.034  22.211  0.00  0.00    +0.000 C 
ATOM      6  C   UNL     1       0.052   9.606  21.818  0.00  0.00    +0.000 C 
ATOM      7  O   UNL     1      -0.758   9.995  22.655  0.00  0.00    +0.000 OA
ATOM      8  C   UNL     1      -0.210   9.780  20.364  0.00  0.00    +0.000 A 
ATOM      9  C   UNL     1      -1.325  10.540  19.977  0.00  0.00    +0.000 A 
ATOM     10  C   UNL     1      -1.542  10.872  18.644  0.00  0.00    +0.000 A 
ATOM     11  C   UNL     1      -0.598  10.504  17.707  0.00  0.00    +0.000 A 
ATOM     12  C   UNL     1       0.526   9.764  18.100  0.00  0.00    +0.000 A 
ATOM     13  C   UNL     1       0.700   9.286  19.412  0.00  0.00    +0.000 A 
ENDBRANCH   2   3
BRANCH   2  14
ATOM     14  C   UNL     1       3.025   6.162  19.558  0.00  0.00    +0.000 C 
ATOM     15  C   UNL     1       4.374   5.828  18.861  0.00  0.00    +0.000 C 
ATOM     16  C   UNL     1       4.739   4.417  19.333  0.00  0.00    +0.000 C 
ATOM     17  C   UNL     1       3.383   3.793  19.413  0.00  0.00    +0.000 A 
ATOM     18  C   UNL     1       3.091   2.432  19.425  0.00  0.00    +0.000 A 
ATOM     19  C   UNL     1       1.763   2.028  19.568  0.00  0.00    +0.000 A 
ATOM     20  C   UNL     1       0.767   2.976  19.782  0.00  0.00    +0.000 A 
ATOM     21  C   UNL     1       1.095   4.333  19.852  0.00  0.00    +0.000 A 
ATOM     22  C   UNL     1       2.390   4.768  19.578  0.00  0.00    +0.000 A 
ENDBRANCH   2  14
TORSDOF 2
ENDMDL
MODEL 8
REMARK VINA RESULT:      -6.7      8.797     11.213
REMARK  Name = 
REMARK  3 active torsions:
REMARK  status: ('A' for Active; 'I' for Inactive)
REMARK    1  A    between atoms: C_1  and  N_2
REMARK    2  A    between atoms: N_2  and  C_3
REMARK    3  A    between atoms: N_2  and  C_12
REMARK                            x       y       z     vdW  Elec       q    Type
REMARK                         _______ _______ _______ _____ _____    ______ ____
ROOT
ATOM      1  C   UNL     1      -0.781  13.931  19.965  0.00  0.00    +0.000 C 
ATOM      2  N   UNL     1      -2.078  13.243  20.006  0.00  0.00    +0.000 NA
ENDROOT
BRANCH   2   3
ATOM      3  C   UNL     1      -2.781  13.465  21.296  0.00  0.00    +0.000 C 
ATOM      4  C   UNL     1      -2.152  12.613  22.426  0.00  0.00    +0.000 C 
ATOM      5  C   UNL     1      -2.823  12.956  23.746  0.00  0.00    +0.000 C 
ATOM      6  C   UNL     1      -4.269  12.543  23.669  0.00  0.00    +0.000 C 
ATOM      7  O   UNL     1      -4.850  12.033  24.623  0.00  0.00    +0.000 OA
ATOM      8  C   UNL     1      -5.002  12.874  22.417  0.00  0.00    +0.000 A 
ATOM      9  C   UNL     1      -6.400  12.738  22.412  0.00  0.00    +0.000 A 
ATOM     10  C   UNL     1      -7.161  13.175  21.333  0.00  0.00    +0.000 A 
ATOM     11  C   UNL     1      -6.525  13.818  20.290  0.00  0.00    +0.000 A 
ATOM     12  C   UNL     1      -5.131  13.971  20.309  0.00  0.00    +0.000 A 
ATOM     13  C   UNL     1      -4.319  13.411  21.312  0.00  0.00    +0.000 A 
ENDBRANCH   2   3
BRANCH   2  14
ATOM     14  C   UNL     1      -1.968  11.835  19.560  0.00  0.00    +0.000 C 
ATOM     15  C   UNL     1      -0.519  11.387  19.217  0.00  0.00    +0.000 C 
ATOM     16  C   UNL     1      -0.674  10.123  18.365  0.00  0.00    +0.000 C 
ATOM     17  C   UNL     1      -1.909  10.460  17.594  0.00  0.00    +0.000 A 
ATOM     18  C   UNL     1      -2.336   9.874  16.405  0.00  0.00    +0.000 A 
ATOM     19  C   UNL     1      -3.555  10.273  15.855  0.00  0.00    +0.000 A 
ATOM     20  C   UNL     1      -4.362  11.178  16.537  0.00  0.00    +0.000 A 
ATOM     21  C   UNL     1      -3.953  11.689  17.773  0.00  0.00    +0.000 A 
ATOM     22  C   UNL     1      -2.684  11.410  18.274  0.00  0.00    +0.000 A 
ENDBRANCH   2  14
TORSDOF 2
ENDMDL
MODEL 9
REMARK VINA RESULT:      -6.6      6.810      9.914
REMARK  Name = 
REMARK  3 active torsions:
REMARK  status: ('A' for Active; 'I' for Inactive)
REMARK    1  A    between atoms: C_1  and  N_2
REMARK    2  A    between atoms: N_2  and  C_3
REMARK    3  A    between atoms: N_2  and  C_12
REMARK                            x       y       z     vdW  Elec       q    Type
REMARK                         _______ _______ _______ _____ _____    ______ ____
ROOT
ATOM      1  C   UNL     1      -0.617  12.982  17.802  0.00  0.00    +0.000 C 
ATOM      2  N   UNL     1      -1.099  11.993  18.775  0.00  0.00    +0.000 NA
ENDROOT
BRANCH   2   3
ATOM      3  C   UNL     1       0.012  11.173  19.326  0.00  0.00    +0.000 C 
ATOM      4  C   UNL     1       0.446  10.077  18.320  0.00  0.00    +0.000 C 
ATOM      5  C   UNL     1       1.654   9.340  18.873  0.00  0.00    +0.000 C 
ATOM      6  C   UNL     1       1.241   8.615  20.126  0.00  0.00    +0.000 C 
ATOM      7  O   UNL     1       1.652   7.489  20.389  0.00  0.00    +0.000 OA
ATOM      8  C   UNL     1       0.390   9.362  21.091  0.00  0.00    +0.000 A 
ATOM      9  C   UNL     1       0.203   8.815  22.371  0.00  0.00    +0.000 A 
ATOM     10  C   UNL     1      -0.449   9.530  23.370  0.00  0.00    +0.000 A 
ATOM     11  C   UNL     1      -0.848  10.825  23.107  0.00  0.00    +0.000 A 
ATOM     12  C   UNL     1      -0.640  11.375  21.833  0.00  0.00    +0.000 A 
ATOM     13  C   UNL     1      -0.119  10.630  20.760  0.00  0.00    +0.000 A 
ENDBRANCH   2   3
BRANCH   2  14
ATOM     14  C   UNL     1      -2.269  11.243  18.264  0.00  0.00    +0.000 C 
ATOM     15  C   UNL     1      -2.336  11.149  16.713  0.00  0.00    +0.000 C 
ATOM     16  C   UNL     1      -3.787  10.775  16.390  0.00  0.00    +0.000 C 
ATOM     17  C   UNL     1      -4.510  11.531  17.457  0.00  0.00    +0.000 A 
ATOM     18  C   UNL     1      -5.857  11.885  17.461  0.00  0.00    +0.000 A 
ATOM     19  C   UNL     1      -6.380  12.541  18.577  0.00  0.00    +0.000 A 
ATOM     20  C   UNL     1      -5.581  12.753  19.695  0.00  0.00    +0.000 A 
ATOM     21  C   UNL     1      -4.254  12.313  19.703  0.00  0.00    +0.000 A 
ATOM     22  C   UNL     1      -3.674  11.779  18.554  0.00  0.00    +0.000 A 
ENDBRANCH   2  14
TORSDOF 2
ENDMDL
