MODEL 1
REMARK VINA RESULT:      -7.6      0.000      0.000
REMARK  Name = 
REMARK  14 active torsions:
REMARK  status: ('A' for Active; 'I' for Inactive)
REMARK    1  A    between atoms: C_1  and  C_2
REMARK    2  A    between atoms: C_2  and  C_3
REMARK    3  A    between atoms: C_2  and  C_4
REMARK    4  A    between atoms: C_4  and  C_5
REMARK    5  A    between atoms: C_4  and  N_20
REMARK    6  A    between atoms: C_5  and  C_6
REMARK    7  A    between atoms: C_6  and  C_7
REMARK    8  A    between atoms: N_9  and  C_10
REMARK    9  A    between atoms: C_14  and  C_15
REMARK   10  A    between atoms: C_15  and  O_17
REMARK   11  A    between atoms: C_18  and  N_19
REMARK   12  A    between atoms: C_21  and  C_23
REMARK   13  A    between atoms: C_23  and  N_24
REMARK   14  A    between atoms: C_23  and  C_25
REMARK                            x       y       z     vdW  Elec       q    Type
REMARK                         _______ _______ _______ _____ _____    ______ ____
ROOT
ATOM      1  C   UNL     1       1.342   6.134  20.813  0.00  0.00    +0.000 C 
ENDROOT
BRANCH   1   2
ATOM      2  C   UNL     1       1.604   4.916  19.897  0.00  0.00    +0.000 C 
BRANCH   2   3
ATOM      3  N   UNL     1       3.041   4.737  19.735  0.00  0.00    +0.000 N 
ATOM      4  C   UNL     1       3.664   4.559  18.502  0.00  0.00    +0.000 C 
ATOM      5  O   UNL     1       3.061   4.491  17.442  0.00  0.00    +0.000 OA
ATOM      6  H   UNL     1       3.626   4.742  20.560  0.00  0.00    +0.000 HD
BRANCH   4   7
ATOM      7  C   UNL     1       5.199   4.382  18.673  0.00  0.00    +0.000 C 
BRANCH   7   8
ATOM      8  C   UNL     1       6.041   4.548  17.379  0.00  0.00    +0.000 C 
ATOM      9  C   UNL     1       5.629   5.758  16.515  0.00  0.00    +0.000 C 
ATOM     10  C   UNL     1       5.963   7.103  17.160  0.00  0.00    +0.000 C 
ATOM     11  C   UNL     1       7.435   7.201  17.558  0.00  0.00    +0.000 C 
ATOM     12  C   UNL     1       7.897   6.001  18.379  0.00  0.00    +0.000 C 
ATOM     13  C   UNL     1       7.553   4.681  17.686  0.00  0.00    +0.000 C 
ENDBRANCH   7   8
BRANCH   7  14
ATOM     14  N   UNL     1       5.412   3.023  19.240  0.00  0.00    +0.000 NA
ATOM     15  H   UNL     1       6.339   3.015  19.675  0.00  0.00    +0.000 HD
ATOM     16  H   UNL     1       5.469   2.339  18.489  0.00  0.00    +0.000 HD
ENDBRANCH   7  14
ENDBRANCH   4   7
ENDBRANCH   2   3
BRANCH   2  18
ATOM     17  C   UNL     1       0.698   2.579  19.260  0.00  0.00    +0.000 C 
ATOM     18  C   UNL     1       0.926   3.602  20.378  0.00  0.00    +0.000 C 
ATOM     19  C   UNL     1       1.699   2.954  21.531  0.00  0.00    +0.000 C 
ENDBRANCH   2  18
ENDBRANCH   1   2
BRANCH   1  20
ATOM     20  C   UNL     1       2.074   7.402  20.369  0.00  0.00    +0.000 C 
BRANCH  20  21
ATOM     21  C   UNL     1       1.125   8.580  20.291  0.00  0.00    +0.000 C 
ATOM     22  O   UNL     1       0.428   8.916  21.242  0.00  0.00    +0.000 OA
ATOM     23  N   UNL     1       1.175   9.235  19.072  0.00  0.00    +0.000 N 
ATOM     24  H   UNL     1       1.417   8.638  18.290  0.00  0.00    +0.000 HD
BRANCH  23  25
ATOM     25  C   UNL     1       0.298  10.307  18.777  0.00  0.00    +0.000 A 
ATOM     26  C   UNL     1      -0.787  10.051  17.938  0.00  0.00    +0.000 A 
ATOM     27  N   UNL     1      -1.724  10.965  17.611  0.00  0.00    +0.000 NA
ATOM     28  C   UNL     1      -1.569  12.202  18.134  0.00  0.00    +0.000 A 
ATOM     29  C   UNL     1      -0.502  12.582  18.946  0.00  0.00    +0.000 A 
ATOM     30  C   UNL     1       0.480  11.622  19.251  0.00  0.00    +0.000 A 
BRANCH  30  31
ATOM     31  N   UNL     1       1.545  11.941  20.156  0.00  0.00    +0.000 N 
ATOM     32  H   UNL     1       2.109  11.081  20.276  0.00  0.00    +0.000 HD
ATOM     33  H   UNL     1       2.196  12.576  19.688  0.00  0.00    +0.000 HD
ENDBRANCH  30  31
BRANCH  29  34
ATOM     34  C   UNL     1      -0.455  14.004  19.370  0.00  0.00    +0.000 C 
ATOM     35  O   UNL     1      -0.350  14.921  18.571  0.00  0.00    +0.000 OA
BRANCH  34  36
ATOM     36  O   UNL     1      -0.489  14.199  20.705  0.00  0.00    +0.000 OA
ATOM     37  H   UNL     1       0.319  13.838  21.149  0.00  0.00    +0.000 HD
ENDBRANCH  34  36
ENDBRANCH  29  34
ENDBRANCH  23  25
ENDBRANCH  20  21
ENDBRANCH   1  20
TORSDOF 12
ENDMDL
MODEL 2
REMARK VINA RESULT:      -7.6      1.884      4.543
REMARK  Name = 
REMARK  14 active torsions:
REMARK  status: ('A' for Active; 'I' for Inactive)
REMARK    1  A    between atoms: C_1  and  C_2
REMARK    2  A    between atoms: C_2  and  C_3
REMARK    3  A    between atoms: C_2  and  C_4
REMARK    4  A    between atoms: C_4  and  C_5
REMARK    5  A    between atoms: C_4  and  N_20
REMARK    6  A    between atoms: C_5  and  C_6
REMARK    7  A    between atoms: C_6  and  C_7
REMARK    8  A    between atoms: N_9  and  C_10
REMARK    9  A    between atoms: C_14  and  C_15
REMARK   10  A    between atoms: C_15  and  O_17
REMARK   11  A    between atoms: C_18  and  N_19
REMARK   12  A    between atoms: C_21  and  C_23
REMARK   13  A    between atoms: C_23  and  N_24
REMARK   14  A    between atoms: C_23  and  C_25
REMARK                            x       y       z     vdW  Elec       q    Type
REMARK                         _______ _______ _______ _____ _____    ______ ____
ROOT
ATOM      1  C   UNL     1       4.357   7.246  17.630  0.00  0.00    +0.000 C 
ENDROOT
BRANCH   1   2
ATOM      2  C   UNL     1       5.180   6.004  18.045  0.00  0.00    +0.000 C 
BRANCH   2   3
ATOM      3  N   UNL     1       4.322   4.827  18.013  0.00  0.00    +0.000 N 
ATOM      4  C   UNL     1       4.571   3.669  18.746  0.00  0.00    +0.000 C 
ATOM      5  O   UNL     1       5.557   3.512  19.451  0.00  0.00    +0.000 OA
ATOM      6  H   UNL     1       3.497   4.845  17.430  0.00  0.00    +0.000 HD
BRANCH   4   7
ATOM      7  C   UNL     1       3.479   2.595  18.481  0.00  0.00    +0.000 C 
BRANCH   7   8
ATOM      8  C   UNL     1       2.670   2.139  19.725  0.00  0.00    +0.000 C 
ATOM      9  C   UNL     1       2.886   3.025  20.970  0.00  0.00    +0.000 C 
ATOM     10  C   UNL     1       2.288   4.425  20.828  0.00  0.00    +0.000 C 
ATOM     11  C   UNL     1       0.809   4.383  20.447  0.00  0.00    +0.000 C 
ATOM     12  C   UNL     1       0.543   3.482  19.244  0.00  0.00    +0.000 C 
ATOM     13  C   UNL     1       1.149   2.091  19.440  0.00  0.00    +0.000 C 
ENDBRANCH   7   8
BRANCH   7  14
ATOM     14  N   UNL     1       4.168   1.425  17.874  0.00  0.00    +0.000 NA
ATOM     15  H   UNL     1       5.002   1.775  17.395  0.00  0.00    +0.000 HD
ATOM     16  H   UNL     1       3.591   1.024  17.138  0.00  0.00    +0.000 HD
ENDBRANCH   7  14
ENDBRANCH   4   7
ENDBRANCH   2   3
BRANCH   2  18
ATOM     17  C   UNL     1       6.189   5.385  15.745  0.00  0.00    +0.000 C 
ATOM     18  C   UNL     1       6.466   5.784  17.199  0.00  0.00    +0.000 C 
ATOM     19  C   UNL     1       7.387   7.008  17.239  0.00  0.00    +0.000 C 
ENDBRANCH   2  18
ENDBRANCH   1   2
BRANCH   1  20
ATOM     20  C   UNL     1       2.854   7.096  17.880  0.00  0.00    +0.000 C 
BRANCH  20  21
ATOM     21  C   UNL     1       2.217   8.434  18.191  0.00  0.00    +0.000 C 
ATOM     22  O   UNL     1       2.386   9.416  17.476  0.00  0.00    +0.000 OA
ATOM     23  N   UNL     1       1.411   8.401  19.317  0.00  0.00    +0.000 N 
ATOM     24  H   UNL     1       1.701   7.725  20.015  0.00  0.00    +0.000 HD
BRANCH  23  25
ATOM     25  C   UNL     1       0.800   9.576  19.818  0.00  0.00    +0.000 A 
ATOM     26  C   UNL     1       1.159  10.005  21.096  0.00  0.00    +0.000 A 
ATOM     27  N   UNL     1       0.691  11.129  21.677  0.00  0.00    +0.000 NA
ATOM     28  C   UNL     1      -0.191  11.857  20.957  0.00  0.00    +0.000 A 
ATOM     29  C   UNL     1      -0.655  11.502  19.692  0.00  0.00    +0.000 A 
ATOM     30  C   UNL     1      -0.177  10.311  19.116  0.00  0.00    +0.000 A 
BRANCH  30  31
ATOM     31  N   UNL     1      -0.554   9.953  17.781  0.00  0.00    +0.000 N 
ATOM     32  H   UNL     1      -0.523   8.919  17.724  0.00  0.00    +0.000 HD
ATOM     33  H   UNL     1      -1.549  10.157  17.654  0.00  0.00    +0.000 HD
ENDBRANCH  30  31
BRANCH  29  34
ATOM     34  C   UNL     1      -1.680  12.385  19.081  0.00  0.00    +0.000 C 
ATOM     35  O   UNL     1      -2.659  12.774  19.697  0.00  0.00    +0.000 OA
BRANCH  34  36
ATOM     36  O   UNL     1      -1.469  12.683  17.781  0.00  0.00    +0.000 OA
ATOM     37  H   UNL     1      -2.310  12.924  17.318  0.00  0.00    +0.000 HD
ENDBRANCH  34  36
ENDBRANCH  29  34
ENDBRANCH  23  25
ENDBRANCH  20  21
ENDBRANCH   1  20
TORSDOF 12
ENDMDL
MODEL 3
REMARK VINA RESULT:      -7.5      3.001      7.551
REMARK  Name = 
REMARK  14 active torsions:
REMARK  status: ('A' for Active; 'I' for Inactive)
REMARK    1  A    between atoms: C_1  and  C_2
REMARK    2  A    between atoms: C_2  and  C_3
REMARK    3  A    between atoms: C_2  and  C_4
REMARK    4  A    between atoms: C_4  and  C_5
REMARK    5  A    between atoms: C_4  and  N_20
REMARK    6  A    between atoms: C_5  and  C_6
REMARK    7  A    between atoms: C_6  and  C_7
REMARK    8  A    between atoms: N_9  and  C_10
REMARK    9  A    between atoms: C_14  and  C_15
REMARK   10  A    between atoms: C_15  and  O_17
REMARK   11  A    between atoms: C_18  and  N_19
REMARK   12  A    between atoms: C_21  and  C_23
REMARK   13  A    between atoms: C_23  and  N_24
REMARK   14  A    between atoms: C_23  and  C_25
REMARK                            x       y       z     vdW  Elec       q    Type
REMARK                         _______ _______ _______ _____ _____    ______ ____
ROOT
ATOM      1  C   UNL     1       1.065   3.722  19.065  0.00  0.00    +0.000 C 
ENDROOT
BRANCH   1   2
ATOM      2  C   UNL     1       2.041   4.444  20.023  0.00  0.00    +0.000 C 
BRANCH   2   3
ATOM      3  N   UNL     1       1.481   5.736  20.396  0.00  0.00    +0.000 N 
ATOM      4  C   UNL     1       1.920   6.950  19.872  0.00  0.00    +0.000 C 
ATOM      5  O   UNL     1       2.847   7.051  19.083  0.00  0.00    +0.000 OA
ATOM      6  H   UNL     1       0.730   5.761  21.072  0.00  0.00    +0.000 HD
BRANCH   4   7
ATOM      7  C   UNL     1       1.130   8.141  20.485  0.00  0.00    +0.000 C 
BRANCH   7   8
ATOM      8  C   UNL     1       1.434   9.534  19.870  0.00  0.00    +0.000 C 
ATOM      9  C   UNL     1       0.871   9.725  18.446  0.00  0.00    +0.000 C 
ATOM     10  C   UNL     1      -0.655   9.802  18.404  0.00  0.00    +0.000 C 
ATOM     11  C   UNL     1      -1.204  10.871  19.348  0.00  0.00    +0.000 C 
ATOM     12  C   UNL     1      -0.639  10.745  20.760  0.00  0.00    +0.000 C 
ATOM     13  C   UNL     1       0.889  10.685  20.750  0.00  0.00    +0.000 C 
ENDBRANCH   7   8
BRANCH   7  14
ATOM     14  N   UNL     1       1.439   8.155  21.940  0.00  0.00    +0.000 NA
ATOM     15  H   UNL     1       1.626   7.190  22.222  0.00  0.00    +0.000 HD
ATOM     16  H   UNL     1       0.613   8.428  22.467  0.00  0.00    +0.000 HD
ENDBRANCH   7  14
ENDBRANCH   4   7
ENDBRANCH   2   3
BRANCH   2  18
ATOM     17  C   UNL     1       1.257   2.826  21.882  0.00  0.00    +0.000 C 
ATOM     18  C   UNL     1       2.426   3.615  21.281  0.00  0.00    +0.000 C 
ATOM     19  C   UNL     1       3.603   2.674  21.002  0.00  0.00    +0.000 C 
ENDBRANCH   2  18
ENDBRANCH   1   2
BRANCH   1  20
ATOM     20  C   UNL     1       1.462   3.831  17.591  0.00  0.00    +0.000 C 
BRANCH  20  21
ATOM     21  C   UNL     1       2.968   3.860  17.433  0.00  0.00    +0.000 C 
ATOM     22  O   UNL     1       3.651   2.847  17.534  0.00  0.00    +0.000 OA
ATOM     23  N   UNL     1       3.456   5.118  17.125  0.00  0.00    +0.000 N 
ATOM     24  H   UNL     1       2.902   5.881  17.498  0.00  0.00    +0.000 HD
BRANCH  23  25
ATOM     25  C   UNL     1       4.847   5.364  17.025  0.00  0.00    +0.000 A 
ATOM     26  C   UNL     1       5.410   5.425  15.750  0.00  0.00    +0.000 A 
ATOM     27  N   UNL     1       6.709   5.697  15.507  0.00  0.00    +0.000 NA
ATOM     28  C   UNL     1       7.493   5.904  16.589  0.00  0.00    +0.000 A 
ATOM     29  C   UNL     1       7.050   5.823  17.908  0.00  0.00    +0.000 A 
ATOM     30  C   UNL     1       5.698   5.510  18.139  0.00  0.00    +0.000 A 
BRANCH  30  31
ATOM     31  N   UNL     1       5.177   5.506  19.474  0.00  0.00    +0.000 N 
ATOM     32  H   UNL     1       5.961   5.258  20.105  0.00  0.00    +0.000 HD
ATOM     33  H   UNL     1       4.963   6.469  19.746  0.00  0.00    +0.000 HD
ENDBRANCH  30  31
BRANCH  29  34
ATOM     34  C   UNL     1       8.070   6.008  18.971  0.00  0.00    +0.000 C 
ATOM     35  O   UNL     1       8.375   5.117  19.747  0.00  0.00    +0.000 OA
BRANCH  34  36
ATOM     36  O   UNL     1       8.595   7.250  19.041  0.00  0.00    +0.000 OA
ATOM     37  H   UNL     1       8.695   7.553  19.978  0.00  0.00    +0.000 HD
ENDBRANCH  34  36
ENDBRANCH  29  34
ENDBRANCH  23  25
ENDBRANCH  20  21
ENDBRANCH   1  20
TORSDOF 12
ENDMDL
MODEL 4
REMARK VINA RESULT:      -7.5      1.048      1.122
REMARK  Name = 
REMARK  14 active torsions:
REMARK  status: ('A' for Active; 'I' for Inactive)
REMARK    1  A    between atoms: C_1  and  C_2
REMARK    2  A    between atoms: C_2  and  C_3
REMARK    3  A    between atoms: C_2  and  C_4
REMARK    4  A    between atoms: C_4  and  C_5
REMARK    5  A    between atoms: C_4  and  N_20
REMARK    6  A    between atoms: C_5  and  C_6
REMARK    7  A    between atoms: C_6  and  C_7
REMARK    8  A    between atoms: N_9  and  C_10
REMARK    9  A    between atoms: C_14  and  C_15
REMARK   10  A    between atoms: C_15  and  O_17
REMARK   11  A    between atoms: C_18  and  N_19
REMARK   12  A    between atoms: C_21  and  C_23
REMARK   13  A    between atoms: C_23  and  N_24
REMARK   14  A    between atoms: C_23  and  C_25
REMARK                            x       y       z     vdW  Elec       q    Type
REMARK                         _______ _______ _______ _____ _____    ______ ____
ROOT
ATOM      1  C   UNL     1       1.317   6.184  20.607  0.00  0.00    +0.000 C 
ENDROOT
BRANCH   1   2
ATOM      2  C   UNL     1       1.596   4.876  19.832  0.00  0.00    +0.000 C 
BRANCH   2   3
ATOM      3  N   UNL     1       3.035   4.689  19.706  0.00  0.00    +0.000 N 
ATOM      4  C   UNL     1       3.697   4.582  18.486  0.00  0.00    +0.000 C 
ATOM      5  O   UNL     1       3.130   4.589  17.404  0.00  0.00    +0.000 OA
ATOM      6  H   UNL     1       3.592   4.634  20.549  0.00  0.00    +0.000 HD
BRANCH   4   7
ATOM      7  C   UNL     1       5.224   4.374  18.696  0.00  0.00    +0.000 C 
BRANCH   7   8
ATOM      8  C   UNL     1       6.103   4.533  17.426  0.00  0.00    +0.000 C 
ATOM      9  C   UNL     1       5.694   5.718  16.526  0.00  0.00    +0.000 C 
ATOM     10  C   UNL     1       5.981   7.082  17.155  0.00  0.00    +0.000 C 
ATOM     11  C   UNL     1       7.437   7.218  17.597  0.00  0.00    +0.000 C 
ATOM     12  C   UNL     1       7.898   6.043  18.455  0.00  0.00    +0.000 C 
ATOM     13  C   UNL     1       7.602   4.704  17.777  0.00  0.00    +0.000 C 
ENDBRANCH   7   8
BRANCH   7  14
ATOM     14  N   UNL     1       5.397   3.008  19.258  0.00  0.00    +0.000 NA
ATOM     15  H   UNL     1       6.402   2.836  19.341  0.00  0.00    +0.000 HD
ATOM     16  H   UNL     1       5.066   2.314  18.592  0.00  0.00    +0.000 HD
ENDBRANCH   7  14
ENDBRANCH   4   7
ENDBRANCH   2   3
BRANCH   2  18
ATOM     17  C   UNL     1       0.650   2.502  19.428  0.00  0.00    +0.000 C 
ATOM     18  C   UNL     1       0.918   3.618  20.445  0.00  0.00    +0.000 C 
ATOM     19  C   UNL     1       1.716   3.064  21.630  0.00  0.00    +0.000 C 
ENDBRANCH   2  18
ENDBRANCH   1   2
BRANCH   1  20
ATOM     20  C   UNL     1       2.077   7.394  20.059  0.00  0.00    +0.000 C 
BRANCH  20  21
ATOM     21  C   UNL     1       1.407   8.690  20.470  0.00  0.00    +0.000 C 
ATOM     22  O   UNL     1       1.192   8.965  21.645  0.00  0.00    +0.000 OA
ATOM     23  N   UNL     1       1.122   9.515  19.396  0.00  0.00    +0.000 N 
ATOM     24  H   UNL     1       0.937   9.021  18.530  0.00  0.00    +0.000 HD
BRANCH  23  25
ATOM     25  C   UNL     1       0.417  10.731  19.569  0.00  0.00    +0.000 A 
ATOM     26  C   UNL     1      -0.766  10.700  20.308  0.00  0.00    +0.000 A 
ATOM     27  N   UNL     1      -1.512  11.788  20.591  0.00  0.00    +0.000 NA
ATOM     28  C   UNL     1      -1.067  12.967  20.101  0.00  0.00    +0.000 A 
ATOM     29  C   UNL     1       0.074  13.110  19.313  0.00  0.00    +0.000 A 
ATOM     30  C   UNL     1       0.821  11.958  19.007  0.00  0.00    +0.000 A 
BRANCH  30  31
ATOM     31  N   UNL     1       2.051  12.069  18.279  0.00  0.00    +0.000 N 
ATOM     32  H   UNL     1       2.426  13.018  18.460  0.00  0.00    +0.000 HD
ATOM     33  H   UNL     1       2.749  11.462  18.718  0.00  0.00    +0.000 HD
ENDBRANCH  30  31
BRANCH  29  34
ATOM     34  C   UNL     1       0.370  14.472  18.802  0.00  0.00    +0.000 C 
ATOM     35  O   UNL     1       1.511  14.885  18.664  0.00  0.00    +0.000 OA
BRANCH  34  36
ATOM     36  O   UNL     1      -0.717  15.230  18.548  0.00  0.00    +0.000 OA
ATOM     37  H   UNL     1      -0.520  15.946  17.893  0.00  0.00    +0.000 HD
ENDBRANCH  34  36
ENDBRANCH  29  34
ENDBRANCH  23  25
ENDBRANCH  20  21
ENDBRANCH   1  20
TORSDOF 12
ENDMDL
MODEL 5
REMARK VINA RESULT:      -7.4      5.242      8.051
REMARK  Name = 
REMARK  14 active torsions:
REMARK  status: ('A' for Active; 'I' for Inactive)
REMARK    1  A    between atoms: C_1  and  C_2
REMARK    2  A    between atoms: C_2  and  C_3
REMARK    3  A    between atoms: C_2  and  C_4
REMARK    4  A    between atoms: C_4  and  C_5
REMARK    5  A    between atoms: C_4  and  N_20
REMARK    6  A    between atoms: C_5  and  C_6
REMARK    7  A    between atoms: C_6  and  C_7
REMARK    8  A    between atoms: N_9  and  C_10
REMARK    9  A    between atoms: C_14  and  C_15
REMARK   10  A    between atoms: C_15  and  O_17
REMARK   11  A    between atoms: C_18  and  N_19
REMARK   12  A    between atoms: C_21  and  C_23
REMARK   13  A    between atoms: C_23  and  N_24
REMARK   14  A    between atoms: C_23  and  C_25
REMARK                            x       y       z     vdW  Elec       q    Type
REMARK                         _______ _______ _______ _____ _____    ______ ____
ROOT
ATOM      1  C   UNL     1       7.073   7.827  17.607  0.00  0.00    +0.000 C 
ENDROOT
BRANCH   1   2
ATOM      2  C   UNL     1       6.728   6.331  17.422  0.00  0.00    +0.000 C 
BRANCH   2   3
ATOM      3  N   UNL     1       5.443   6.052  18.051  0.00  0.00    +0.000 N 
ATOM      4  C   UNL     1       5.298   5.294  19.210  0.00  0.00    +0.000 C 
ATOM      5  O   UNL     1       6.229   4.751  19.786  0.00  0.00    +0.000 OA
ATOM      6  H   UNL     1       4.606   6.429  17.629  0.00  0.00    +0.000 HD
BRANCH   4   7
ATOM      7  C   UNL     1       3.801   5.171  19.613  0.00  0.00    +0.000 C 
BRANCH   7   8
ATOM      8  C   UNL     1       3.070   3.901  19.098  0.00  0.00    +0.000 C 
ATOM      9  C   UNL     1       3.392   2.625  19.903  0.00  0.00    +0.000 C 
ATOM     10  C   UNL     1       2.816   2.642  21.319  0.00  0.00    +0.000 C 
ATOM     11  C   UNL     1       1.314   2.920  21.327  0.00  0.00    +0.000 C 
ATOM     12  C   UNL     1       0.946   4.152  20.506  0.00  0.00    +0.000 C 
ATOM     13  C   UNL     1       1.532   4.081  19.095  0.00  0.00    +0.000 C 
ENDBRANCH   7   8
BRANCH   7  14
ATOM     14  N   UNL     1       3.119   6.387  19.097  0.00  0.00    +0.000 NA
ATOM     15  H   UNL     1       3.511   7.192  19.593  0.00  0.00    +0.000 HD
ATOM     16  H   UNL     1       2.136   6.372  19.360  0.00  0.00    +0.000 HD
ENDBRANCH   7  14
ENDBRANCH   4   7
ENDBRANCH   2   3
BRANCH   2  18
ATOM     17  C   UNL     1       7.147   4.386  15.769  0.00  0.00    +0.000 C 
ATOM     18  C   UNL     1       6.742   5.855  15.942  0.00  0.00    +0.000 C 
ATOM     19  C   UNL     1       5.400   6.112  15.250  0.00  0.00    +0.000 C 
ENDBRANCH   2  18
ENDBRANCH   1   2
BRANCH   1  20
ATOM     20  C   UNL     1       8.380   8.063  18.367  0.00  0.00    +0.000 C 
BRANCH  20  21
ATOM     21  C   UNL     1       8.665   9.544  18.512  0.00  0.00    +0.000 C 
ATOM     22  O   UNL     1       8.162  10.378  17.767  0.00  0.00    +0.000 OA
ATOM     23  N   UNL     1       9.495   9.833  19.582  0.00  0.00    +0.000 N 
ATOM     24  H   UNL     1      10.154   9.096  19.807  0.00  0.00    +0.000 HD
BRANCH  23  25
ATOM     25  C   UNL     1       9.946  11.153  19.827  0.00  0.00    +0.000 A 
ATOM     26  C   UNL     1      10.973  11.652  19.026  0.00  0.00    +0.000 A 
ATOM     27  N   UNL     1      11.466  12.904  19.119  0.00  0.00    +0.000 NA
ATOM     28  C   UNL     1      10.920  13.699  20.067  0.00  0.00    +0.000 A 
ATOM     29  C   UNL     1       9.922  13.293  20.952  0.00  0.00    +0.000 A 
ATOM     30  C   UNL     1       9.442  11.974  20.857  0.00  0.00    +0.000 A 
BRANCH  30  31
ATOM     31  N   UNL     1       8.354  11.541  21.683  0.00  0.00    +0.000 N 
ATOM     32  H   UNL     1       7.518  12.077  21.387  0.00  0.00    +0.000 HD
ATOM     33  H   UNL     1       8.110  10.581  21.428  0.00  0.00    +0.000 HD
ENDBRANCH  30  31
BRANCH  29  34
ATOM     34  C   UNL     1       9.493  14.278  21.976  0.00  0.00    +0.000 C 
ATOM     35  O   UNL     1       9.501  15.481  21.771  0.00  0.00    +0.000 OA
BRANCH  34  36
ATOM     36  O   UNL     1       9.141  13.742  23.164  0.00  0.00    +0.000 OA
ATOM     37  H   UNL     1       9.294  12.764  23.185  0.00  0.00    +0.000 HD
ENDBRANCH  34  36
ENDBRANCH  29  34
ENDBRANCH  23  25
ENDBRANCH  20  21
ENDBRANCH   1  20
TORSDOF 12
ENDMDL
MODEL 6
REMARK VINA RESULT:      -7.3      1.716      4.243
REMARK  Name = 
REMARK  14 active torsions:
REMARK  status: ('A' for Active; 'I' for Inactive)
REMARK    1  A    between atoms: C_1  and  C_2
REMARK    2  A    between atoms: C_2  and  C_3
REMARK    3  A    between atoms: C_2  and  C_4
REMARK    4  A    between atoms: C_4  and  C_5
REMARK    5  A    between atoms: C_4  and  N_20
REMARK    6  A    between atoms: C_5  and  C_6
REMARK    7  A    between atoms: C_6  and  C_7
REMARK    8  A    between atoms: N_9  and  C_10
REMARK    9  A    between atoms: C_14  and  C_15
REMARK   10  A    between atoms: C_15  and  O_17
REMARK   11  A    between atoms: C_18  and  N_19
REMARK   12  A    between atoms: C_21  and  C_23
REMARK   13  A    between atoms: C_23  and  N_24
REMARK   14  A    between atoms: C_23  and  C_25
REMARK                            x       y       z     vdW  Elec       q    Type
REMARK                         _______ _______ _______ _____ _____    ______ ____
ROOT
ATOM      1  C   UNL     1       4.015   7.110  17.637  0.00  0.00    +0.000 C 
ENDROOT
BRANCH   1   2
ATOM      2  C   UNL     1       4.940   5.901  17.906  0.00  0.00    +0.000 C 
BRANCH   2   3
ATOM      3  N   UNL     1       4.138   4.685  17.961  0.00  0.00    +0.000 N 
ATOM      4  C   UNL     1       4.457   3.584  18.751  0.00  0.00    +0.000 C 
ATOM      5  O   UNL     1       5.463   3.512  19.440  0.00  0.00    +0.000 OA
ATOM      6  H   UNL     1       3.301   4.632  17.396  0.00  0.00    +0.000 HD
BRANCH   4   7
ATOM      7  C   UNL     1       3.411   2.447  18.571  0.00  0.00    +0.000 C 
BRANCH   7   8
ATOM      8  C   UNL     1       2.565   2.110  19.829  0.00  0.00    +0.000 C 
ATOM      9  C   UNL     1       2.865   3.012  21.045  0.00  0.00    +0.000 C 
ATOM     10  C   UNL     1       2.400   4.456  20.856  0.00  0.00    +0.000 C 
ATOM     11  C   UNL     1       0.922   4.540  20.474  0.00  0.00    +0.000 C 
ATOM     12  C   UNL     1       0.572   3.629  19.301  0.00  0.00    +0.000 C 
ATOM     13  C   UNL     1       1.045   2.194  19.543  0.00  0.00    +0.000 C 
ENDBRANCH   7   8
BRANCH   7  14
ATOM     14  N   UNL     1       4.161   1.240  18.133  0.00  0.00    +0.000 NA
ATOM     15  H   UNL     1       4.858   1.545  17.448  0.00  0.00    +0.000 HD
ATOM     16  H   UNL     1       3.545   0.615  17.619  0.00  0.00    +0.000 HD
ENDBRANCH   7  14
ENDBRANCH   4   7
ENDBRANCH   2   3
BRANCH   2  18
ATOM     17  C   UNL     1       5.662   5.807  15.424  0.00  0.00    +0.000 C 
ATOM     18  C   UNL     1       6.108   5.757  16.890  0.00  0.00    +0.000 C 
ATOM     19  C   UNL     1       7.206   6.796  17.138  0.00  0.00    +0.000 C 
ENDBRANCH   2  18
ENDBRANCH   1   2
BRANCH   1  20
ATOM     20  C   UNL     1       2.559   6.870  18.044  0.00  0.00    +0.000 C 
BRANCH  20  21
ATOM     21  C   UNL     1       2.027   8.024  18.869  0.00  0.00    +0.000 C 
ATOM     22  O   UNL     1       2.025   7.998  20.095  0.00  0.00    +0.000 OA
ATOM     23  N   UNL     1       1.602   9.091  18.097  0.00  0.00    +0.000 N 
ATOM     24  H   UNL     1       1.252   8.828  17.182  0.00  0.00    +0.000 HD
BRANCH  23  25
ATOM     25  C   UNL     1       0.993  10.226  18.683  0.00  0.00    +0.000 A 
ATOM     26  C   UNL     1      -0.137  10.025  19.477  0.00  0.00    +0.000 A 
ATOM     27  N   UNL     1      -0.788  11.008  20.132  0.00  0.00    +0.000 NA
ATOM     28  C   UNL     1      -0.301  12.260  19.979  0.00  0.00    +0.000 A 
ATOM     29  C   UNL     1       0.791  12.585  19.175  0.00  0.00    +0.000 A 
ATOM     30  C   UNL     1       1.438  11.548  18.478  0.00  0.00    +0.000 A 
BRANCH  30  31
ATOM     31  N   UNL     1       2.620  11.821  17.714  0.00  0.00    +0.000 N 
ATOM     32  H   UNL     1       2.520  12.779  17.333  0.00  0.00    +0.000 HD
ATOM     33  H   UNL     1       3.412  11.913  18.355  0.00  0.00    +0.000 HD
ENDBRANCH  30  31
BRANCH  29  34
ATOM     34  C   UNL     1       1.140  14.023  19.068  0.00  0.00    +0.000 C 
ATOM     35  O   UNL     1       2.288  14.427  19.165  0.00  0.00    +0.000 OA
BRANCH  34  36
ATOM     36  O   UNL     1       0.087  14.851  18.902  0.00  0.00    +0.000 OA
ATOM     37  H   UNL     1       0.119  15.615  19.531  0.00  0.00    +0.000 HD
ENDBRANCH  34  36
ENDBRANCH  29  34
ENDBRANCH  23  25
ENDBRANCH  20  21
ENDBRANCH   1  20
TORSDOF 12
ENDMDL
MODEL 7
REMARK VINA RESULT:      -7.3      4.997      7.793
REMARK  Name = 
REMARK  14 active torsions:
REMARK  status: ('A' for Active; 'I' for Inactive)
REMARK    1  A    between atoms: C_1  and  C_2
REMARK    2  A    between atoms: C_2  and  C_3
REMARK    3  A    between atoms: C_2  and  C_4
REMARK    4  A    between atoms: C_4  and  C_5
REMARK    5  A    between atoms: C_4  and  N_20
REMARK    6  A    between atoms: C_5  and  C_6
REMARK    7  A    between atoms: C_6  and  C_7
REMARK    8  A    between atoms: N_9  and  C_10
REMARK    9  A    between atoms: C_14  and  C_15
REMARK   10  A    between atoms: C_15  and  O_17
REMARK   11  A    between atoms: C_18  and  N_19
REMARK   12  A    between atoms: C_21  and  C_23
REMARK   13  A    between atoms: C_23  and  N_24
REMARK   14  A    between atoms: C_23  and  C_25
REMARK                            x       y       z     vdW  Elec       q    Type
REMARK                         _______ _______ _______ _____ _____    ______ ____
ROOT
ATOM      1  C   UNL     1       6.764   7.035  17.477  0.00  0.00    +0.000 C 
ENDROOT
BRANCH   1   2
ATOM      2  C   UNL     1       6.512   5.509  17.441  0.00  0.00    +0.000 C 
BRANCH   2   3
ATOM      3  N   UNL     1       5.372   5.190  18.289  0.00  0.00    +0.000 N 
ATOM      4  C   UNL     1       4.202   5.944  18.328  0.00  0.00    +0.000 C 
ATOM      5  O   UNL     1       4.036   6.972  17.688  0.00  0.00    +0.000 OA
ATOM      6  H   UNL     1       5.425   4.375  18.885  0.00  0.00    +0.000 HD
BRANCH   4   7
ATOM      7  C   UNL     1       3.187   5.347  19.344  0.00  0.00    +0.000 C 
BRANCH   7   8
ATOM      8  C   UNL     1       1.889   4.759  18.727  0.00  0.00    +0.000 C 
ATOM      9  C   UNL     1       2.139   3.761  17.577  0.00  0.00    +0.000 C 
ATOM     10  C   UNL     1       2.767   2.447  18.043  0.00  0.00    +0.000 C 
ATOM     11  C   UNL     1       1.962   1.789  19.163  0.00  0.00    +0.000 C 
ATOM     12  C   UNL     1       1.655   2.755  20.304  0.00  0.00    +0.000 C 
ATOM     13  C   UNL     1       1.015   4.046  19.789  0.00  0.00    +0.000 C 
ENDBRANCH   7   8
BRANCH   7  14
ATOM     14  N   UNL     1       2.841   6.438  20.294  0.00  0.00    +0.000 NA
ATOM     15  H   UNL     1       1.875   6.715  20.104  0.00  0.00    +0.000 HD
ATOM     16  H   UNL     1       3.397   7.266  20.089  0.00  0.00    +0.000 HD
ENDBRANCH   7  14
ENDBRANCH   4   7
ENDBRANCH   2   3
BRANCH   2  18
ATOM     17  C   UNL     1       5.649   3.556  15.981  0.00  0.00    +0.000 C 
ATOM     18  C   UNL     1       6.327   4.931  16.009  0.00  0.00    +0.000 C 
ATOM     19  C   UNL     1       5.572   5.904  15.098  0.00  0.00    +0.000 C 
ENDBRANCH   2  18
ENDBRANCH   1   2
BRANCH   1  20
ATOM     20  C   UNL     1       8.038   7.427  18.231  0.00  0.00    +0.000 C 
BRANCH  20  21
ATOM     21  C   UNL     1       8.224   8.930  18.239  0.00  0.00    +0.000 C 
ATOM     22  O   UNL     1       7.518   9.676  17.568  0.00  0.00    +0.000 OA
ATOM     23  N   UNL     1       9.223   9.347  19.101  0.00  0.00    +0.000 N 
ATOM     24  H   UNL     1       9.971   8.673  19.227  0.00  0.00    +0.000 HD
BRANCH  23  25
ATOM     25  C   UNL     1       9.605  10.708  19.182  0.00  0.00    +0.000 A 
ATOM     26  C   UNL     1      10.083  11.322  18.023  0.00  0.00    +0.000 A 
ATOM     27  N   UNL     1      10.437  12.622  17.946  0.00  0.00    +0.000 NA
ATOM     28  C   UNL     1      10.324  13.346  19.082  0.00  0.00    +0.000 A 
ATOM     29  C   UNL     1       9.903  12.828  20.305  0.00  0.00    +0.000 A 
ATOM     30  C   UNL     1       9.567  11.463  20.371  0.00  0.00    +0.000 A 
BRANCH  30  31
ATOM     31  N   UNL     1       9.041  10.908  21.584  0.00  0.00    +0.000 N 
ATOM     32  H   UNL     1       9.740  11.086  22.327  0.00  0.00    +0.000 HD
ATOM     33  H   UNL     1       8.242  11.472  21.884  0.00  0.00    +0.000 HD
ENDBRANCH  30  31
BRANCH  29  34
ATOM     34  C   UNL     1       9.912  13.754  21.465  0.00  0.00    +0.000 C 
ATOM     35  O   UNL     1       9.207  13.580  22.447  0.00  0.00    +0.000 OA
BRANCH  34  36
ATOM     36  O   UNL     1      10.721  14.826  21.328  0.00  0.00    +0.000 OA
ATOM     37  H   UNL     1      10.579  15.487  22.051  0.00  0.00    +0.000 HD
ENDBRANCH  34  36
ENDBRANCH  29  34
ENDBRANCH  23  25
ENDBRANCH  20  21
ENDBRANCH   1  20
TORSDOF 12
ENDMDL
MODEL 8
REMARK VINA RESULT:      -7.2      1.798      4.467
REMARK  Name = 
REMARK  14 active torsions:
REMARK  status: ('A' for Active; 'I' for Inactive)
REMARK    1  A    between atoms: C_1  and  C_2
REMARK    2  A    between atoms: C_2  and  C_3
REMARK    3  A    between atoms: C_2  and  C_4
REMARK    4  A    between atoms: C_4  and  C_5
REMARK    5  A    between atoms: C_4  and  N_20
REMARK    6  A    between atoms: C_5  and  C_6
REMARK    7  A    between atoms: C_6  and  C_7
REMARK    8  A    between atoms: N_9  and  C_10
REMARK    9  A    between atoms: C_14  and  C_15
REMARK   10  A    between atoms: C_15  and  O_17
REMARK   11  A    between atoms: C_18  and  N_19
REMARK   12  A    between atoms: C_21  and  C_23
REMARK   13  A    between atoms: C_23  and  N_24
REMARK   14  A    between atoms: C_23  and  C_25
REMARK                            x       y       z     vdW  Elec       q    Type
REMARK                         _______ _______ _______ _____ _____    ______ ____
ROOT
ATOM      1  C   UNL     1       3.940   7.593  17.358  0.00  0.00    +0.000 C 
ENDROOT
BRANCH   1   2
ATOM      2  C   UNL     1       5.037   6.519  17.544  0.00  0.00    +0.000 C 
BRANCH   2   3
ATOM      3  N   UNL     1       4.454   5.339  18.169  0.00  0.00    +0.000 N 
ATOM      4  C   UNL     1       5.043   4.654  19.229  0.00  0.00    +0.000 C 
ATOM      5  O   UNL     1       6.128   4.950  19.708  0.00  0.00    +0.000 OA
ATOM      6  H   UNL     1       3.570   4.993  17.820  0.00  0.00    +0.000 HD
BRANCH   4   7
ATOM      7  C   UNL     1       4.178   3.434  19.655  0.00  0.00    +0.000 C 
BRANCH   7   8
ATOM      8  C   UNL     1       3.301   3.643  20.920  0.00  0.00    +0.000 C 
ATOM      9  C   UNL     1       2.330   4.837  20.818  0.00  0.00    +0.000 C 
ATOM     10  C   UNL     1       1.201   4.614  19.812  0.00  0.00    +0.000 C 
ATOM     11  C   UNL     1       0.436   3.318  20.082  0.00  0.00    +0.000 C 
ATOM     12  C   UNL     1       1.364   2.116  20.233  0.00  0.00    +0.000 C 
ATOM     13  C   UNL     1       2.466   2.384  21.260  0.00  0.00    +0.000 C 
ENDBRANCH   7   8
BRANCH   7  14
ATOM     14  N   UNL     1       5.115   2.301  19.876  0.00  0.00    +0.000 NA
ATOM     15  H   UNL     1       4.674   1.460  19.495  0.00  0.00    +0.000 HD
ATOM     16  H   UNL     1       5.212   2.118  20.872  0.00  0.00    +0.000 HD
ENDBRANCH   7  14
ENDBRANCH   4   7
ENDBRANCH   2   3
BRANCH   2  18
ATOM     17  C   UNL     1       7.280   5.853  16.441  0.00  0.00    +0.000 C 
ATOM     18  C   UNL     1       5.789   6.146  16.235  0.00  0.00    +0.000 C 
ATOM     19  C   UNL     1       5.121   4.972  15.512  0.00  0.00    +0.000 C 
ENDBRANCH   2  18
ENDBRANCH   1   2
BRANCH   1  20
ATOM     20  C   UNL     1       2.560   7.149  17.849  0.00  0.00    +0.000 C 
BRANCH  20  21
ATOM     21  C   UNL     1       1.885   8.250  18.642  0.00  0.00    +0.000 C 
ATOM     22  O   UNL     1       1.786   8.205  19.863  0.00  0.00    +0.000 OA
ATOM     23  N   UNL     1       1.452   9.300  17.849  0.00  0.00    +0.000 N 
ATOM     24  H   UNL     1       1.196   9.029  16.906  0.00  0.00    +0.000 HD
BRANCH  23  25
ATOM     25  C   UNL     1       0.721  10.381  18.396  0.00  0.00    +0.000 A 
ATOM     26  C   UNL     1       1.415  11.320  19.160  0.00  0.00    +0.000 A 
ATOM     27  N   UNL     1       0.854  12.421  19.701  0.00  0.00    +0.000 NA
ATOM     28  C   UNL     1      -0.470  12.592  19.484  0.00  0.00    +0.000 A 
ATOM     29  C   UNL     1      -1.271  11.698  18.777  0.00  0.00    +0.000 A 
ATOM     30  C   UNL     1      -0.672  10.541  18.246  0.00  0.00    +0.000 A 
BRANCH  30  31
ATOM     31  N   UNL     1      -1.436   9.641  17.433  0.00  0.00    +0.000 N 
ATOM     32  H   UNL     1      -2.103  10.217  16.888  0.00  0.00    +0.000 HD
ATOM     33  H   UNL     1      -0.826   9.253  16.709  0.00  0.00    +0.000 HD
ENDBRANCH  30  31
BRANCH  29  34
ATOM     34  C   UNL     1      -2.720  12.011  18.701  0.00  0.00    +0.000 C 
ATOM     35  O   UNL     1      -3.441  11.565  17.822  0.00  0.00    +0.000 OA
BRANCH  34  36
ATOM     36  O   UNL     1      -3.166  12.863  19.648  0.00  0.00    +0.000 OA
ATOM     37  H   UNL     1      -3.382  13.752  19.270  0.00  0.00    +0.000 HD
ENDBRANCH  34  36
ENDBRANCH  29  34
ENDBRANCH  23  25
ENDBRANCH  20  21
ENDBRANCH   1  20
TORSDOF 12
ENDMDL
MODEL 9
REMARK VINA RESULT:      -7.2      1.887      4.555
REMARK  Name = 
REMARK  14 active torsions:
REMARK  status: ('A' for Active; 'I' for Inactive)
REMARK    1  A    between atoms: C_1  and  C_2
REMARK    2  A    between atoms: C_2  and  C_3
REMARK    3  A    between atoms: C_2  and  C_4
REMARK    4  A    between atoms: C_4  and  C_5
REMARK    5  A    between atoms: C_4  and  N_20
REMARK    6  A    between atoms: C_5  and  C_6
REMARK    7  A    between atoms: C_6  and  C_7
REMARK    8  A    between atoms: N_9  and  C_10
REMARK    9  A    between atoms: C_14  and  C_15
REMARK   10  A    between atoms: C_15  and  O_17
REMARK   11  A    between atoms: C_18  and  N_19
REMARK   12  A    between atoms: C_21  and  C_23
REMARK   13  A    between atoms: C_23  and  N_24
REMARK   14  A    between atoms: C_23  and  C_25
REMARK                            x       y       z     vdW  Elec       q    Type
REMARK                         _______ _______ _______ _____ _____    ______ ____
ROOT
ATOM      1  C   UNL     1       4.549   7.410  17.470  0.00  0.00    +0.000 C 
ENDROOT
BRANCH   1   2
ATOM      2  C   UNL     1       5.355   6.158  17.888  0.00  0.00    +0.000 C 
BRANCH   2   3
ATOM      3  N   UNL     1       4.593   4.962  17.552  0.00  0.00    +0.000 N 
ATOM      4  C   UNL     1       4.288   3.958  18.467  0.00  0.00    +0.000 C 
ATOM      5  O   UNL     1       4.667   3.960  19.628  0.00  0.00    +0.000 OA
ATOM      6  H   UNL     1       4.263   4.849  16.603  0.00  0.00    +0.000 HD
BRANCH   4   7
ATOM      7  C   UNL     1       3.478   2.814  17.791  0.00  0.00    +0.000 C 
BRANCH   7   8
ATOM      8  C   UNL     1       1.933   2.945  17.878  0.00  0.00    +0.000 C 
ATOM      9  C   UNL     1       1.280   1.984  18.892  0.00  0.00    +0.000 C 
ATOM     10  C   UNL     1       1.604   2.327  20.346  0.00  0.00    +0.000 C 
ATOM     11  C   UNL     1       1.266   3.778  20.685  0.00  0.00    +0.000 C 
ATOM     12  C   UNL     1       1.858   4.763  19.680  0.00  0.00    +0.000 C 
ATOM     13  C   UNL     1       1.495   4.385  18.243  0.00  0.00    +0.000 C 
ENDBRANCH   7   8
BRANCH   7  14
ATOM     14  N   UNL     1       3.911   1.546  18.435  0.00  0.00    +0.000 NA
ATOM     15  H   UNL     1       3.112   1.179  18.958  0.00  0.00    +0.000 HD
ATOM     16  H   UNL     1       4.620   1.738  19.140  0.00  0.00    +0.000 HD
ENDBRANCH   7  14
ENDBRANCH   4   7
ENDBRANCH   2   3
BRANCH   2  18
ATOM     17  C   UNL     1       7.595   7.386  17.481  0.00  0.00    +0.000 C 
ATOM     18  C   UNL     1       6.788   6.096  17.288  0.00  0.00    +0.000 C 
ATOM     19  C   UNL     1       7.578   4.900  17.829  0.00  0.00    +0.000 C 
ENDBRANCH   2  18
ENDBRANCH   1   2
BRANCH   1  20
ATOM     20  C   UNL     1       3.034   7.236  17.604  0.00  0.00    +0.000 C 
BRANCH  20  21
ATOM     21  C   UNL     1       2.369   8.538  17.998  0.00  0.00    +0.000 C 
ATOM     22  O   UNL     1       2.566   9.581  17.383  0.00  0.00    +0.000 OA
ATOM     23  N   UNL     1       1.506   8.402  19.072  0.00  0.00    +0.000 N 
ATOM     24  H   UNL     1       1.764   7.667  19.722  0.00  0.00    +0.000 HD
BRANCH  23  25
ATOM     25  C   UNL     1       0.858   9.524  19.642  0.00  0.00    +0.000 A 
ATOM     26  C   UNL     1       1.218   9.899  20.937  0.00  0.00    +0.000 A 
ATOM     27  N   UNL     1       0.717  10.972  21.582  0.00  0.00    +0.000 NA
ATOM     28  C   UNL     1      -0.202  11.703  20.912  0.00  0.00    +0.000 A 
ATOM     29  C   UNL     1      -0.671  11.397  19.635  0.00  0.00    +0.000 A 
ATOM     30  C   UNL     1      -0.155  10.257  18.992  0.00  0.00    +0.000 A 
BRANCH  30  31
ATOM     31  N   UNL     1      -0.538   9.956  17.643  0.00  0.00    +0.000 N 
ATOM     32  H   UNL     1      -1.214   9.172  17.688  0.00  0.00    +0.000 HD
ATOM     33  H   UNL     1      -1.107  10.726  17.283  0.00  0.00    +0.000 HD
ENDBRANCH  30  31
BRANCH  29  34
ATOM     34  C   UNL     1      -1.736  12.272  19.084  0.00  0.00    +0.000 C 
ATOM     35  O   UNL     1      -2.823  12.399  19.625  0.00  0.00    +0.000 OA
BRANCH  34  36
ATOM     36  O   UNL     1      -1.426  12.875  17.917  0.00  0.00    +0.000 OA
ATOM     37  H   UNL     1      -2.063  12.633  17.199  0.00  0.00    +0.000 HD
ENDBRANCH  34  36
ENDBRANCH  29  34
ENDBRANCH  23  25
ENDBRANCH  20  21
ENDBRANCH   1  20
TORSDOF 12
ENDMDL
