MODEL 1
REMARK VINA RESULT:      -6.8      0.000      0.000
REMARK  Name = 
REMARK  3 active torsions:
REMARK  status: ('A' for Active; 'I' for Inactive)
REMARK    1  A    between atoms: C_1  and  O_2
REMARK    2  A    between atoms: O_2  and  C_3
REMARK    3  A    between atoms: C_10  and  C_11
REMARK                            x       y       z     vdW  Elec       q    Type
REMARK                         _______ _______ _______ _____ _____    ______ ____
ROOT
ATOM      1  C   UNL     1       7.215   7.286  17.649  0.00  0.00    +0.000 A 
ATOM      2  C   UNL     1       7.918   6.560  18.637  0.00  0.00    +0.000 A 
ATOM      3  C   UNL     1       7.403   5.354  19.136  0.00  0.00    +0.000 A 
ATOM      4  C   UNL     1       6.184   4.904  18.640  0.00  0.00    +0.000 A 
ATOM      5  C   UNL     1       5.498   5.591  17.687  0.00  0.00    +0.000 A 
ATOM      6  C   UNL     1       5.980   6.785  17.162  0.00  0.00    +0.000 A 
ATOM      7  C   UNL     1       4.274   4.832  17.332  0.00  0.00    +0.000 C 
ATOM      8  C   UNL     1       4.297   3.722  18.422  0.00  0.00    +0.000 C 
ATOM      9  O   UNL     1       5.546   3.796  19.018  0.00  0.00    +0.000 OA
ENDROOT
BRANCH   8  10
ATOM     10  C   UNL     1       3.278   4.000  19.495  0.00  0.00    +0.000 C 
ATOM     11  N   UNL     1       2.516   5.024  19.491  0.00  0.00    +0.000 NA
ATOM     12  C   UNL     1       1.617   4.986  20.623  0.00  0.00    +0.000 C 
ATOM     13  C   UNL     1       1.963   3.675  21.357  0.00  0.00    +0.000 C 
ATOM     14  N   UNL     1       3.043   3.145  20.581  0.00  0.00    +0.000 N 
ATOM     15  H   UNL     1       3.555   2.274  20.788  0.00  0.00    +0.000 HD
ENDBRANCH   8  10
BRANCH   1  17
ATOM     16  C   UNL     1       8.347   9.405  18.006  0.00  0.00    +0.000 C 
ATOM     17  O   UNL     1       7.746   8.452  17.210  0.00  0.00    +0.000 OA
ENDBRANCH   1  17
TORSDOF 2
ENDMDL
MODEL 2
REMARK VINA RESULT:      -6.8      1.685      2.295
REMARK  Name = 
REMARK  3 active torsions:
REMARK  status: ('A' for Active; 'I' for Inactive)
REMARK    1  A    between atoms: C_1  and  O_2
REMARK    2  A    between atoms: O_2  and  C_3
REMARK    3  A    between atoms: C_10  and  C_11
REMARK                            x       y       z     vdW  Elec       q    Type
REMARK                         _______ _______ _______ _____ _____    ______ ____
ROOT
ATOM      1  C   UNL     1       6.282   6.046  16.820  0.00  0.00    +0.000 A 
ATOM      2  C   UNL     1       6.273   4.718  16.337  0.00  0.00    +0.000 A 
ATOM      3  C   UNL     1       5.116   3.932  16.438  0.00  0.00    +0.000 A 
ATOM      4  C   UNL     1       3.990   4.492  17.031  0.00  0.00    +0.000 A 
ATOM      5  C   UNL     1       3.983   5.770  17.497  0.00  0.00    +0.000 A 
ATOM      6  C   UNL     1       5.108   6.583  17.408  0.00  0.00    +0.000 A 
ATOM      7  C   UNL     1       2.631   6.086  18.019  0.00  0.00    +0.000 C 
ATOM      8  C   UNL     1       1.964   4.682  17.963  0.00  0.00    +0.000 C 
ATOM      9  O   UNL     1       2.820   3.880  17.224  0.00  0.00    +0.000 OA
ENDROOT
BRANCH   8  10
ATOM     10  C   UNL     1       1.869   4.076  19.338  0.00  0.00    +0.000 C 
ATOM     11  N   UNL     1       1.266   2.977  19.581  0.00  0.00    +0.000 NA
ATOM     12  C   UNL     1       1.389   2.636  20.981  0.00  0.00    +0.000 C 
ATOM     13  C   UNL     1       2.237   3.770  21.590  0.00  0.00    +0.000 C 
ATOM     14  N   UNL     1       2.461   4.641  20.477  0.00  0.00    +0.000 N 
ATOM     15  H   UNL     1       2.978   5.533  20.511  0.00  0.00    +0.000 HD
ENDBRANCH   8  10
BRANCH   1  17
ATOM     16  C   UNL     1       7.785   7.821  17.522  0.00  0.00    +0.000 C 
ATOM     17  O   UNL     1       7.429   6.761  16.714  0.00  0.00    +0.000 OA
ENDBRANCH   1  17
TORSDOF 2
ENDMDL
MODEL 3
REMARK VINA RESULT:      -6.5      3.881      5.687
REMARK  Name = 
REMARK  3 active torsions:
REMARK  status: ('A' for Active; 'I' for Inactive)
REMARK    1  A    between atoms: C_1  and  O_2
REMARK    2  A    between atoms: O_2  and  C_3
REMARK    3  A    between atoms: C_10  and  C_11
REMARK                            x       y       z     vdW  Elec       q    Type
REMARK                         _______ _______ _______ _____ _____    ______ ____
ROOT
ATOM      1  C   UNL     1       2.997   6.644  17.873  0.00  0.00    +0.000 A 
ATOM      2  C   UNL     1       2.631   5.278  17.855  0.00  0.00    +0.000 A 
ATOM      3  C   UNL     1       3.555   4.299  17.462  0.00  0.00    +0.000 A 
ATOM      4  C   UNL     1       4.829   4.709  17.085  0.00  0.00    +0.000 A 
ATOM      5  C   UNL     1       5.196   6.020  17.101  0.00  0.00    +0.000 A 
ATOM      6  C   UNL     1       4.311   7.018  17.492  0.00  0.00    +0.000 A 
ATOM      7  C   UNL     1       6.620   6.126  16.700  0.00  0.00    +0.000 C 
ATOM      8  C   UNL     1       6.902   4.665  16.245  0.00  0.00    +0.000 C 
ATOM      9  O   UNL     1       5.816   3.915  16.668  0.00  0.00    +0.000 OA
ENDROOT
BRANCH   8  10
ATOM     10  C   UNL     1       6.947   4.570  14.743  0.00  0.00    +0.000 C 
ATOM     11  N   UNL     1       7.641   5.351  14.010  0.00  0.00    +0.000 NA
ATOM     12  C   UNL     1       7.515   4.979  12.619  0.00  0.00    +0.000 C 
ATOM     13  C   UNL     1       6.587   3.747  12.622  0.00  0.00    +0.000 C 
ATOM     14  N   UNL     1       6.262   3.592  14.008  0.00  0.00    +0.000 N 
ATOM     15  H   UNL     1       5.631   2.874  14.395  0.00  0.00    +0.000 HD
ENDBRANCH   8  10
BRANCH   1  17
ATOM     16  C   UNL     1       2.071   8.889  17.897  0.00  0.00    +0.000 C 
ATOM     17  O   UNL     1       2.065   7.554  18.245  0.00  0.00    +0.000 OA
ENDBRANCH   1  17
TORSDOF 2
ENDMDL
MODEL 4
REMARK VINA RESULT:      -6.4      2.530      5.819
REMARK  Name = 
REMARK  3 active torsions:
REMARK  status: ('A' for Active; 'I' for Inactive)
REMARK    1  A    between atoms: C_1  and  O_2
REMARK    2  A    between atoms: O_2  and  C_3
REMARK    3  A    between atoms: C_10  and  C_11
REMARK                            x       y       z     vdW  Elec       q    Type
REMARK                         _______ _______ _______ _____ _____    ______ ____
ROOT
ATOM      1  C   UNL     1       2.422   3.280  19.305  0.00  0.00    +0.000 A 
ATOM      2  C   UNL     1       1.786   4.537  19.180  0.00  0.00    +0.000 A 
ATOM      3  C   UNL     1       2.322   5.525  18.341  0.00  0.00    +0.000 A 
ATOM      4  C   UNL     1       3.493   5.236  17.649  0.00  0.00    +0.000 A 
ATOM      5  C   UNL     1       4.114   4.030  17.758  0.00  0.00    +0.000 A 
ATOM      6  C   UNL     1       3.609   3.023  18.573  0.00  0.00    +0.000 A 
ATOM      7  C   UNL     1       5.297   4.014  16.863  0.00  0.00    +0.000 C 
ATOM      8  C   UNL     1       5.343   5.504  16.418  0.00  0.00    +0.000 C 
ATOM      9  O   UNL     1       4.144   6.064  16.830  0.00  0.00    +0.000 OA
ENDROOT
BRANCH   8  10
ATOM     10  C   UNL     1       6.444   6.245  17.129  0.00  0.00    +0.000 C 
ATOM     11  N   UNL     1       6.790   7.438  16.837  0.00  0.00    +0.000 NA
ATOM     12  C   UNL     1       7.839   7.888  17.725  0.00  0.00    +0.000 C 
ATOM     13  C   UNL     1       8.080   6.705  18.683  0.00  0.00    +0.000 C 
ATOM     14  N   UNL     1       7.171   5.709  18.202  0.00  0.00    +0.000 N 
ATOM     15  H   UNL     1       7.069   4.758  18.588  0.00  0.00    +0.000 HD
ENDBRANCH   8  10
BRANCH   1  17
ATOM     16  C   UNL     1       1.586   2.571  21.473  0.00  0.00    +0.000 C 
ATOM     17  O   UNL     1       1.874   2.364  20.140  0.00  0.00    +0.000 OA
ENDBRANCH   1  17
TORSDOF 2
ENDMDL
MODEL 5
REMARK VINA RESULT:      -6.4      2.504      3.214
REMARK  Name = 
REMARK  3 active torsions:
REMARK  status: ('A' for Active; 'I' for Inactive)
REMARK    1  A    between atoms: C_1  and  O_2
REMARK    2  A    between atoms: O_2  and  C_3
REMARK    3  A    between atoms: C_10  and  C_11
REMARK                            x       y       z     vdW  Elec       q    Type
REMARK                         _______ _______ _______ _____ _____    ______ ____
ROOT
ATOM      1  C   UNL     1       6.656   4.953  16.530  0.00  0.00    +0.000 A 
ATOM      2  C   UNL     1       7.268   5.205  17.779  0.00  0.00    +0.000 A 
ATOM      3  C   UNL     1       6.488   5.359  18.935  0.00  0.00    +0.000 A 
ATOM      4  C   UNL     1       5.106   5.265  18.814  0.00  0.00    +0.000 A 
ATOM      5  C   UNL     1       4.504   5.020  17.618  0.00  0.00    +0.000 A 
ATOM      6  C   UNL     1       5.243   4.854  16.452  0.00  0.00    +0.000 A 
ATOM      7  C   UNL     1       3.039   4.926  17.826  0.00  0.00    +0.000 C 
ATOM      8  C   UNL     1       2.926   5.388  19.307  0.00  0.00    +0.000 C 
ATOM      9  O   UNL     1       4.221   5.405  19.802  0.00  0.00    +0.000 OA
ENDROOT
BRANCH   8  10
ATOM     10  C   UNL     1       2.401   6.796  19.394  0.00  0.00    +0.000 C 
ATOM     11  N   UNL     1       2.340   7.586  18.393  0.00  0.00    +0.000 NA
ATOM     12  C   UNL     1       1.748   8.846  18.781  0.00  0.00    +0.000 C 
ATOM     13  C   UNL     1       1.415   8.680  20.278  0.00  0.00    +0.000 C 
ATOM     14  N   UNL     1       1.895   7.364  20.572  0.00  0.00    +0.000 N 
ATOM     15  H   UNL     1       1.866   6.911  21.498  0.00  0.00    +0.000 HD
ENDBRANCH   8  10
BRANCH   1  17
ATOM     16  C   UNL     1       7.010   4.786  14.133  0.00  0.00    +0.000 C 
ATOM     17  O   UNL     1       7.451   4.828  15.439  0.00  0.00    +0.000 OA
ENDBRANCH   1  17
TORSDOF 2
ENDMDL
MODEL 6
REMARK VINA RESULT:      -6.3      1.146      1.524
REMARK  Name = 
REMARK  3 active torsions:
REMARK  status: ('A' for Active; 'I' for Inactive)
REMARK    1  A    between atoms: C_1  and  O_2
REMARK    2  A    between atoms: O_2  and  C_3
REMARK    3  A    between atoms: C_10  and  C_11
REMARK                            x       y       z     vdW  Elec       q    Type
REMARK                         _______ _______ _______ _____ _____    ______ ____
ROOT
ATOM      1  C   UNL     1       6.570   6.895  17.218  0.00  0.00    +0.000 A 
ATOM      2  C   UNL     1       7.314   5.696  17.289  0.00  0.00    +0.000 A 
ATOM      3  C   UNL     1       6.664   4.463  17.448  0.00  0.00    +0.000 A 
ATOM      4  C   UNL     1       5.277   4.458  17.543  0.00  0.00    +0.000 A 
ATOM      5  C   UNL     1       4.547   5.604  17.474  0.00  0.00    +0.000 A 
ATOM      6  C   UNL     1       5.155   6.844  17.308  0.00  0.00    +0.000 A 
ATOM      7  C   UNL     1       3.106   5.264  17.552  0.00  0.00    +0.000 C 
ATOM      8  C   UNL     1       3.185   3.751  17.905  0.00  0.00    +0.000 C 
ATOM      9  O   UNL     1       4.508   3.382  17.717  0.00  0.00    +0.000 OA
ENDROOT
BRANCH   8  10
ATOM     10  C   UNL     1       2.864   3.519  19.358  0.00  0.00    +0.000 C 
ATOM     11  N   UNL     1       3.257   2.494  20.009  0.00  0.00    +0.000 NA
ATOM     12  C   UNL     1       2.832   2.581  21.388  0.00  0.00    +0.000 C 
ATOM     13  C   UNL     1       2.084   3.926  21.485  0.00  0.00    +0.000 C 
ATOM     14  N   UNL     1       2.135   4.423  20.144  0.00  0.00    +0.000 N 
ATOM     15  H   UNL     1       1.709   5.303  19.817  0.00  0.00    +0.000 HD
ENDBRANCH   8  10
BRANCH   1  17
ATOM     16  C   UNL     1       8.146   8.575  17.988  0.00  0.00    +0.000 C 
ATOM     17  O   UNL     1       7.243   8.063  17.079  0.00  0.00    +0.000 OA
ENDBRANCH   1  17
TORSDOF 2
ENDMDL
MODEL 7
REMARK VINA RESULT:      -6.3      1.882      2.551
REMARK  Name = 
REMARK  3 active torsions:
REMARK  status: ('A' for Active; 'I' for Inactive)
REMARK    1  A    between atoms: C_1  and  O_2
REMARK    2  A    between atoms: O_2  and  C_3
REMARK    3  A    between atoms: C_10  and  C_11
REMARK                            x       y       z     vdW  Elec       q    Type
REMARK                         _______ _______ _______ _____ _____    ______ ____
ROOT
ATOM      1  C   UNL     1       6.373   5.210  15.661  0.00  0.00    +0.000 A 
ATOM      2  C   UNL     1       7.082   5.737  16.765  0.00  0.00    +0.000 A 
ATOM      3  C   UNL     1       6.778   5.323  18.069  0.00  0.00    +0.000 A 
ATOM      4  C   UNL     1       5.759   4.392  18.244  0.00  0.00    +0.000 A 
ATOM      5  C   UNL     1       5.071   3.873  17.191  0.00  0.00    +0.000 A 
ATOM      6  C   UNL     1       5.348   4.253  15.883  0.00  0.00    +0.000 A 
ATOM      7  C   UNL     1       4.096   2.877  17.696  0.00  0.00    +0.000 C 
ATOM      8  C   UNL     1       4.216   3.107  19.230  0.00  0.00    +0.000 C 
ATOM      9  O   UNL     1       5.332   3.909  19.411  0.00  0.00    +0.000 OA
ENDROOT
BRANCH   8  10
ATOM     10  C   UNL     1       3.030   3.874  19.754  0.00  0.00    +0.000 C 
ATOM     11  N   UNL     1       1.857   3.379  19.843  0.00  0.00    +0.000 NA
ATOM     12  C   UNL     1       0.949   4.341  20.425  0.00  0.00    +0.000 C 
ATOM     13  C   UNL     1       1.819   5.580  20.714  0.00  0.00    +0.000 C 
ATOM     14  N   UNL     1       3.107   5.192  20.226  0.00  0.00    +0.000 N 
ATOM     15  H   UNL     1       3.950   5.786  20.229  0.00  0.00    +0.000 HD
ENDBRANCH   8  10
BRANCH   1  17
ATOM     16  C   UNL     1       7.370   4.925  13.465  0.00  0.00    +0.000 C 
ATOM     17  O   UNL     1       6.692   5.653  14.421  0.00  0.00    +0.000 OA
ENDBRANCH   1  17
TORSDOF 2
ENDMDL
MODEL 8
REMARK VINA RESULT:      -6.2      0.602      1.052
REMARK  Name = 
REMARK  3 active torsions:
REMARK  status: ('A' for Active; 'I' for Inactive)
REMARK    1  A    between atoms: C_1  and  O_2
REMARK    2  A    between atoms: O_2  and  C_3
REMARK    3  A    between atoms: C_10  and  C_11
REMARK                            x       y       z     vdW  Elec       q    Type
REMARK                         _______ _______ _______ _____ _____    ______ ____
ROOT
ATOM      1  C   UNL     1       7.361   7.622  17.591  0.00  0.00    +0.000 A 
ATOM      2  C   UNL     1       8.037   6.854  18.567  0.00  0.00    +0.000 A 
ATOM      3  C   UNL     1       7.556   5.590  18.938  0.00  0.00    +0.000 A 
ATOM      4  C   UNL     1       6.396   5.123  18.328  0.00  0.00    +0.000 A 
ATOM      5  C   UNL     1       5.736   5.849  17.386  0.00  0.00    +0.000 A 
ATOM      6  C   UNL     1       6.187   7.102  16.986  0.00  0.00    +0.000 A 
ATOM      7  C   UNL     1       4.580   5.063  16.894  0.00  0.00    +0.000 C 
ATOM      8  C   UNL     1       4.592   3.872  17.895  0.00  0.00    +0.000 C 
ATOM      9  O   UNL     1       5.795   3.959  18.578  0.00  0.00    +0.000 OA
ENDROOT
BRANCH   8  10
ATOM     10  C   UNL     1       3.494   4.016  18.915  0.00  0.00    +0.000 C 
ATOM     11  N   UNL     1       3.624   3.680  20.140  0.00  0.00    +0.000 NA
ATOM     12  C   UNL     1       2.417   3.982  20.875  0.00  0.00    +0.000 C 
ATOM     13  C   UNL     1       1.471   4.619  19.837  0.00  0.00    +0.000 C 
ATOM     14  N   UNL     1       2.236   4.565  18.628  0.00  0.00    +0.000 N 
ATOM     15  H   UNL     1       1.911   4.883  17.702  0.00  0.00    +0.000 HD
ENDBRANCH   8  10
BRANCH   1  17
ATOM     16  C   UNL     1       8.524   9.680  18.148  0.00  0.00    +0.000 C 
ATOM     17  O   UNL     1       7.855   8.843  17.278  0.00  0.00    +0.000 OA
ENDBRANCH   1  17
TORSDOF 2
ENDMDL
MODEL 9
REMARK VINA RESULT:      -6.2      2.571      3.354
REMARK  Name = 
REMARK  3 active torsions:
REMARK  status: ('A' for Active; 'I' for Inactive)
REMARK    1  A    between atoms: C_1  and  O_2
REMARK    2  A    between atoms: O_2  and  C_3
REMARK    3  A    between atoms: C_10  and  C_11
REMARK                            x       y       z     vdW  Elec       q    Type
REMARK                         _______ _______ _______ _____ _____    ______ ____
ROOT
ATOM      1  C   UNL     1       6.453   4.469  15.382  0.00  0.00    +0.000 A 
ATOM      2  C   UNL     1       7.334   4.773  16.445  0.00  0.00    +0.000 A 
ATOM      3  C   UNL     1       6.855   4.872  17.759  0.00  0.00    +0.000 A 
ATOM      4  C   UNL     1       5.497   4.673  17.982  0.00  0.00    +0.000 A 
ATOM      5  C   UNL     1       4.638   4.377  16.969  0.00  0.00    +0.000 A 
ATOM      6  C   UNL     1       5.076   4.262  15.654  0.00  0.00    +0.000 A 
ATOM      7  C   UNL     1       3.281   4.173  17.531  0.00  0.00    +0.000 C 
ATOM      8  C   UNL     1       3.505   4.632  19.000  0.00  0.00    +0.000 C 
ATOM      9  O   UNL     1       4.876   4.750  19.160  0.00  0.00    +0.000 OA
ENDROOT
BRANCH   8  10
ATOM     10  C   UNL     1       2.913   5.997  19.233  0.00  0.00    +0.000 C 
ATOM     11  N   UNL     1       2.853   6.899  18.333  0.00  0.00    +0.000 NA
ATOM     12  C   UNL     1       2.190   8.077  18.845  0.00  0.00    +0.000 C 
ATOM     13  C   UNL     1       1.811   7.716  20.296  0.00  0.00    +0.000 C 
ATOM     14  N   UNL     1       2.339   6.395  20.449  0.00  0.00    +0.000 N 
ATOM     15  H   UNL     1       2.296   5.832  21.312  0.00  0.00    +0.000 HD
ENDBRANCH   8  10
BRANCH   1  17
ATOM     16  C   UNL     1       6.383   3.727  13.070  0.00  0.00    +0.000 C 
ATOM     17  O   UNL     1       6.960   4.399  14.127  0.00  0.00    +0.000 OA
ENDBRANCH   1  17
TORSDOF 2
ENDMDL
