MODEL 1
REMARK VINA RESULT:      -7.7      0.000      0.000
REMARK  Name = 
REMARK  9 active torsions:
REMARK  status: ('A' for Active; 'I' for Inactive)
REMARK    1  A    between atoms: C_1  and  C_2
REMARK    2  A    between atoms: C_2  and  C_3
REMARK    3  A    between atoms: C_3  and  C_4
REMARK    4  A    between atoms: C_4  and  C_5
REMARK    5  A    between atoms: N_9  and  C_10
REMARK    6  A    between atoms: C_10  and  C_11
REMARK    7  A    between atoms: C_14  and  O_15
REMARK    8  A    between atoms: O_15  and  C_16
REMARK    9  A    between atoms: C_16  and  C_17
REMARK                            x       y       z     vdW  Elec       q    Type
REMARK                         _______ _______ _______ _____ _____    ______ ____
ROOT
ATOM      1  C   UNL     1       3.380   6.398  17.747  0.00  0.00    +0.000 C 
ENDROOT
BRANCH   1   6
ATOM      2  C   UNL     1       2.261   3.124  19.210  0.00  0.00    +0.000 C 
ATOM      3  N   UNL     1       3.508   3.469  19.856  0.00  0.00    +0.000 N 
ATOM      4  C   UNL     1       3.978   4.699  19.454  0.00  0.00    +0.000 C 
ATOM      5  O   UNL     1       4.981   5.223  19.911  0.00  0.00    +0.000 OA
ATOM      6  N   UNL     1       3.151   5.182  18.485  0.00  0.00    +0.000 N 
ATOM      7  C   UNL     1       2.112   4.324  18.258  0.00  0.00    +0.000 C 
ATOM      8  O   UNL     1       1.214   4.466  17.437  0.00  0.00    +0.000 OA
ATOM      9  H   UNL     1       3.958   2.957  20.603  0.00  0.00    +0.000 HD
BRANCH   2  11
ATOM     10  C   UNL     1       1.509   2.740  21.657  0.00  0.00    +0.000 C 
ATOM     11  C   UNL     1       1.103   3.071  20.224  0.00  0.00    +0.000 C 
ENDBRANCH   2  11
BRANCH   2  12
ATOM     12  C   UNL     1       2.356   1.802  18.426  0.00  0.00    +0.000 C 
ATOM     13  C   UNL     1       3.772   1.294  18.171  0.00  0.00    +0.000 C 
ENDBRANCH   2  12
ENDBRANCH   1   6
BRANCH   1  14
ATOM     14  C   UNL     1       2.641   7.587  18.308  0.00  0.00    +0.000 A 
ATOM     15  C   UNL     1       2.487   8.734  17.524  0.00  0.00    +0.000 A 
ATOM     16  C   UNL     1       1.739   9.816  17.984  0.00  0.00    +0.000 A 
ATOM     17  C   UNL     1       1.136   9.786  19.243  0.00  0.00    +0.000 A 
ATOM     18  C   UNL     1       1.320   8.660  20.053  0.00  0.00    +0.000 A 
ATOM     19  C   UNL     1       2.071   7.571  19.590  0.00  0.00    +0.000 A 
BRANCH  17  20
ATOM     20  O   UNL     1       0.353  10.790  19.766  0.00  0.00    +0.000 OA
BRANCH  20  21
ATOM     21  C   UNL     1      -1.054  10.596  19.589  0.00  0.00    +0.000 C 
BRANCH  21  22
ATOM     22  C   UNL     1      -1.560  11.144  18.252  0.00  0.00    +0.000 C 
ATOM     23  C   UNL     1      -1.886  10.075  17.225  0.00  0.00    +0.000 C 
ATOM     24  C   UNL     1      -3.319   9.727  17.547  0.00  0.00    +0.000 C 
ATOM     25  C   UNL     1      -3.889  11.054  18.002  0.00  0.00    +0.000 C 
ATOM     26  O   UNL     1      -2.800  11.842  18.503  0.00  0.00    +0.000 OA
ENDBRANCH  21  22
ENDBRANCH  20  21
ENDBRANCH  17  20
ENDBRANCH   1  14
TORSDOF 7
ENDMDL
MODEL 2
REMARK VINA RESULT:      -7.2      1.759      2.503
REMARK  Name = 
REMARK  9 active torsions:
REMARK  status: ('A' for Active; 'I' for Inactive)
REMARK    1  A    between atoms: C_1  and  C_2
REMARK    2  A    between atoms: C_2  and  C_3
REMARK    3  A    between atoms: C_3  and  C_4
REMARK    4  A    between atoms: C_4  and  C_5
REMARK    5  A    between atoms: N_9  and  C_10
REMARK    6  A    between atoms: C_10  and  C_11
REMARK    7  A    between atoms: C_14  and  O_15
REMARK    8  A    between atoms: O_15  and  C_16
REMARK    9  A    between atoms: C_16  and  C_17
REMARK                            x       y       z     vdW  Elec       q    Type
REMARK                         _______ _______ _______ _____ _____    ______ ____
ROOT
ATOM      1  C   UNL     1       3.384   6.747  17.858  0.00  0.00    +0.000 C 
ENDROOT
BRANCH   1   6
ATOM      2  C   UNL     1       2.534   3.299  19.082  0.00  0.00    +0.000 C 
ATOM      3  N   UNL     1       3.811   3.647  19.661  0.00  0.00    +0.000 N 
ATOM      4  C   UNL     1       4.193   4.932  19.344  0.00  0.00    +0.000 C 
ATOM      5  O   UNL     1       5.204   5.463  19.772  0.00  0.00    +0.000 OA
ATOM      6  N   UNL     1       3.270   5.458  18.491  0.00  0.00    +0.000 N 
ATOM      7  C   UNL     1       2.256   4.571  18.262  0.00  0.00    +0.000 C 
ATOM      8  O   UNL     1       1.289   4.741  17.528  0.00  0.00    +0.000 OA
ATOM      9  H   UNL     1       4.342   3.093  20.320  0.00  0.00    +0.000 HD
BRANCH   2  11
ATOM     10  C   UNL     1       2.001   2.696  21.542  0.00  0.00    +0.000 C 
ATOM     11  C   UNL     1       1.463   3.093  20.170  0.00  0.00    +0.000 C 
ENDBRANCH   2  11
BRANCH   2  12
ATOM     12  C   UNL     1       2.624   2.061  18.169  0.00  0.00    +0.000 C 
ATOM     13  C   UNL     1       3.803   1.132  18.444  0.00  0.00    +0.000 C 
ENDBRANCH   2  12
ENDBRANCH   1   6
BRANCH   1  14
ATOM     14  C   UNL     1       2.449   7.782  18.433  0.00  0.00    +0.000 A 
ATOM     15  C   UNL     1       2.065   7.693  19.774  0.00  0.00    +0.000 A 
ATOM     16  C   UNL     1       1.269   8.679  20.353  0.00  0.00    +0.000 A 
ATOM     17  C   UNL     1       0.827   9.772  19.606  0.00  0.00    +0.000 A 
ATOM     18  C   UNL     1       1.171   9.849  18.252  0.00  0.00    +0.000 A 
ATOM     19  C   UNL     1       1.972   8.858  17.669  0.00  0.00    +0.000 A 
BRANCH  17  20
ATOM     20  O   UNL     1       0.069  10.810  20.100  0.00  0.00    +0.000 OA
BRANCH  20  21
ATOM     21  C   UNL     1      -0.290  10.676  21.479  0.00  0.00    +0.000 C 
BRANCH  21  22
ATOM     22  C   UNL     1      -0.522  12.028  22.161  0.00  0.00    +0.000 C 
ATOM     23  C   UNL     1      -1.404  12.978  21.371  0.00  0.00    +0.000 C 
ATOM     24  C   UNL     1      -2.794  12.592  21.814  0.00  0.00    +0.000 C 
ATOM     25  C   UNL     1      -2.584  12.200  23.262  0.00  0.00    +0.000 C 
ATOM     26  O   UNL     1      -1.219  11.781  23.402  0.00  0.00    +0.000 OA
ENDBRANCH  21  22
ENDBRANCH  20  21
ENDBRANCH  17  20
ENDBRANCH   1  14
TORSDOF 7
ENDMDL
MODEL 3
REMARK VINA RESULT:      -7.2      2.421      3.671
REMARK  Name = 
REMARK  9 active torsions:
REMARK  status: ('A' for Active; 'I' for Inactive)
REMARK    1  A    between atoms: C_1  and  C_2
REMARK    2  A    between atoms: C_2  and  C_3
REMARK    3  A    between atoms: C_3  and  C_4
REMARK    4  A    between atoms: C_4  and  C_5
REMARK    5  A    between atoms: N_9  and  C_10
REMARK    6  A    between atoms: C_10  and  C_11
REMARK    7  A    between atoms: C_14  and  O_15
REMARK    8  A    between atoms: O_15  and  C_16
REMARK    9  A    between atoms: C_16  and  C_17
REMARK                            x       y       z     vdW  Elec       q    Type
REMARK                         _______ _______ _______ _____ _____    ______ ____
ROOT
ATOM      1  C   UNL     1       2.734   5.250  17.815  0.00  0.00    +0.000 C 
ENDROOT
BRANCH   1   6
ATOM      2  C   UNL     1       6.467   5.134  17.413  0.00  0.00    +0.000 C 
ATOM      3  N   UNL     1       6.123   4.156  18.420  0.00  0.00    +0.000 N 
ATOM      4  C   UNL     1       4.761   4.052  18.598  0.00  0.00    +0.000 C 
ATOM      5  O   UNL     1       4.237   3.248  19.351  0.00  0.00    +0.000 OA
ATOM      6  N   UNL     1       4.150   4.986  17.817  0.00  0.00    +0.000 N 
ATOM      7  C   UNL     1       5.068   5.686  17.086  0.00  0.00    +0.000 C 
ATOM      8  O   UNL     1       4.835   6.602  16.307  0.00  0.00    +0.000 OA
ATOM      9  H   UNL     1       6.760   3.520  18.880  0.00  0.00    +0.000 HD
BRANCH   2  11
ATOM     10  C   UNL     1       6.121   3.793  15.227  0.00  0.00    +0.000 C 
ATOM     11  C   UNL     1       7.104   4.467  16.180  0.00  0.00    +0.000 C 
ENDBRANCH   2  11
BRANCH   2  12
ATOM     12  C   UNL     1       7.384   6.242  17.964  0.00  0.00    +0.000 C 
ATOM     13  C   UNL     1       7.994   5.963  19.335  0.00  0.00    +0.000 C 
ENDBRANCH   2  12
ENDBRANCH   1   6
BRANCH   1  14
ATOM     14  C   UNL     1       2.356   6.500  18.570  0.00  0.00    +0.000 A 
ATOM     15  C   UNL     1       2.160   7.694  17.869  0.00  0.00    +0.000 A 
ATOM     16  C   UNL     1       1.731   8.844  18.528  0.00  0.00    +0.000 A 
ATOM     17  C   UNL     1       1.499   8.835  19.906  0.00  0.00    +0.000 A 
ATOM     18  C   UNL     1       1.734   7.657  20.622  0.00  0.00    +0.000 A 
ATOM     19  C   UNL     1       2.164   6.499  19.960  0.00  0.00    +0.000 A 
BRANCH  17  20
ATOM     20  O   UNL     1       1.042   9.910  20.634  0.00  0.00    +0.000 OA
BRANCH  20  21
ATOM     21  C   UNL     1       1.086  11.159  19.938  0.00  0.00    +0.000 C 
BRANCH  21  22
ATOM     22  C   UNL     1      -0.169  12.005  20.168  0.00  0.00    +0.000 C 
ATOM     23  C   UNL     1      -0.395  13.080  19.119  0.00  0.00    +0.000 C 
ATOM     24  C   UNL     1      -1.167  12.348  18.050  0.00  0.00    +0.000 C 
ATOM     25  C   UNL     1      -2.002  11.371  18.851  0.00  0.00    +0.000 C 
ATOM     26  O   UNL     1      -1.313  11.127  20.085  0.00  0.00    +0.000 OA
ENDBRANCH  21  22
ENDBRANCH  20  21
ENDBRANCH  17  20
ENDBRANCH   1  14
TORSDOF 7
ENDMDL
MODEL 4
REMARK VINA RESULT:      -7.2      2.722      4.280
REMARK  Name = 
REMARK  9 active torsions:
REMARK  status: ('A' for Active; 'I' for Inactive)
REMARK    1  A    between atoms: C_1  and  C_2
REMARK    2  A    between atoms: C_2  and  C_3
REMARK    3  A    between atoms: C_3  and  C_4
REMARK    4  A    between atoms: C_4  and  C_5
REMARK    5  A    between atoms: N_9  and  C_10
REMARK    6  A    between atoms: C_10  and  C_11
REMARK    7  A    between atoms: C_14  and  O_15
REMARK    8  A    between atoms: O_15  and  C_16
REMARK    9  A    between atoms: C_16  and  C_17
REMARK                            x       y       z     vdW  Elec       q    Type
REMARK                         _______ _______ _______ _____ _____    ______ ____
ROOT
ATOM      1  C   UNL     1       2.963   4.893  17.747  0.00  0.00    +0.000 C 
ENDROOT
BRANCH   1   6
ATOM      2  C   UNL     1       6.639   5.296  17.084  0.00  0.00    +0.000 C 
ATOM      3  N   UNL     1       6.509   4.351  18.170  0.00  0.00    +0.000 N 
ATOM      4  C   UNL     1       5.193   4.061  18.452  0.00  0.00    +0.000 C 
ATOM      5  O   UNL     1       4.843   3.244  19.288  0.00  0.00    +0.000 OA
ATOM      6  N   UNL     1       4.400   4.839  17.663  0.00  0.00    +0.000 N 
ATOM      7  C   UNL     1       5.155   5.614  16.827  0.00  0.00    +0.000 C 
ATOM      8  O   UNL     1       4.738   6.429  16.013  0.00  0.00    +0.000 OA
ATOM      9  H   UNL     1       7.262   3.848  18.620  0.00  0.00    +0.000 HD
BRANCH   2  11
ATOM     10  C   UNL     1       6.337   3.867  14.947  0.00  0.00    +0.000 C 
ATOM     11  C   UNL     1       7.291   4.644  15.850  0.00  0.00    +0.000 C 
ENDBRANCH   2  11
BRANCH   2  12
ATOM     12  C   UNL     1       7.412   6.561  17.501  0.00  0.00    +0.000 C 
ATOM     13  C   UNL     1       8.012   6.528  18.903  0.00  0.00    +0.000 C 
ENDBRANCH   2  12
ENDBRANCH   1   6
BRANCH   1  14
ATOM     14  C   UNL     1       2.456   6.008  18.628  0.00  0.00    +0.000 A 
ATOM     15  C   UNL     1       2.121   5.737  19.958  0.00  0.00    +0.000 A 
ATOM     16  C   UNL     1       1.729   6.761  20.817  0.00  0.00    +0.000 A 
ATOM     17  C   UNL     1       1.648   8.081  20.366  0.00  0.00    +0.000 A 
ATOM     18  C   UNL     1       1.939   8.356  19.026  0.00  0.00    +0.000 A 
ATOM     19  C   UNL     1       2.336   7.326  18.162  0.00  0.00    +0.000 A 
BRANCH  17  20
ATOM     20  O   UNL     1       1.304   9.160  21.148  0.00  0.00    +0.000 OA
BRANCH  20  21
ATOM     21  C   UNL     1       0.041   9.749  20.824  0.00  0.00    +0.000 C 
BRANCH  21  22
ATOM     22  C   UNL     1       0.121  11.271  20.679  0.00  0.00    +0.000 C 
ATOM     23  C   UNL     1      -1.155  11.915  20.169  0.00  0.00    +0.000 C 
ATOM     24  C   UNL     1      -1.944  12.145  21.435  0.00  0.00    +0.000 C 
ATOM     25  C   UNL     1      -0.863  12.451  22.449  0.00  0.00    +0.000 C 
ATOM     26  O   UNL     1       0.345  11.827  21.994  0.00  0.00    +0.000 OA
ENDBRANCH  21  22
ENDBRANCH  20  21
ENDBRANCH  17  20
ENDBRANCH   1  14
TORSDOF 7
ENDMDL
MODEL 5
REMARK VINA RESULT:      -7.1      1.541      2.244
REMARK  Name = 
REMARK  9 active torsions:
REMARK  status: ('A' for Active; 'I' for Inactive)
REMARK    1  A    between atoms: C_1  and  C_2
REMARK    2  A    between atoms: C_2  and  C_3
REMARK    3  A    between atoms: C_3  and  C_4
REMARK    4  A    between atoms: C_4  and  C_5
REMARK    5  A    between atoms: N_9  and  C_10
REMARK    6  A    between atoms: C_10  and  C_11
REMARK    7  A    between atoms: C_14  and  O_15
REMARK    8  A    between atoms: O_15  and  C_16
REMARK    9  A    between atoms: C_16  and  C_17
REMARK                            x       y       z     vdW  Elec       q    Type
REMARK                         _______ _______ _______ _____ _____    ______ ____
ROOT
ATOM      1  C   UNL     1       3.185   6.659  17.859  0.00  0.00    +0.000 C 
ENDROOT
BRANCH   1   6
ATOM      2  C   UNL     1       2.402   3.185  19.052  0.00  0.00    +0.000 C 
ATOM      3  N   UNL     1       3.657   3.565  19.661  0.00  0.00    +0.000 N 
ATOM      4  C   UNL     1       4.010   4.860  19.357  0.00  0.00    +0.000 C 
ATOM      5  O   UNL     1       4.997   5.417  19.809  0.00  0.00    +0.000 OA
ATOM      6  N   UNL     1       3.092   5.365  18.485  0.00  0.00    +0.000 N 
ATOM      7  C   UNL     1       2.107   4.452  18.231  0.00  0.00    +0.000 C 
ATOM      8  O   UNL     1       1.153   4.600  17.477  0.00  0.00    +0.000 OA
ATOM      9  H   UNL     1       4.187   3.022  20.330  0.00  0.00    +0.000 HD
BRANCH   2  11
ATOM     10  C   UNL     1       1.816   2.887  21.556  0.00  0.00    +0.000 C 
ATOM     11  C   UNL     1       1.314   2.946  20.116  0.00  0.00    +0.000 C 
ENDBRANCH   2  11
BRANCH   2  12
ATOM     12  C   UNL     1       2.545   1.953  18.138  0.00  0.00    +0.000 C 
ATOM     13  C   UNL     1       3.819   1.136  18.338  0.00  0.00    +0.000 C 
ENDBRANCH   2  12
ENDBRANCH   1   6
BRANCH   1  14
ATOM     14  C   UNL     1       2.382   7.725  18.562  0.00  0.00    +0.000 A 
ATOM     15  C   UNL     1       1.981   8.862  17.856  0.00  0.00    +0.000 A 
ATOM     16  C   UNL     1       1.169   9.823  18.455  0.00  0.00    +0.000 A 
ATOM     17  C   UNL     1       0.748   9.679  19.779  0.00  0.00    +0.000 A 
ATOM     18  C   UNL     1       1.179   8.565  20.507  0.00  0.00    +0.000 A 
ATOM     19  C   UNL     1       1.994   7.598  19.904  0.00  0.00    +0.000 A 
BRANCH  17  20
ATOM     20  O   UNL     1      -0.081  10.556  20.442  0.00  0.00    +0.000 OA
BRANCH  20  21
ATOM     21  C   UNL     1      -0.800  11.452  19.587  0.00  0.00    +0.000 C 
BRANCH  21  22
ATOM     22  C   UNL     1      -0.684  12.911  20.036  0.00  0.00    +0.000 C 
ATOM     23  C   UNL     1       0.526  13.201  20.905  0.00  0.00    +0.000 C 
ATOM     24  C   UNL     1       1.603  13.498  19.891  0.00  0.00    +0.000 C 
ATOM     25  C   UNL     1       0.834  14.179  18.778  0.00  0.00    +0.000 C 
ATOM     26  O   UNL     1      -0.524  13.724  18.852  0.00  0.00    +0.000 OA
ENDBRANCH  21  22
ENDBRANCH  20  21
ENDBRANCH  17  20
ENDBRANCH   1  14
TORSDOF 7
ENDMDL
MODEL 6
REMARK VINA RESULT:      -7.1      2.771      4.104
REMARK  Name = 
REMARK  9 active torsions:
REMARK  status: ('A' for Active; 'I' for Inactive)
REMARK    1  A    between atoms: C_1  and  C_2
REMARK    2  A    between atoms: C_2  and  C_3
REMARK    3  A    between atoms: C_3  and  C_4
REMARK    4  A    between atoms: C_4  and  C_5
REMARK    5  A    between atoms: N_9  and  C_10
REMARK    6  A    between atoms: C_10  and  C_11
REMARK    7  A    between atoms: C_14  and  O_15
REMARK    8  A    between atoms: O_15  and  C_16
REMARK    9  A    between atoms: C_16  and  C_17
REMARK                            x       y       z     vdW  Elec       q    Type
REMARK                         _______ _______ _______ _____ _____    ______ ____
ROOT
ATOM      1  C   UNL     1       2.779   5.173  17.756  0.00  0.00    +0.000 C 
ENDROOT
BRANCH   1   6
ATOM      2  C   UNL     1       6.509   5.075  17.319  0.00  0.00    +0.000 C 
ATOM      3  N   UNL     1       6.177   4.083  18.316  0.00  0.00    +0.000 N 
ATOM      4  C   UNL     1       4.817   3.971  18.505  0.00  0.00    +0.000 C 
ATOM      5  O   UNL     1       4.303   3.156  19.252  0.00  0.00    +0.000 OA
ATOM      6  N   UNL     1       4.196   4.913  17.742  0.00  0.00    +0.000 N 
ATOM      7  C   UNL     1       5.105   5.627  17.012  0.00  0.00    +0.000 C 
ATOM      8  O   UNL     1       4.862   6.552  16.247  0.00  0.00    +0.000 OA
ATOM      9  H   UNL     1       6.820   3.442  18.762  0.00  0.00    +0.000 HD
BRANCH   2  11
ATOM     10  C   UNL     1       6.143   3.817  15.087  0.00  0.00    +0.000 C 
ATOM     11  C   UNL     1       7.137   4.426  16.071  0.00  0.00    +0.000 C 
ENDBRANCH   2  11
BRANCH   2  12
ATOM     12  C   UNL     1       7.428   6.179  17.877  0.00  0.00    +0.000 C 
ATOM     13  C   UNL     1       7.954   5.939  19.288  0.00  0.00    +0.000 C 
ENDBRANCH   2  12
ENDBRANCH   1   6
BRANCH   1  14
ATOM     14  C   UNL     1       2.388   6.318  18.656  0.00  0.00    +0.000 A 
ATOM     15  C   UNL     1       2.238   7.598  18.115  0.00  0.00    +0.000 A 
ATOM     16  C   UNL     1       1.798   8.658  18.906  0.00  0.00    +0.000 A 
ATOM     17  C   UNL     1       1.510   8.469  20.259  0.00  0.00    +0.000 A 
ATOM     18  C   UNL     1       1.699   7.202  20.820  0.00  0.00    +0.000 A 
ATOM     19  C   UNL     1       2.140   6.135  20.025  0.00  0.00    +0.000 A 
BRANCH  17  20
ATOM     20  O   UNL     1       1.039   9.446  21.108  0.00  0.00    +0.000 OA
BRANCH  20  21
ATOM     21  C   UNL     1       0.407  10.549  20.449  0.00  0.00    +0.000 C 
BRANCH  21  22
ATOM     22  C   UNL     1       1.165  11.864  20.647  0.00  0.00    +0.000 C 
ATOM     23  C   UNL     1       1.152  12.778  19.435  0.00  0.00    +0.000 C 
ATOM     24  C   UNL     1      -0.123  13.563  19.620  0.00  0.00    +0.000 C 
ATOM     25  C   UNL     1      -0.216  13.697  21.125  0.00  0.00    +0.000 C 
ATOM     26  O   UNL     1       0.503  12.598  21.702  0.00  0.00    +0.000 OA
ENDBRANCH  21  22
ENDBRANCH  20  21
ENDBRANCH  17  20
ENDBRANCH   1  14
TORSDOF 7
ENDMDL
MODEL 7
REMARK VINA RESULT:      -7.0      4.213      6.859
REMARK  Name = 
REMARK  9 active torsions:
REMARK  status: ('A' for Active; 'I' for Inactive)
REMARK    1  A    between atoms: C_1  and  C_2
REMARK    2  A    between atoms: C_2  and  C_3
REMARK    3  A    between atoms: C_3  and  C_4
REMARK    4  A    between atoms: C_4  and  C_5
REMARK    5  A    between atoms: N_9  and  C_10
REMARK    6  A    between atoms: C_10  and  C_11
REMARK    7  A    between atoms: C_14  and  O_15
REMARK    8  A    between atoms: O_15  and  C_16
REMARK    9  A    between atoms: C_16  and  C_17
REMARK                            x       y       z     vdW  Elec       q    Type
REMARK                         _______ _______ _______ _____ _____    ______ ____
ROOT
ATOM      1  C   UNL     1       4.815   4.168  17.438  0.00  0.00    +0.000 C 
ENDROOT
BRANCH   1   6
ATOM      2  C   UNL     1       1.942   4.190  19.859  0.00  0.00    +0.000 C 
ATOM      3  N   UNL     1       2.960   3.334  20.423  0.00  0.00    +0.000 N 
ATOM      4  C   UNL     1       4.104   3.311  19.656  0.00  0.00    +0.000 C 
ATOM      5  O   UNL     1       5.116   2.707  19.968  0.00  0.00    +0.000 OA
ATOM      6  N   UNL     1       3.884   4.048  18.531  0.00  0.00    +0.000 N 
ATOM      7  C   UNL     1       2.634   4.600  18.546  0.00  0.00    +0.000 C 
ATOM      8  O   UNL     1       2.134   5.298  17.672  0.00  0.00    +0.000 OA
ATOM      9  H   UNL     1       2.929   2.881  21.327  0.00  0.00    +0.000 HD
BRANCH   2  11
ATOM     10  C   UNL     1       2.385   6.698  20.324  0.00  0.00    +0.000 C 
ATOM     11  C   UNL     1       1.680   5.415  20.755  0.00  0.00    +0.000 C 
ENDBRANCH   2  11
BRANCH   2  12
ATOM     12  C   UNL     1       0.631   3.432  19.579  0.00  0.00    +0.000 C 
ATOM     13  C   UNL     1       0.763   2.210  18.675  0.00  0.00    +0.000 C 
ENDBRANCH   2  12
ENDBRANCH   1   6
BRANCH   1  14
ATOM     14  C   UNL     1       5.860   5.234  17.656  0.00  0.00    +0.000 A 
ATOM     15  C   UNL     1       5.674   6.504  17.103  0.00  0.00    +0.000 A 
ATOM     16  C   UNL     1       6.581   7.531  17.356  0.00  0.00    +0.000 A 
ATOM     17  C   UNL     1       7.704   7.312  18.157  0.00  0.00    +0.000 A 
ATOM     18  C   UNL     1       7.922   6.033  18.680  0.00  0.00    +0.000 A 
ATOM     19  C   UNL     1       7.009   5.000  18.427  0.00  0.00    +0.000 A 
BRANCH  17  20
ATOM     20  O   UNL     1       8.633   8.272  18.490  0.00  0.00    +0.000 OA
BRANCH  20  21
ATOM     21  C   UNL     1       8.281   9.600  18.091  0.00  0.00    +0.000 C 
BRANCH  21  22
ATOM     22  C   UNL     1       9.461  10.572  18.174  0.00  0.00    +0.000 C 
ATOM     23  C   UNL     1       9.108  12.010  17.838  0.00  0.00    +0.000 C 
ATOM     24  C   UNL     1       8.649  12.561  19.166  0.00  0.00    +0.000 C 
ATOM     25  C   UNL     1       9.529  11.825  20.154  0.00  0.00    +0.000 C 
ATOM     26  O   UNL     1       9.923  10.588  19.543  0.00  0.00    +0.000 OA
ENDBRANCH  21  22
ENDBRANCH  20  21
ENDBRANCH  17  20
ENDBRANCH   1  14
TORSDOF 7
ENDMDL
MODEL 8
REMARK VINA RESULT:      -7.0      1.923      2.906
REMARK  Name = 
REMARK  9 active torsions:
REMARK  status: ('A' for Active; 'I' for Inactive)
REMARK    1  A    between atoms: C_1  and  C_2
REMARK    2  A    between atoms: C_2  and  C_3
REMARK    3  A    between atoms: C_3  and  C_4
REMARK    4  A    between atoms: C_4  and  C_5
REMARK    5  A    between atoms: N_9  and  C_10
REMARK    6  A    between atoms: C_10  and  C_11
REMARK    7  A    between atoms: C_14  and  O_15
REMARK    8  A    between atoms: O_15  and  C_16
REMARK    9  A    between atoms: C_16  and  C_17
REMARK                            x       y       z     vdW  Elec       q    Type
REMARK                         _______ _______ _______ _____ _____    ______ ____
ROOT
ATOM      1  C   UNL     1       3.196   6.580  17.827  0.00  0.00    +0.000 C 
ENDROOT
BRANCH   1   6
ATOM      2  C   UNL     1       2.301   3.160  19.098  0.00  0.00    +0.000 C 
ATOM      3  N   UNL     1       3.543   3.534  19.736  0.00  0.00    +0.000 N 
ATOM      4  C   UNL     1       3.933   4.813  19.405  0.00  0.00    +0.000 C 
ATOM      5  O   UNL     1       4.916   5.363  19.873  0.00  0.00    +0.000 OA
ATOM      6  N   UNL     1       3.055   5.308  18.488  0.00  0.00    +0.000 N 
ATOM      7  C   UNL     1       2.061   4.408  18.229  0.00  0.00    +0.000 C 
ATOM      8  O   UNL     1       1.135   4.551  17.439  0.00  0.00    +0.000 OA
ATOM      9  H   UNL     1       4.040   3.002  20.438  0.00  0.00    +0.000 HD
BRANCH   2  11
ATOM     10  C   UNL     1       1.638   2.831  21.578  0.00  0.00    +0.000 C 
ATOM     11  C   UNL     1       1.174   2.976  20.131  0.00  0.00    +0.000 C 
ENDBRANCH   2  11
BRANCH   2  12
ATOM     12  C   UNL     1       2.449   1.899  18.226  0.00  0.00    +0.000 C 
ATOM     13  C   UNL     1       3.805   1.204  18.308  0.00  0.00    +0.000 C 
ENDBRANCH   2  12
ENDBRANCH   1   6
BRANCH   1  14
ATOM     14  C   UNL     1       2.396   7.684  18.473  0.00  0.00    +0.000 A 
ATOM     15  C   UNL     1       1.950   8.757  17.695  0.00  0.00    +0.000 A 
ATOM     16  C   UNL     1       1.140   9.747  18.246  0.00  0.00    +0.000 A 
ATOM     17  C   UNL     1       0.766   9.699  19.591  0.00  0.00    +0.000 A 
ATOM     18  C   UNL     1       1.242   8.653  20.388  0.00  0.00    +0.000 A 
ATOM     19  C   UNL     1       2.055   7.655  19.834  0.00  0.00    +0.000 A 
BRANCH  17  20
ATOM     20  O   UNL     1      -0.058  10.611  20.212  0.00  0.00    +0.000 OA
BRANCH  20  21
ATOM     21  C   UNL     1       0.633  11.630  20.943  0.00  0.00    +0.000 C 
BRANCH  21  22
ATOM     22  C   UNL     1       0.864  12.895  20.111  0.00  0.00    +0.000 C 
ATOM     23  C   UNL     1       0.527  14.186  20.836  0.00  0.00    +0.000 C 
ATOM     24  C   UNL     1       1.811  14.509  21.561  0.00  0.00    +0.000 C 
ATOM     25  C   UNL     1       2.869  14.006  20.602  0.00  0.00    +0.000 C 
ATOM     26  O   UNL     1       2.275  12.970  19.808  0.00  0.00    +0.000 OA
ENDBRANCH  21  22
ENDBRANCH  20  21
ENDBRANCH  17  20
ENDBRANCH   1  14
TORSDOF 7
ENDMDL
MODEL 9
REMARK VINA RESULT:      -7.0      1.729      2.327
REMARK  Name = 
REMARK  9 active torsions:
REMARK  status: ('A' for Active; 'I' for Inactive)
REMARK    1  A    between atoms: C_1  and  C_2
REMARK    2  A    between atoms: C_2  and  C_3
REMARK    3  A    between atoms: C_3  and  C_4
REMARK    4  A    between atoms: C_4  and  C_5
REMARK    5  A    between atoms: N_9  and  C_10
REMARK    6  A    between atoms: C_10  and  C_11
REMARK    7  A    between atoms: C_14  and  O_15
REMARK    8  A    between atoms: O_15  and  C_16
REMARK    9  A    between atoms: C_16  and  C_17
REMARK                            x       y       z     vdW  Elec       q    Type
REMARK                         _______ _______ _______ _____ _____    ______ ____
ROOT
ATOM      1  C   UNL     1       3.140   6.649  17.866  0.00  0.00    +0.000 C 
ENDROOT
BRANCH   1   6
ATOM      2  C   UNL     1       2.359   3.163  19.028  0.00  0.00    +0.000 C 
ATOM      3  N   UNL     1       3.610   3.541  19.645  0.00  0.00    +0.000 N 
ATOM      4  C   UNL     1       3.962   4.840  19.353  0.00  0.00    +0.000 C 
ATOM      5  O   UNL     1       4.945   5.394  19.814  0.00  0.00    +0.000 OA
ATOM      6  N   UNL     1       3.047   5.349  18.481  0.00  0.00    +0.000 N 
ATOM      7  C   UNL     1       2.066   4.436  18.215  0.00  0.00    +0.000 C 
ATOM      8  O   UNL     1       1.115   4.588  17.458  0.00  0.00    +0.000 OA
ATOM      9  H   UNL     1       4.139   2.994  20.312  0.00  0.00    +0.000 HD
BRANCH   2  11
ATOM     10  C   UNL     1       1.765   2.821  21.524  0.00  0.00    +0.000 C 
ATOM     11  C   UNL     1       1.267   2.913  20.084  0.00  0.00    +0.000 C 
ENDBRANCH   2  11
BRANCH   2  12
ATOM     12  C   UNL     1       2.510   1.939  18.104  0.00  0.00    +0.000 C 
ATOM     13  C   UNL     1       3.833   1.189  18.225  0.00  0.00    +0.000 C 
ENDBRANCH   2  12
ENDBRANCH   1   6
BRANCH   1  14
ATOM     14  C   UNL     1       2.359   7.714  18.594  0.00  0.00    +0.000 A 
ATOM     15  C   UNL     1       1.891   8.827  17.890  0.00  0.00    +0.000 A 
ATOM     16  C   UNL     1       1.098   9.785  18.517  0.00  0.00    +0.000 A 
ATOM     17  C   UNL     1       0.763   9.663  19.868  0.00  0.00    +0.000 A 
ATOM     18  C   UNL     1       1.262   8.576  20.592  0.00  0.00    +0.000 A 
ATOM     19  C   UNL     1       2.058   7.611  19.961  0.00  0.00    +0.000 A 
BRANCH  17  20
ATOM     20  O   UNL     1      -0.042  10.539  20.561  0.00  0.00    +0.000 OA
BRANCH  20  21
ATOM     21  C   UNL     1       0.027  11.894  20.105  0.00  0.00    +0.000 C 
BRANCH  21  22
ATOM     22  C   UNL     1      -1.184  12.724  20.542  0.00  0.00    +0.000 C 
ATOM     23  C   UNL     1      -1.932  12.152  21.733  0.00  0.00    +0.000 C 
ATOM     24  C   UNL     1      -1.190  12.741  22.908  0.00  0.00    +0.000 C 
ATOM     25  C   UNL     1      -0.778  14.104  22.392  0.00  0.00    +0.000 C 
ATOM     26  O   UNL     1      -0.702  14.019  20.963  0.00  0.00    +0.000 OA
ENDBRANCH  21  22
ENDBRANCH  20  21
ENDBRANCH  17  20
ENDBRANCH   1  14
TORSDOF 7
ENDMDL
