MODEL 1
REMARK VINA RESULT:      -8.2      0.000      0.000
REMARK  Name = 
REMARK  2 active torsions:
REMARK  status: ('A' for Active; 'I' for Inactive)
REMARK    1  A    between atoms: N_3  and  C_4
REMARK    2  A    between atoms: C_9  and  C_10
REMARK                            x       y       z     vdW  Elec       q    Type
REMARK                         _______ _______ _______ _____ _____    ______ ____
ROOT
ATOM      1  C   UNL     1       4.474   4.494  17.100  0.00  0.00    +0.000 A 
ATOM      2  C   UNL     1       4.218   3.546  18.089  0.00  0.00    +0.000 A 
ATOM      3  C   UNL     1       3.468   3.854  19.226  0.00  0.00    +0.000 A 
ATOM      4  C   UNL     1       2.977   5.157  19.358  0.00  0.00    +0.000 A 
ATOM      5  S   UNL     1       2.011   5.807  20.612  0.00  0.00    +0.000 S 
ATOM      6  C   UNL     1       2.036   7.351  19.850  0.00  0.00    +0.000 A 
ATOM      7  N   UNL     1       2.686   7.390  18.700  0.00  0.00    +0.000 NA
ATOM      8  C   UNL     1       3.240   6.147  18.413  0.00  0.00    +0.000 A 
ATOM      9  C   UNL     1       4.012   5.810  17.276  0.00  0.00    +0.000 A 
ENDROOT
BRANCH   1  12
ATOM     10  O   UNL     1       6.681   5.944  15.918  0.00  0.00    +0.000 OA
ATOM     11  C   UNL     1       6.207   4.944  15.384  0.00  0.00    +0.000 C 
ATOM     12  N   UNL     1       5.194   4.175  15.922  0.00  0.00    +0.000 N 
ATOM     13  N   UNL     1       6.694   4.491  14.174  0.00  0.00    +0.000 N 
ATOM     14  C   UNL     1       7.825   5.156  13.549  0.00  0.00    +0.000 C 
ATOM     15  C   UNL     1       7.515   5.099  12.066  0.00  0.00    +0.000 C 
ATOM     16  C   UNL     1       6.802   3.760  11.924  0.00  0.00    +0.000 C 
ATOM     17  C   UNL     1       6.005   3.631  13.221  0.00  0.00    +0.000 C 
ATOM     18  H   UNL     1       5.197   3.208  15.635  0.00  0.00    +0.000 HD
ENDBRANCH   1  12
BRANCH   6  19
ATOM     19  C   UNL     1       1.321   8.488  20.464  0.00  0.00    +0.000 A 
ATOM     20  C   UNL     1       0.868   9.585  19.705  0.00  0.00    +0.000 A 
ATOM     21  C   UNL     1       0.212  10.660  20.313  0.00  0.00    +0.000 A 
ATOM     22  C   UNL     1      -0.002  10.645  21.683  0.00  0.00    +0.000 A 
ATOM     23  F   UNL     1      -0.625  11.679  22.264  0.00  0.00    +0.000 F 
ATOM     24  C   UNL     1       0.421   9.571  22.456  0.00  0.00    +0.000 A 
ATOM     25  C   UNL     1       1.077   8.494  21.848  0.00  0.00    +0.000 A 
ENDBRANCH   6  19
TORSDOF 2
ENDMDL
MODEL 2
REMARK VINA RESULT:      -7.8      3.886      5.303
REMARK  Name = 
REMARK  2 active torsions:
REMARK  status: ('A' for Active; 'I' for Inactive)
REMARK    1  A    between atoms: N_3  and  C_4
REMARK    2  A    between atoms: C_9  and  C_10
REMARK                            x       y       z     vdW  Elec       q    Type
REMARK                         _______ _______ _______ _____ _____    ______ ____
ROOT
ATOM      1  C   UNL     1       2.442   7.371  18.964  0.00  0.00    +0.000 A 
ATOM      2  C   UNL     1       2.414   8.170  17.822  0.00  0.00    +0.000 A 
ATOM      3  C   UNL     1       1.822   9.434  17.825  0.00  0.00    +0.000 A 
ATOM      4  C   UNL     1       1.240   9.887  19.014  0.00  0.00    +0.000 A 
ATOM      5  S   UNL     1       0.479  11.389  19.320  0.00  0.00    +0.000 S 
ATOM      6  C   UNL     1       0.130  10.898  20.933  0.00  0.00    +0.000 A 
ATOM      7  N   UNL     1       0.586   9.701  21.259  0.00  0.00    +0.000 NA
ATOM      8  C   UNL     1       1.211   9.106  20.168  0.00  0.00    +0.000 A 
ATOM      9  C   UNL     1       1.809   7.824  20.135  0.00  0.00    +0.000 A 
ENDROOT
BRANCH   1  12
ATOM     10  O   UNL     1       1.643   4.954  17.588  0.00  0.00    +0.000 OA
ATOM     11  C   UNL     1       2.615   4.977  18.340  0.00  0.00    +0.000 C 
ATOM     12  N   UNL     1       3.083   6.107  18.980  0.00  0.00    +0.000 N 
ATOM     13  N   UNL     1       3.349   3.833  18.581  0.00  0.00    +0.000 N 
ATOM     14  C   UNL     1       3.018   2.597  17.891  0.00  0.00    +0.000 C 
ATOM     15  C   UNL     1       3.268   1.517  18.926  0.00  0.00    +0.000 C 
ATOM     16  C   UNL     1       4.459   2.066  19.703  0.00  0.00    +0.000 C 
ATOM     17  C   UNL     1       4.217   3.575  19.722  0.00  0.00    +0.000 C 
ATOM     18  H   UNL     1       4.068   6.096  19.195  0.00  0.00    +0.000 HD
ENDBRANCH   1  12
BRANCH   6  19
ATOM     19  C   UNL     1      -0.582  11.815  21.845  0.00  0.00    +0.000 A 
ATOM     20  C   UNL     1      -1.678  11.395  22.625  0.00  0.00    +0.000 A 
ATOM     21  C   UNL     1      -2.350  12.289  23.465  0.00  0.00    +0.000 A 
ATOM     22  C   UNL     1      -1.929  13.608  23.537  0.00  0.00    +0.000 A 
ATOM     23  F   UNL     1      -2.578  14.465  24.337  0.00  0.00    +0.000 F 
ATOM     24  C   UNL     1      -0.843  14.049  22.790  0.00  0.00    +0.000 A 
ATOM     25  C   UNL     1      -0.170  13.155  21.950  0.00  0.00    +0.000 A 
ENDBRANCH   6  19
TORSDOF 2
ENDMDL
MODEL 3
REMARK VINA RESULT:      -7.8      4.226      9.595
REMARK  Name = 
REMARK  2 active torsions:
REMARK  status: ('A' for Active; 'I' for Inactive)
REMARK    1  A    between atoms: N_3  and  C_4
REMARK    2  A    between atoms: C_9  and  C_10
REMARK                            x       y       z     vdW  Elec       q    Type
REMARK                         _______ _______ _______ _____ _____    ______ ____
ROOT
ATOM      1  C   UNL     1       0.667   9.862  20.027  0.00  0.00    +0.000 A 
ATOM      2  C   UNL     1       0.600   8.960  21.088  0.00  0.00    +0.000 A 
ATOM      3  C   UNL     1       1.261   7.731  21.051  0.00  0.00    +0.000 A 
ATOM      4  C   UNL     1       1.998   7.414  19.905  0.00  0.00    +0.000 A 
ATOM      5  S   UNL     1       2.928   6.011  19.593  0.00  0.00    +0.000 S 
ATOM      6  C   UNL     1       3.317   6.602  18.023  0.00  0.00    +0.000 A 
ATOM      7  N   UNL     1       2.828   7.798  17.744  0.00  0.00    +0.000 NA
ATOM      8  C   UNL     1       2.062   8.268  18.805  0.00  0.00    +0.000 A 
ATOM      9  C   UNL     1       1.373   9.503  18.866  0.00  0.00    +0.000 A 
ENDROOT
BRANCH   1  12
ATOM     10  O   UNL     1       1.649  12.285  21.266  0.00  0.00    +0.000 OA
ATOM     11  C   UNL     1       0.541  12.235  20.736  0.00  0.00    +0.000 C 
ATOM     12  N   UNL     1       0.037  11.130  20.079  0.00  0.00    +0.000 N 
ATOM     13  N   UNL     1      -0.294  13.334  20.741  0.00  0.00    +0.000 N 
ATOM     14  C   UNL     1       0.157  14.590  21.316  0.00  0.00    +0.000 C 
ATOM     15  C   UNL     1      -1.083  15.163  21.974  0.00  0.00    +0.000 C 
ATOM     16  C   UNL     1      -2.198  14.712  21.039  0.00  0.00    +0.000 C 
ATOM     17  C   UNL     1      -1.740  13.333  20.564  0.00  0.00    +0.000 C 
ATOM     18  H   UNL     1      -0.638  11.336  19.358  0.00  0.00    +0.000 HD
ENDBRANCH   1  12
BRANCH   6  19
ATOM     19  C   UNL     1       4.181   5.805  17.129  0.00  0.00    +0.000 A 
ATOM     20  C   UNL     1       4.197   4.397  17.163  0.00  0.00    +0.000 A 
ATOM     21  C   UNL     1       5.040   3.666  16.321  0.00  0.00    +0.000 A 
ATOM     22  C   UNL     1       5.871   4.335  15.434  0.00  0.00    +0.000 A 
ATOM     23  F   UNL     1       6.683   3.633  14.633  0.00  0.00    +0.000 F 
ATOM     24  C   UNL     1       5.868   5.723  15.368  0.00  0.00    +0.000 A 
ATOM     25  C   UNL     1       5.023   6.456  16.210  0.00  0.00    +0.000 A 
ENDBRANCH   6  19
TORSDOF 2
ENDMDL
MODEL 4
REMARK VINA RESULT:      -7.8      4.289      9.602
REMARK  Name = 
REMARK  2 active torsions:
REMARK  status: ('A' for Active; 'I' for Inactive)
REMARK    1  A    between atoms: N_3  and  C_4
REMARK    2  A    between atoms: C_9  and  C_10
REMARK                            x       y       z     vdW  Elec       q    Type
REMARK                         _______ _______ _______ _____ _____    ______ ____
ROOT
ATOM      1  C   UNL     1       0.601  10.089  20.062  0.00  0.00    +0.000 A 
ATOM      2  C   UNL     1       0.528   9.217  21.147  0.00  0.00    +0.000 A 
ATOM      3  C   UNL     1       1.172   7.978  21.139  0.00  0.00    +0.000 A 
ATOM      4  C   UNL     1       1.898   7.621  19.998  0.00  0.00    +0.000 A 
ATOM      5  S   UNL     1       2.807   6.197  19.718  0.00  0.00    +0.000 S 
ATOM      6  C   UNL     1       3.196   6.741  18.131  0.00  0.00    +0.000 A 
ATOM      7  N   UNL     1       2.721   7.936  17.823  0.00  0.00    +0.000 NA
ATOM      8  C   UNL     1       1.967   8.444  18.875  0.00  0.00    +0.000 A 
ATOM      9  C   UNL     1       1.296   9.690  18.907  0.00  0.00    +0.000 A 
ENDROOT
BRANCH   1  12
ATOM     10  O   UNL     1       1.633  12.535  21.212  0.00  0.00    +0.000 OA
ATOM     11  C   UNL     1       0.517  12.483  20.699  0.00  0.00    +0.000 C 
ATOM     12  N   UNL     1      -0.011  11.366  20.083  0.00  0.00    +0.000 N 
ATOM     13  N   UNL     1      -0.304  13.593  20.682  0.00  0.00    +0.000 N 
ATOM     14  C   UNL     1       0.172  14.860  21.211  0.00  0.00    +0.000 C 
ATOM     15  C   UNL     1      -1.051  15.470  21.869  0.00  0.00    +0.000 C 
ATOM     16  C   UNL     1      -2.185  15.005  20.964  0.00  0.00    +0.000 C 
ATOM     17  C   UNL     1      -1.752  13.607  20.525  0.00  0.00    +0.000 C 
ATOM     18  H   UNL     1      -0.693  11.559  19.366  0.00  0.00    +0.000 HD
ENDBRANCH   1  12
BRANCH   6  19
ATOM     19  C   UNL     1       4.044   5.909  17.254  0.00  0.00    +0.000 A 
ATOM     20  C   UNL     1       4.923   6.473  16.308  0.00  0.00    +0.000 A 
ATOM     21  C   UNL     1       5.699   5.663  15.473  0.00  0.00    +0.000 A 
ATOM     22  C   UNL     1       5.607   4.283  15.580  0.00  0.00    +0.000 A 
ATOM     23  F   UNL     1       6.347   3.509  14.775  0.00  0.00    +0.000 F 
ATOM     24  C   UNL     1       4.760   3.698  16.513  0.00  0.00    +0.000 A 
ATOM     25  C   UNL     1       3.983   4.508  17.349  0.00  0.00    +0.000 A 
ENDBRANCH   6  19
TORSDOF 2
ENDMDL
MODEL 5
REMARK VINA RESULT:      -7.7      5.061      9.985
REMARK  Name = 
REMARK  2 active torsions:
REMARK  status: ('A' for Active; 'I' for Inactive)
REMARK    1  A    between atoms: N_3  and  C_4
REMARK    2  A    between atoms: C_9  and  C_10
REMARK                            x       y       z     vdW  Elec       q    Type
REMARK                         _______ _______ _______ _____ _____    ______ ____
ROOT
ATOM      1  C   UNL     1       0.292  10.626  20.166  0.00  0.00    +0.000 A 
ATOM      2  C   UNL     1       0.749  10.906  18.878  0.00  0.00    +0.000 A 
ATOM      3  C   UNL     1       1.508   9.986  18.153  0.00  0.00    +0.000 A 
ATOM      4  C   UNL     1       1.814   8.761  18.757  0.00  0.00    +0.000 A 
ATOM      5  S   UNL     1       2.689   7.443  18.104  0.00  0.00    +0.000 S 
ATOM      6  C   UNL     1       2.513   6.578  19.583  0.00  0.00    +0.000 A 
ATOM      7  N   UNL     1       1.806   7.201  20.509  0.00  0.00    +0.000 NA
ATOM      8  C   UNL     1       1.411   8.455  20.055  0.00  0.00    +0.000 A 
ATOM      9  C   UNL     1       0.651   9.410  20.772  0.00  0.00    +0.000 A 
ENDROOT
BRANCH   1  12
ATOM     10  O   UNL     1       1.112  13.046  21.524  0.00  0.00    +0.000 OA
ATOM     11  C   UNL     1      -0.050  12.648  21.559  0.00  0.00    +0.000 C 
ATOM     12  N   UNL     1      -0.519  11.537  20.888  0.00  0.00    +0.000 N 
ATOM     13  N   UNL     1      -1.008  13.332  22.281  0.00  0.00    +0.000 N 
ATOM     14  C   UNL     1      -0.665  14.573  22.955  0.00  0.00    +0.000 C 
ATOM     15  C   UNL     1      -1.468  14.531  24.240  0.00  0.00    +0.000 C 
ATOM     16  C   UNL     1      -2.747  13.820  23.815  0.00  0.00    +0.000 C 
ATOM     17  C   UNL     1      -2.270  12.802  22.780  0.00  0.00    +0.000 C 
ATOM     18  H   UNL     1      -1.498  11.565  20.651  0.00  0.00    +0.000 HD
ENDBRANCH   1  12
BRANCH   6  19
ATOM     19  C   UNL     1       3.089   5.225  19.717  0.00  0.00    +0.000 A 
ATOM     20  C   UNL     1       2.469   4.220  20.487  0.00  0.00    +0.000 A 
ATOM     21  C   UNL     1       3.046   2.953  20.617  0.00  0.00    +0.000 A 
ATOM     22  C   UNL     1       4.244   2.677  19.975  0.00  0.00    +0.000 A 
ATOM     23  F   UNL     1       4.798   1.465  20.106  0.00  0.00    +0.000 F 
ATOM     24  C   UNL     1       4.873   3.643  19.199  0.00  0.00    +0.000 A 
ATOM     25  C   UNL     1       4.295   4.911  19.067  0.00  0.00    +0.000 A 
ENDBRANCH   6  19
TORSDOF 2
ENDMDL
MODEL 6
REMARK VINA RESULT:      -7.6      4.236      9.684
REMARK  Name = 
REMARK  2 active torsions:
REMARK  status: ('A' for Active; 'I' for Inactive)
REMARK    1  A    between atoms: N_3  and  C_4
REMARK    2  A    between atoms: C_9  and  C_10
REMARK                            x       y       z     vdW  Elec       q    Type
REMARK                         _______ _______ _______ _____ _____    ______ ____
ROOT
ATOM      1  C   UNL     1       0.744   9.431  20.305  0.00  0.00    +0.000 A 
ATOM      2  C   UNL     1       0.687   8.428  21.271  0.00  0.00    +0.000 A 
ATOM      3  C   UNL     1       1.367   7.218  21.115  0.00  0.00    +0.000 A 
ATOM      4  C   UNL     1       2.112   7.027  19.946  0.00  0.00    +0.000 A 
ATOM      5  S   UNL     1       3.063   5.676  19.500  0.00  0.00    +0.000 S 
ATOM      6  C   UNL     1       3.448   6.425  17.999  0.00  0.00    +0.000 A 
ATOM      7  N   UNL     1       2.942   7.636  17.838  0.00  0.00    +0.000 NA
ATOM      8  C   UNL     1       2.165   7.987  18.937  0.00  0.00    +0.000 A 
ATOM      9  C   UNL     1       1.458   9.199  19.117  0.00  0.00    +0.000 A 
ENDROOT
BRANCH   1  12
ATOM     10  O   UNL     1       0.167  10.802  22.786  0.00  0.00    +0.000 OA
ATOM     11  C   UNL     1      -0.196  11.251  21.701  0.00  0.00    +0.000 C 
ATOM     12  N   UNL     1       0.094  10.678  20.480  0.00  0.00    +0.000 N 
ATOM     13  N   UNL     1      -0.927  12.420  21.630  0.00  0.00    +0.000 N 
ATOM     14  C   UNL     1      -1.217  13.173  22.840  0.00  0.00    +0.000 C 
ATOM     15  C   UNL     1      -2.616  13.713  22.613  0.00  0.00    +0.000 C 
ATOM     16  C   UNL     1      -2.635  13.979  21.113  0.00  0.00    +0.000 C 
ATOM     17  C   UNL     1      -1.781  12.852  20.532  0.00  0.00    +0.000 C 
ATOM     18  H   UNL     1       0.125  11.323  19.705  0.00  0.00    +0.000 HD
ENDBRANCH   1  12
BRANCH   6  19
ATOM     19  C   UNL     1       4.326   5.734  17.033  0.00  0.00    +0.000 A 
ATOM     20  C   UNL     1       5.051   6.432  16.047  0.00  0.00    +0.000 A 
ATOM     21  C   UNL     1       5.858   5.752  15.130  0.00  0.00    +0.000 A 
ATOM     22  C   UNL     1       5.952   4.370  15.194  0.00  0.00    +0.000 A 
ATOM     23  F   UNL     1       6.721   3.719  14.311  0.00  0.00    +0.000 F 
ATOM     24  C   UNL     1       5.260   3.655  16.164  0.00  0.00    +0.000 A 
ATOM     25  C   UNL     1       4.452   4.335  17.082  0.00  0.00    +0.000 A 
ENDBRANCH   6  19
TORSDOF 2
ENDMDL
MODEL 7
REMARK VINA RESULT:      -7.5      1.026      1.569
REMARK  Name = 
REMARK  2 active torsions:
REMARK  status: ('A' for Active; 'I' for Inactive)
REMARK    1  A    between atoms: N_3  and  C_4
REMARK    2  A    between atoms: C_9  and  C_10
REMARK                            x       y       z     vdW  Elec       q    Type
REMARK                         _______ _______ _______ _____ _____    ______ ____
ROOT
ATOM      1  C   UNL     1       4.309   5.272  17.282  0.00  0.00    +0.000 A 
ATOM      2  C   UNL     1       4.250   4.618  18.512  0.00  0.00    +0.000 A 
ATOM      3  C   UNL     1       3.537   5.145  19.590  0.00  0.00    +0.000 A 
ATOM      4  C   UNL     1       2.879   6.367  19.412  0.00  0.00    +0.000 A 
ATOM      5  S   UNL     1       1.913   7.228  20.532  0.00  0.00    +0.000 S 
ATOM      6  C   UNL     1       1.677   8.486  19.380  0.00  0.00    +0.000 A 
ATOM      7  N   UNL     1       2.241   8.275  18.204  0.00  0.00    +0.000 NA
ATOM      8  C   UNL     1       2.943   7.074  18.212  0.00  0.00    +0.000 A 
ATOM      9  C   UNL     1       3.681   6.521  17.138  0.00  0.00    +0.000 A 
ENDROOT
BRANCH   1  12
ATOM     10  O   UNL     1       6.644   6.316  15.930  0.00  0.00    +0.000 OA
ATOM     11  C   UNL     1       6.072   5.301  15.539  0.00  0.00    +0.000 C 
ATOM     12  N   UNL     1       4.991   4.719  16.170  0.00  0.00    +0.000 N 
ATOM     13  N   UNL     1       6.509   4.634  14.412  0.00  0.00    +0.000 N 
ATOM     14  C   UNL     1       7.699   5.090  13.711  0.00  0.00    +0.000 C 
ATOM     15  C   UNL     1       7.380   4.851  12.248  0.00  0.00    +0.000 C 
ATOM     16  C   UNL     1       6.539   3.581  12.290  0.00  0.00    +0.000 C 
ATOM     17  C   UNL     1       5.737   3.718  13.583  0.00  0.00    +0.000 C 
ATOM     18  H   UNL     1       4.898   3.725  16.024  0.00  0.00    +0.000 HD
ENDBRANCH   1  12
BRANCH   6  19
ATOM     19  C   UNL     1       0.850   9.659  19.730  0.00  0.00    +0.000 A 
ATOM     20  C   UNL     1       0.235   9.794  20.990  0.00  0.00    +0.000 A 
ATOM     21  C   UNL     1      -0.561  10.904  21.288  0.00  0.00    +0.000 A 
ATOM     22  C   UNL     1      -0.744  11.892  20.333  0.00  0.00    +0.000 A 
ATOM     23  F   UNL     1      -1.512  12.951  20.618  0.00  0.00    +0.000 F 
ATOM     24  C   UNL     1      -0.139  11.795  19.086  0.00  0.00    +0.000 A 
ATOM     25  C   UNL     1       0.658  10.684  18.786  0.00  0.00    +0.000 A 
ENDBRANCH   6  19
TORSDOF 2
ENDMDL
MODEL 8
REMARK VINA RESULT:      -7.5      1.280      1.638
REMARK  Name = 
REMARK  2 active torsions:
REMARK  status: ('A' for Active; 'I' for Inactive)
REMARK    1  A    between atoms: N_3  and  C_4
REMARK    2  A    between atoms: C_9  and  C_10
REMARK                            x       y       z     vdW  Elec       q    Type
REMARK                         _______ _______ _______ _____ _____    ______ ____
ROOT
ATOM      1  C   UNL     1       4.074   5.567  17.484  0.00  0.00    +0.000 A 
ATOM      2  C   UNL     1       4.023   4.987  18.751  0.00  0.00    +0.000 A 
ATOM      3  C   UNL     1       3.301   5.568  19.795  0.00  0.00    +0.000 A 
ATOM      4  C   UNL     1       2.626   6.767  19.543  0.00  0.00    +0.000 A 
ATOM      5  S   UNL     1       1.645   7.679  20.609  0.00  0.00    +0.000 S 
ATOM      6  C   UNL     1       1.392   8.862  19.383  0.00  0.00    +0.000 A 
ATOM      7  N   UNL     1       1.961   8.588  18.222  0.00  0.00    +0.000 NA
ATOM      8  C   UNL     1       2.680   7.401  18.303  0.00  0.00    +0.000 A 
ATOM      9  C   UNL     1       3.428   6.796  17.265  0.00  0.00    +0.000 A 
ENDROOT
BRANCH   1  12
ATOM     10  O   UNL     1       6.532   6.438  16.230  0.00  0.00    +0.000 OA
ATOM     11  C   UNL     1       5.911   5.459  15.822  0.00  0.00    +0.000 C 
ATOM     12  N   UNL     1       4.766   4.957  16.408  0.00  0.00    +0.000 N 
ATOM     13  N   UNL     1       6.351   4.753  14.720  0.00  0.00    +0.000 N 
ATOM     14  C   UNL     1       7.598   5.121  14.070  0.00  0.00    +0.000 C 
ATOM     15  C   UNL     1       7.329   4.889  12.596  0.00  0.00    +0.000 C 
ATOM     16  C   UNL     1       6.403   3.679  12.609  0.00  0.00    +0.000 C 
ATOM     17  C   UNL     1       5.556   3.882  13.865  0.00  0.00    +0.000 C 
ATOM     18  H   UNL     1       4.613   3.971  16.265  0.00  0.00    +0.000 HD
ENDBRANCH   1  12
BRANCH   6  19
ATOM     19  C   UNL     1       0.548  10.042  19.661  0.00  0.00    +0.000 A 
ATOM     20  C   UNL     1      -0.366  10.548  18.716  0.00  0.00    +0.000 A 
ATOM     21  C   UNL     1      -1.138  11.680  18.994  0.00  0.00    +0.000 A 
ATOM     22  C   UNL     1      -1.008  12.313  20.221  0.00  0.00    +0.000 A 
ATOM     23  F   UNL     1      -1.743  13.401  20.484  0.00  0.00    +0.000 F 
ATOM     24  C   UNL     1      -0.125  11.829  21.179  0.00  0.00    +0.000 A 
ATOM     25  C   UNL     1       0.648  10.696  20.901  0.00  0.00    +0.000 A 
ENDBRANCH   6  19
TORSDOF 2
ENDMDL
MODEL 9
REMARK VINA RESULT:      -7.5      5.173     10.230
REMARK  Name = 
REMARK  2 active torsions:
REMARK  status: ('A' for Active; 'I' for Inactive)
REMARK    1  A    between atoms: N_3  and  C_4
REMARK    2  A    between atoms: C_9  and  C_10
REMARK                            x       y       z     vdW  Elec       q    Type
REMARK                         _______ _______ _______ _____ _____    ______ ____
ROOT
ATOM      1  C   UNL     1       0.003  11.050  20.535  0.00  0.00    +0.000 A 
ATOM      2  C   UNL     1       0.386  11.345  19.227  0.00  0.00    +0.000 A 
ATOM      3  C   UNL     1       1.107  10.436  18.450  0.00  0.00    +0.000 A 
ATOM      4  C   UNL     1       1.451   9.207  19.023  0.00  0.00    +0.000 A 
ATOM      5  S   UNL     1       2.294   7.900  18.308  0.00  0.00    +0.000 S 
ATOM      6  C   UNL     1       2.205   7.018  19.785  0.00  0.00    +0.000 A 
ATOM      7  N   UNL     1       1.548   7.628  20.756  0.00  0.00    +0.000 NA
ATOM      8  C   UNL     1       1.123   8.885  20.338  0.00  0.00    +0.000 A 
ATOM      9  C   UNL     1       0.401   9.829  21.107  0.00  0.00    +0.000 A 
ENDROOT
BRANCH   1  12
ATOM     10  O   UNL     1       0.853  13.536  21.747  0.00  0.00    +0.000 OA
ATOM     11  C   UNL     1      -0.283  13.096  21.906  0.00  0.00    +0.000 C 
ATOM     12  N   UNL     1      -0.769  11.949  21.311  0.00  0.00    +0.000 N 
ATOM     13  N   UNL     1      -1.193  13.762  22.702  0.00  0.00    +0.000 N 
ATOM     14  C   UNL     1      -0.836  15.034  23.308  0.00  0.00    +0.000 C 
ATOM     15  C   UNL     1      -1.508  14.998  24.667  0.00  0.00    +0.000 C 
ATOM     16  C   UNL     1      -2.793  14.228  24.386  0.00  0.00    +0.000 C 
ATOM     17  C   UNL     1      -2.378  13.199  23.335  0.00  0.00    +0.000 C 
ATOM     18  H   UNL     1      -1.768  11.934  21.171  0.00  0.00    +0.000 HD
ENDBRANCH   1  12
BRANCH   6  19
ATOM     19  C   UNL     1       2.793   5.666  19.873  0.00  0.00    +0.000 A 
ATOM     20  C   UNL     1       3.988   5.324  19.209  0.00  0.00    +0.000 A 
ATOM     21  C   UNL     1       4.513   4.031  19.290  0.00  0.00    +0.000 A 
ATOM     22  C   UNL     1       3.851   3.070  20.039  0.00  0.00    +0.000 A 
ATOM     23  F   UNL     1       4.352   1.829  20.110  0.00  0.00    +0.000 F 
ATOM     24  C   UNL     1       2.678   3.380  20.716  0.00  0.00    +0.000 A 
ATOM     25  C   UNL     1       2.152   4.675  20.636  0.00  0.00    +0.000 A 
ENDBRANCH   6  19
TORSDOF 2
ENDMDL
