MODEL 1
REMARK VINA RESULT:      -9.3      0.000      0.000
REMARK  Name = 
REMARK  4 active torsions:
REMARK  status: ('A' for Active; 'I' for Inactive)
REMARK    1  A    between atoms: C_7  and  C_8
REMARK    2  A    between atoms: C_8  and  C_9
REMARK    3  A    between atoms: C_15  and  C_16
REMARK    4  A    between atoms: N_19  and  C_20
REMARK                            x       y       z     vdW  Elec       q    Type
REMARK                         _______ _______ _______ _____ _____    ______ ____
ROOT
ATOM      1  C   UNL     1       2.077   7.817  19.445  0.00  0.00    +0.000 A 
ATOM      2  N   UNL     1       2.575   7.717  18.225  0.00  0.00    +0.000 NA
ATOM      3  N   UNL     1       2.015   8.711  17.451  0.00  0.00    +0.000 NA
ATOM      4  C   UNL     1       1.211   9.410  18.220  0.00  0.00    +0.000 A 
ATOM      5  C   UNL     1       0.360  10.507  17.972  0.00  0.00    +0.000 A 
ATOM      6  C   UNL     1      -0.316  11.054  18.993  0.00  0.00    +0.000 A 
ATOM      7  C   UNL     1      -0.088  10.463  20.338  0.00  0.00    +0.000 A 
ATOM      8  N   UNL     1       0.646   9.428  20.609  0.00  0.00    +0.000 NA
ATOM      9  N   UNL     1       1.260   8.917  19.508  0.00  0.00    +0.000 N 
ENDROOT
BRANCH   7  10
ATOM     10  C   UNL     1      -0.729  11.128  21.454  0.00  0.00    +0.000 A 
ATOM     11  C   UNL     1      -0.743  10.862  22.843  0.00  0.00    +0.000 A 
ATOM     12  N   UNL     1      -1.507  11.717  23.528  0.00  0.00    +0.000 NA
ATOM     13  N   UNL     1      -1.971  12.565  22.592  0.00  0.00    +0.000 N 
ATOM     14  C   UNL     1      -1.546  12.237  21.338  0.00  0.00    +0.000 A 
BRANCH  13  15
ATOM     15  C   UNL     1      -2.900  13.647  22.912  0.00  0.00    +0.000 C 
ATOM     16  C   UNL     1      -3.457  13.524  24.339  0.00  0.00    +0.000 C 
ATOM     17  C   UNL     1      -4.528  12.441  24.430  0.00  0.00    +0.000 C 
ATOM     18  N   UNL     1      -5.615  12.676  23.483  0.00  0.00    +0.000 NA
ATOM     19  C   UNL     1      -5.127  12.732  22.104  0.00  0.00    +0.000 C 
ATOM     20  C   UNL     1      -4.060  13.811  21.918  0.00  0.00    +0.000 C 
ATOM     21  H   UNL     1      -6.093  13.547  23.711  0.00  0.00    +0.000 HD
ENDBRANCH  13  15
ENDBRANCH   7  10
BRANCH   1  22
ATOM     22  C   UNL     1       2.314   6.892  20.594  0.00  0.00    +0.000 C 
BRANCH  22  29
ATOM     23  O   UNL     1       3.732   1.519  17.903  0.00  0.00    +0.000 OA
ATOM     24  C   UNL     1       3.949   2.634  18.366  0.00  0.00    +0.000 A 
ATOM     25  N   UNL     1       5.139   3.289  18.148  0.00  0.00    +0.000 N 
ATOM     26  C   UNL     1       5.451   4.507  18.680  0.00  0.00    +0.000 A 
ATOM     27  C   UNL     1       4.568   5.197  19.408  0.00  0.00    +0.000 A 
ATOM     28  C   UNL     1       3.207   4.676  19.614  0.00  0.00    +0.000 A 
ATOM     29  C   UNL     1       2.175   5.421  20.228  0.00  0.00    +0.000 A 
ATOM     30  C   UNL     1       0.941   4.787  20.481  0.00  0.00    +0.000 A 
ATOM     31  C   UNL     1       0.715   3.459  20.111  0.00  0.00    +0.000 A 
ATOM     32  C   UNL     1       1.703   2.753  19.435  0.00  0.00    +0.000 A 
ATOM     33  C   UNL     1       2.933   3.363  19.174  0.00  0.00    +0.000 A 
ATOM     34  H   UNL     1       5.815   2.794  17.580  0.00  0.00    +0.000 HD
ENDBRANCH  22  29
ENDBRANCH   1  22
TORSDOF 4
ENDMDL
MODEL 2
REMARK VINA RESULT:      -9.2      3.251      9.628
REMARK  Name = 
REMARK  4 active torsions:
REMARK  status: ('A' for Active; 'I' for Inactive)
REMARK    1  A    between atoms: C_7  and  C_8
REMARK    2  A    between atoms: C_8  and  C_9
REMARK    3  A    between atoms: C_15  and  C_16
REMARK    4  A    between atoms: N_19  and  C_20
REMARK                            x       y       z     vdW  Elec       q    Type
REMARK                         _______ _______ _______ _____ _____    ______ ____
ROOT
ATOM      1  C   UNL     1      -0.420  11.577  20.397  0.00  0.00    +0.000 A 
ATOM      2  N   UNL     1      -0.742  12.012  21.602  0.00  0.00    +0.000 NA
ATOM      3  N   UNL     1      -0.307  11.085  22.524  0.00  0.00    +0.000 NA
ATOM      4  C   UNL     1       0.295  10.120  21.865  0.00  0.00    +0.000 A 
ATOM      5  C   UNL     1       0.898   8.911  22.272  0.00  0.00    +0.000 A 
ATOM      6  C   UNL     1       1.490   8.135  21.352  0.00  0.00    +0.000 A 
ATOM      7  C   UNL     1       1.487   8.636  19.952  0.00  0.00    +0.000 A 
ATOM      8  N   UNL     1       0.907   9.713  19.523  0.00  0.00    +0.000 NA
ATOM      9  N   UNL     1       0.300  10.415  20.517  0.00  0.00    +0.000 N 
ENDROOT
BRANCH   7  10
ATOM     10  C   UNL     1       2.227   7.853  18.983  0.00  0.00    +0.000 A 
ATOM     11  C   UNL     1       3.014   8.214  17.866  0.00  0.00    +0.000 A 
ATOM     12  N   UNL     1       3.495   7.157  17.206  0.00  0.00    +0.000 NA
ATOM     13  N   UNL     1       3.050   6.100  17.909  0.00  0.00    +0.000 N 
ATOM     14  C   UNL     1       2.272   6.471  18.967  0.00  0.00    +0.000 A 
BRANCH  13  15
ATOM     15  C   UNL     1       3.313   4.723  17.498  0.00  0.00    +0.000 C 
ATOM     16  C   UNL     1       3.068   3.725  18.640  0.00  0.00    +0.000 C 
ATOM     17  C   UNL     1       4.206   3.747  19.656  0.00  0.00    +0.000 C 
ATOM     18  N   UNL     1       5.497   3.484  19.026  0.00  0.00    +0.000 NA
ATOM     19  C   UNL     1       5.794   4.460  17.975  0.00  0.00    +0.000 C 
ATOM     20  C   UNL     1       4.708   4.488  16.899  0.00  0.00    +0.000 C 
ATOM     21  H   UNL     1       5.507   2.544  18.631  0.00  0.00    +0.000 HD
ENDBRANCH  13  15
ENDBRANCH   7  10
BRANCH   1  22
ATOM     22  C   UNL     1      -0.780  12.199  19.088  0.00  0.00    +0.000 C 
BRANCH  22  29
ATOM     23  O   UNL     1      -6.690  10.545  18.406  0.00  0.00    +0.000 OA
ATOM     24  C   UNL     1      -5.754  11.223  18.819  0.00  0.00    +0.000 A 
ATOM     25  N   UNL     1      -5.918  12.141  19.831  0.00  0.00    +0.000 N 
ATOM     26  C   UNL     1      -4.924  12.955  20.293  0.00  0.00    +0.000 A 
ATOM     27  C   UNL     1      -3.673  12.861  19.831  0.00  0.00    +0.000 A 
ATOM     28  C   UNL     1      -3.324  11.833  18.838  0.00  0.00    +0.000 A 
ATOM     29  C   UNL     1      -1.998  11.566  18.430  0.00  0.00    +0.000 A 
ATOM     30  C   UNL     1      -1.784  10.640  17.387  0.00  0.00    +0.000 A 
ATOM     31  C   UNL     1      -2.847   9.968  16.781  0.00  0.00    +0.000 A 
ATOM     32  C   UNL     1      -4.144  10.170  17.238  0.00  0.00    +0.000 A 
ATOM     33  C   UNL     1      -4.377  11.084  18.270  0.00  0.00    +0.000 A 
ATOM     34  H   UNL     1      -6.853  12.214  20.212  0.00  0.00    +0.000 HD
ENDBRANCH  22  29
ENDBRANCH   1  22
TORSDOF 4
ENDMDL
MODEL 3
REMARK VINA RESULT:      -8.9      3.766      9.262
REMARK  Name = 
REMARK  4 active torsions:
REMARK  status: ('A' for Active; 'I' for Inactive)
REMARK    1  A    between atoms: C_7  and  C_8
REMARK    2  A    between atoms: C_8  and  C_9
REMARK    3  A    between atoms: C_15  and  C_16
REMARK    4  A    between atoms: N_19  and  C_20
REMARK                            x       y       z     vdW  Elec       q    Type
REMARK                         _______ _______ _______ _____ _____    ______ ____
ROOT
ATOM      1  C   UNL     1      -1.252  12.659  20.994  0.00  0.00    +0.000 A 
ATOM      2  N   UNL     1      -1.712  13.197  22.110  0.00  0.00    +0.000 NA
ATOM      3  N   UNL     1      -1.502  12.301  23.136  0.00  0.00    +0.000 NA
ATOM      4  C   UNL     1      -0.895  11.251  22.631  0.00  0.00    +0.000 A 
ATOM      5  C   UNL     1      -0.468  10.028  23.191  0.00  0.00    +0.000 A 
ATOM      6  C   UNL     1       0.186   9.149  22.417  0.00  0.00    +0.000 A 
ATOM      7  C   UNL     1       0.437   9.555  21.009  0.00  0.00    +0.000 A 
ATOM      8  N   UNL     1       0.024  10.644  20.438  0.00  0.00    +0.000 NA
ATOM      9  N   UNL     1      -0.662  11.455  21.287  0.00  0.00    +0.000 N 
ENDROOT
BRANCH   7  10
ATOM     10  C   UNL     1       1.243   8.654  20.210  0.00  0.00    +0.000 A 
ATOM     11  C   UNL     1       1.722   8.727  18.882  0.00  0.00    +0.000 A 
ATOM     12  N   UNL     1       2.410   7.641  18.518  0.00  0.00    +0.000 NA
ATOM     13  N   UNL     1       2.410   6.868  19.618  0.00  0.00    +0.000 N 
ATOM     14  C   UNL     1       1.707   7.427  20.646  0.00  0.00    +0.000 A 
BRANCH  13  15
ATOM     15  C   UNL     1       3.025   5.542  19.641  0.00  0.00    +0.000 C 
ATOM     16  C   UNL     1       2.980   4.865  18.262  0.00  0.00    +0.000 C 
ATOM     17  C   UNL     1       1.588   4.326  17.947  0.00  0.00    +0.000 C 
ATOM     18  N   UNL     1       1.123   3.401  18.978  0.00  0.00    +0.000 NA
ATOM     19  C   UNL     1       1.088   4.036  20.297  0.00  0.00    +0.000 C 
ATOM     20  C   UNL     1       2.455   4.589  20.702  0.00  0.00    +0.000 C 
ATOM     21  H   UNL     1       1.728   2.581  19.010  0.00  0.00    +0.000 HD
ENDBRANCH  13  15
ENDBRANCH   7  10
BRANCH   1  22
ATOM     22  C   UNL     1      -1.355  13.219  19.614  0.00  0.00    +0.000 C 
BRANCH  22  29
ATOM     23  O   UNL     1       4.011  16.021  18.393  0.00  0.00    +0.000 OA
ATOM     24  C   UNL     1       3.201  15.099  18.396  0.00  0.00    +0.000 A 
ATOM     25  N   UNL     1       3.567  13.813  18.074  0.00  0.00    +0.000 N 
ATOM     26  C   UNL     1       2.698  12.762  18.013  0.00  0.00    +0.000 A 
ATOM     27  C   UNL     1       1.410  12.902  18.343  0.00  0.00    +0.000 A 
ATOM     28  C   UNL     1       0.906  14.194  18.832  0.00  0.00    +0.000 A 
ATOM     29  C   UNL     1      -0.396  14.372  19.353  0.00  0.00    +0.000 A 
ATOM     30  C   UNL     1      -0.819  15.677  19.687  0.00  0.00    +0.000 A 
ATOM     31  C   UNL     1       0.029  16.777  19.541  0.00  0.00    +0.000 A 
ATOM     32  C   UNL     1       1.336  16.589  19.105  0.00  0.00    +0.000 A 
ATOM     33  C   UNL     1       1.774  15.305  18.770  0.00  0.00    +0.000 A 
ATOM     34  H   UNL     1       4.544  13.679  17.842  0.00  0.00    +0.000 HD
ENDBRANCH  22  29
ENDBRANCH   1  22
TORSDOF 4
ENDMDL
MODEL 4
REMARK VINA RESULT:      -8.9      1.137      2.058
REMARK  Name = 
REMARK  4 active torsions:
REMARK  status: ('A' for Active; 'I' for Inactive)
REMARK    1  A    between atoms: C_7  and  C_8
REMARK    2  A    between atoms: C_8  and  C_9
REMARK    3  A    between atoms: C_15  and  C_16
REMARK    4  A    between atoms: N_19  and  C_20
REMARK                            x       y       z     vdW  Elec       q    Type
REMARK                         _______ _______ _______ _____ _____    ______ ____
ROOT
ATOM      1  C   UNL     1       2.237   7.727  18.996  0.00  0.00    +0.000 A 
ATOM      2  N   UNL     1       2.819   7.817  17.814  0.00  0.00    +0.000 NA
ATOM      3  N   UNL     1       2.440   9.011  17.239  0.00  0.00    +0.000 NA
ATOM      4  C   UNL     1       1.660   9.635  18.092  0.00  0.00    +0.000 A 
ATOM      5  C   UNL     1       0.961  10.859  18.035  0.00  0.00    +0.000 A 
ATOM      6  C   UNL     1       0.270  11.267  19.110  0.00  0.00    +0.000 A 
ATOM      7  C   UNL     1       0.319  10.389  20.309  0.00  0.00    +0.000 A 
ATOM      8  N   UNL     1       0.906   9.235  20.394  0.00  0.00    +0.000 NA
ATOM      9  N   UNL     1       1.547   8.887  19.246  0.00  0.00    +0.000 N 
ENDROOT
BRANCH   7  10
ATOM     10  C   UNL     1      -0.333  10.888  21.503  0.00  0.00    +0.000 A 
ATOM     11  C   UNL     1      -0.677  10.274  22.729  0.00  0.00    +0.000 A 
ATOM     12  N   UNL     1      -1.316  11.100  23.563  0.00  0.00    +0.000 NA
ATOM     13  N   UNL     1      -1.363  12.267  22.896  0.00  0.00    +0.000 N 
ATOM     14  C   UNL     1      -0.804  12.178  21.654  0.00  0.00    +0.000 A 
BRANCH  13  15
ATOM     15  C   UNL     1      -2.030  13.449  23.438  0.00  0.00    +0.000 C 
ATOM     16  C   UNL     1      -3.424  13.118  23.994  0.00  0.00    +0.000 C 
ATOM     17  C   UNL     1      -4.443  12.931  22.874  0.00  0.00    +0.000 C 
ATOM     18  N   UNL     1      -4.512  14.104  22.006  0.00  0.00    +0.000 NA
ATOM     19  C   UNL     1      -3.212  14.409  21.405  0.00  0.00    +0.000 C 
ATOM     20  C   UNL     1      -2.131  14.632  22.463  0.00  0.00    +0.000 C 
ATOM     21  H   UNL     1      -4.840  14.911  22.536  0.00  0.00    +0.000 HD
ENDBRANCH  13  15
ENDBRANCH   7  10
BRANCH   1  22
ATOM     22  C   UNL     1       2.273   6.565  19.933  0.00  0.00    +0.000 C 
BRANCH  22  29
ATOM     23  O   UNL     1       3.927   0.805  18.445  0.00  0.00    +0.000 OA
ATOM     24  C   UNL     1       3.154   1.743  18.616  0.00  0.00    +0.000 A 
ATOM     25  N   UNL     1       1.791   1.560  18.642  0.00  0.00    +0.000 N 
ATOM     26  C   UNL     1       0.886   2.573  18.778  0.00  0.00    +0.000 A 
ATOM     27  C   UNL     1       1.276   3.837  18.974  0.00  0.00    +0.000 A 
ATOM     28  C   UNL     1       2.706   4.160  19.097  0.00  0.00    +0.000 A 
ATOM     29  C   UNL     1       3.183   5.438  19.468  0.00  0.00    +0.000 A 
ATOM     30  C   UNL     1       4.574   5.674  19.444  0.00  0.00    +0.000 A 
ATOM     31  C   UNL     1       5.478   4.667  19.095  0.00  0.00    +0.000 A 
ATOM     32  C   UNL     1       5.012   3.389  18.809  0.00  0.00    +0.000 A 
ATOM     33  C   UNL     1       3.638   3.135  18.827  0.00  0.00    +0.000 A 
ATOM     34  H   UNL     1       1.472   0.607  18.518  0.00  0.00    +0.000 HD
ENDBRANCH  22  29
ENDBRANCH   1  22
TORSDOF 4
ENDMDL
MODEL 5
REMARK VINA RESULT:      -8.8      3.278      9.373
REMARK  Name = 
REMARK  4 active torsions:
REMARK  status: ('A' for Active; 'I' for Inactive)
REMARK    1  A    between atoms: C_7  and  C_8
REMARK    2  A    between atoms: C_8  and  C_9
REMARK    3  A    between atoms: C_15  and  C_16
REMARK    4  A    between atoms: N_19  and  C_20
REMARK                            x       y       z     vdW  Elec       q    Type
REMARK                         _______ _______ _______ _____ _____    ______ ____
ROOT
ATOM      1  C   UNL     1      -0.426  11.706  20.494  0.00  0.00    +0.000 A 
ATOM      2  N   UNL     1      -0.748  12.202  21.676  0.00  0.00    +0.000 NA
ATOM      3  N   UNL     1      -0.339  11.308  22.642  0.00  0.00    +0.000 NA
ATOM      4  C   UNL     1       0.249  10.303  22.033  0.00  0.00    +0.000 A 
ATOM      5  C   UNL     1       0.824   9.102  22.498  0.00  0.00    +0.000 A 
ATOM      6  C   UNL     1       1.407   8.274  21.620  0.00  0.00    +0.000 A 
ATOM      7  C   UNL     1       1.425   8.711  20.199  0.00  0.00    +0.000 A 
ATOM      8  N   UNL     1       0.870   9.780  19.716  0.00  0.00    +0.000 NA
ATOM      9  N   UNL     1       0.270  10.537  20.673  0.00  0.00    +0.000 N 
ENDROOT
BRANCH   7  10
ATOM     10  C   UNL     1       2.157   7.870  19.273  0.00  0.00    +0.000 A 
ATOM     11  C   UNL     1       2.697   8.112  17.989  0.00  0.00    +0.000 A 
ATOM     12  N   UNL     1       3.272   7.030  17.456  0.00  0.00    +0.000 NA
ATOM     13  N   UNL     1       3.137   6.085  18.404  0.00  0.00    +0.000 N 
ATOM     14  C   UNL     1       2.459   6.541  19.497  0.00  0.00    +0.000 A 
BRANCH  13  15
ATOM     15  C   UNL     1       3.596   4.711  18.207  0.00  0.00    +0.000 C 
ATOM     16  C   UNL     1       2.569   3.868  17.436  0.00  0.00    +0.000 C 
ATOM     17  C   UNL     1       1.400   3.458  18.327  0.00  0.00    +0.000 C 
ATOM     18  N   UNL     1       1.853   2.739  19.515  0.00  0.00    +0.000 NA
ATOM     19  C   UNL     1       2.783   3.543  20.310  0.00  0.00    +0.000 C 
ATOM     20  C   UNL     1       4.001   3.980  19.496  0.00  0.00    +0.000 C 
ATOM     21  H   UNL     1       2.303   1.865  19.243  0.00  0.00    +0.000 HD
ENDBRANCH  13  15
ENDBRANCH   7  10
BRANCH   1  22
ATOM     22  C   UNL     1      -0.762  12.276  19.156  0.00  0.00    +0.000 C 
BRANCH  22  29
ATOM     23  O   UNL     1      -6.652  10.577  18.410  0.00  0.00    +0.000 OA
ATOM     24  C   UNL     1      -5.727  11.275  18.814  0.00  0.00    +0.000 A 
ATOM     25  N   UNL     1      -5.916  12.237  19.779  0.00  0.00    +0.000 N 
ATOM     26  C   UNL     1      -4.934  13.074  20.228  0.00  0.00    +0.000 A 
ATOM     27  C   UNL     1      -3.673  12.962  19.800  0.00  0.00    +0.000 A 
ATOM     28  C   UNL     1      -3.299  11.892  18.862  0.00  0.00    +0.000 A 
ATOM     29  C   UNL     1      -1.963  11.611  18.498  0.00  0.00    +0.000 A 
ATOM     30  C   UNL     1      -1.723  10.640  17.503  0.00  0.00    +0.000 A 
ATOM     31  C   UNL     1      -2.771   9.937  16.903  0.00  0.00    +0.000 A 
ATOM     32  C   UNL     1      -4.078  10.157  17.320  0.00  0.00    +0.000 A 
ATOM     33  C   UNL     1      -4.337  11.115  18.304  0.00  0.00    +0.000 A 
ATOM     34  H   UNL     1      -6.860  12.325  20.134  0.00  0.00    +0.000 HD
ENDBRANCH  22  29
ENDBRANCH   1  22
TORSDOF 4
ENDMDL
MODEL 6
REMARK VINA RESULT:      -8.8      4.166      9.741
REMARK  Name = 
REMARK  4 active torsions:
REMARK  status: ('A' for Active; 'I' for Inactive)
REMARK    1  A    between atoms: C_7  and  C_8
REMARK    2  A    between atoms: C_8  and  C_9
REMARK    3  A    between atoms: C_15  and  C_16
REMARK    4  A    between atoms: N_19  and  C_20
REMARK                            x       y       z     vdW  Elec       q    Type
REMARK                         _______ _______ _______ _____ _____    ______ ____
ROOT
ATOM      1  C   UNL     1      -0.710  12.336  20.676  0.00  0.00    +0.000 A 
ATOM      2  N   UNL     1      -1.199  12.955  21.735  0.00  0.00    +0.000 NA
ATOM      3  N   UNL     1      -1.129  12.092  22.807  0.00  0.00    +0.000 NA
ATOM      4  C   UNL     1      -0.575  10.978  22.387  0.00  0.00    +0.000 A 
ATOM      5  C   UNL     1      -0.283   9.752  23.021  0.00  0.00    +0.000 A 
ATOM      6  C   UNL     1       0.349   8.792  22.329  0.00  0.00    +0.000 A 
ATOM      7  C   UNL     1       0.723   9.116  20.927  0.00  0.00    +0.000 A 
ATOM      8  N   UNL     1       0.437  10.207  20.287  0.00  0.00    +0.000 NA
ATOM      9  N   UNL     1      -0.238  11.105  21.054  0.00  0.00    +0.000 N 
ENDROOT
BRANCH   7  10
ATOM     10  C   UNL     1       1.507   8.122  20.221  0.00  0.00    +0.000 A 
ATOM     11  C   UNL     1       2.123   8.121  18.949  0.00  0.00    +0.000 A 
ATOM     12  N   UNL     1       2.726   6.964  18.664  0.00  0.00    +0.000 NA
ATOM     13  N   UNL     1       2.533   6.214  19.765  0.00  0.00    +0.000 N 
ATOM     14  C   UNL     1       1.793   6.862  20.710  0.00  0.00    +0.000 A 
BRANCH  13  15
ATOM     15  C   UNL     1       3.000   4.832  19.859  0.00  0.00    +0.000 C 
ATOM     16  C   UNL     1       3.043   4.145  18.485  0.00  0.00    +0.000 C 
ATOM     17  C   UNL     1       1.647   3.749  18.014  0.00  0.00    +0.000 C 
ATOM     18  N   UNL     1       0.973   2.891  18.985  0.00  0.00    +0.000 NA
ATOM     19  C   UNL     1       0.855   3.544  20.291  0.00  0.00    +0.000 C 
ATOM     20  C   UNL     1       2.216   3.957  20.849  0.00  0.00    +0.000 C 
ATOM     21  H   UNL     1       1.482   2.013  19.088  0.00  0.00    +0.000 HD
ENDBRANCH  13  15
ENDBRANCH   7  10
BRANCH   1  22
ATOM     22  C   UNL     1      -0.677  12.841  19.271  0.00  0.00    +0.000 C 
BRANCH  22  29
ATOM     23  O   UNL     1       2.893  17.611  17.649  0.00  0.00    +0.000 OA
ATOM     24  C   UNL     1       1.908  17.058  18.128  0.00  0.00    +0.000 A 
ATOM     25  N   UNL     1       0.768  17.759  18.445  0.00  0.00    +0.000 N 
ATOM     26  C   UNL     1      -0.336  17.202  19.026  0.00  0.00    +0.000 A 
ATOM     27  C   UNL     1      -0.412  15.889  19.264  0.00  0.00    +0.000 A 
ATOM     28  C   UNL     1       0.684  14.996  18.856  0.00  0.00    +0.000 A 
ATOM     29  C   UNL     1       0.604  13.587  18.924  0.00  0.00    +0.000 A 
ATOM     30  C   UNL     1       1.753  12.828  18.618  0.00  0.00    +0.000 A 
ATOM     31  C   UNL     1       2.946  13.439  18.224  0.00  0.00    +0.000 A 
ATOM     32  C   UNL     1       3.000  14.820  18.080  0.00  0.00    +0.000 A 
ATOM     33  C   UNL     1       1.872  15.590  18.378  0.00  0.00    +0.000 A 
ATOM     34  H   UNL     1       0.794  18.752  18.253  0.00  0.00    +0.000 HD
ENDBRANCH  22  29
ENDBRANCH   1  22
TORSDOF 4
ENDMDL
MODEL 7
REMARK VINA RESULT:      -8.8      3.235      9.645
REMARK  Name = 
REMARK  4 active torsions:
REMARK  status: ('A' for Active; 'I' for Inactive)
REMARK    1  A    between atoms: C_7  and  C_8
REMARK    2  A    between atoms: C_8  and  C_9
REMARK    3  A    between atoms: C_15  and  C_16
REMARK    4  A    between atoms: N_19  and  C_20
REMARK                            x       y       z     vdW  Elec       q    Type
REMARK                         _______ _______ _______ _____ _____    ______ ____
ROOT
ATOM      1  C   UNL     1      -0.853  11.955  20.909  0.00  0.00    +0.000 A 
ATOM      2  N   UNL     1      -1.209  12.384  22.106  0.00  0.00    +0.000 NA
ATOM      3  N   UNL     1      -0.798  11.454  23.036  0.00  0.00    +0.000 NA
ATOM      4  C   UNL     1      -0.177  10.492  22.390  0.00  0.00    +0.000 A 
ATOM      5  C   UNL     1       0.415   9.282  22.809  0.00  0.00    +0.000 A 
ATOM      6  C   UNL     1       1.034   8.511  21.903  0.00  0.00    +0.000 A 
ATOM      7  C   UNL     1       1.069   9.017  20.505  0.00  0.00    +0.000 A 
ATOM      8  N   UNL     1       0.500  10.096  20.064  0.00  0.00    +0.000 NA
ATOM      9  N   UNL     1      -0.136  10.793  21.044  0.00  0.00    +0.000 N 
ENDROOT
BRANCH   7  10
ATOM     10  C   UNL     1       1.836   8.239  19.554  0.00  0.00    +0.000 A 
ATOM     11  C   UNL     1       2.279   8.507  18.239  0.00  0.00    +0.000 A 
ATOM     12  N   UNL     1       2.938   7.481  17.693  0.00  0.00    +0.000 NA
ATOM     13  N   UNL     1       2.956   6.549  18.663  0.00  0.00    +0.000 N 
ATOM     14  C   UNL     1       2.292   6.954  19.784  0.00  0.00    +0.000 A 
BRANCH  13  15
ATOM     15  C   UNL     1       3.548   5.228  18.464  0.00  0.00    +0.000 C 
ATOM     16  C   UNL     1       4.695   4.958  19.451  0.00  0.00    +0.000 C 
ATOM     17  C   UNL     1       5.966   5.701  19.049  0.00  0.00    +0.000 C 
ATOM     18  N   UNL     1       6.380   5.363  17.690  0.00  0.00    +0.000 NA
ATOM     19  C   UNL     1       5.333   5.671  16.713  0.00  0.00    +0.000 C 
ATOM     20  C   UNL     1       4.025   4.948  17.031  0.00  0.00    +0.000 C 
ATOM     21  H   UNL     1       6.618   4.373  17.634  0.00  0.00    +0.000 HD
ENDBRANCH  13  15
ENDBRANCH   7  10
BRANCH   1  22
ATOM     22  C   UNL     1      -1.177  12.581  19.593  0.00  0.00    +0.000 C 
BRANCH  22  29
ATOM     23  O   UNL     1      -6.896  10.489  18.574  0.00  0.00    +0.000 OA
ATOM     24  C   UNL     1      -6.038  11.219  19.060  0.00  0.00    +0.000 A 
ATOM     25  N   UNL     1      -6.317  12.067  20.107  0.00  0.00    +0.000 N 
ATOM     26  C   UNL     1      -5.413  12.934  20.651  0.00  0.00    +0.000 A 
ATOM     27  C   UNL     1      -4.142  12.966  20.240  0.00  0.00    +0.000 A 
ATOM     28  C   UNL     1      -3.670  12.023  19.214  0.00  0.00    +0.000 A 
ATOM     29  C   UNL     1      -2.311  11.887  18.852  0.00  0.00    +0.000 A 
ATOM     30  C   UNL     1      -1.979  11.037  17.776  0.00  0.00    +0.000 A 
ATOM     31  C   UNL     1      -2.958  10.312  17.092  0.00  0.00    +0.000 A 
ATOM     32  C   UNL     1      -4.284  10.384  17.502  0.00  0.00    +0.000 A 
ATOM     33  C   UNL     1      -4.633  11.221  18.566  0.00  0.00    +0.000 A 
ATOM     34  H   UNL     1      -7.269  12.044  20.450  0.00  0.00    +0.000 HD
ENDBRANCH  22  29
ENDBRANCH   1  22
TORSDOF 4
ENDMDL
MODEL 8
REMARK VINA RESULT:      -8.8      3.431     10.050
REMARK  Name = 
REMARK  4 active torsions:
REMARK  status: ('A' for Active; 'I' for Inactive)
REMARK    1  A    between atoms: C_7  and  C_8
REMARK    2  A    between atoms: C_8  and  C_9
REMARK    3  A    between atoms: C_15  and  C_16
REMARK    4  A    between atoms: N_19  and  C_20
REMARK                            x       y       z     vdW  Elec       q    Type
REMARK                         _______ _______ _______ _____ _____    ______ ____
ROOT
ATOM      1  C   UNL     1      -0.132  10.487  20.128  0.00  0.00    +0.000 A 
ATOM      2  N   UNL     1      -0.657  10.667  21.327  0.00  0.00    +0.000 NA
ATOM      3  N   UNL     1      -0.317   9.586  22.110  0.00  0.00    +0.000 NA
ATOM      4  C   UNL     1       0.430   8.785  21.384  0.00  0.00    +0.000 A 
ATOM      5  C   UNL     1       1.028   7.534  21.642  0.00  0.00    +0.000 A 
ATOM      6  C   UNL     1       1.795   6.970  20.697  0.00  0.00    +0.000 A 
ATOM      7  C   UNL     1       1.978   7.738  19.437  0.00  0.00    +0.000 A 
ATOM      8  N   UNL     1       1.412   8.866  19.136  0.00  0.00    +0.000 NA
ATOM      9  N   UNL     1       0.623   9.342  20.136  0.00  0.00    +0.000 N 
ENDROOT
BRANCH   7  10
ATOM     10  C   UNL     1       2.898   7.180  18.467  0.00  0.00    +0.000 A 
ATOM     11  C   UNL     1       3.566   7.740  17.355  0.00  0.00    +0.000 A 
ATOM     12  N   UNL     1       4.307   6.849  16.690  0.00  0.00    +0.000 NA
ATOM     13  N   UNL     1       4.151   5.708  17.387  0.00  0.00    +0.000 N 
ATOM     14  C   UNL     1       3.301   5.858  18.444  0.00  0.00    +0.000 A 
BRANCH  13  15
ATOM     15  C   UNL     1       4.765   4.449  16.970  0.00  0.00    +0.000 C 
ATOM     16  C   UNL     1       5.861   3.994  17.946  0.00  0.00    +0.000 C 
ATOM     17  C   UNL     1       7.144   4.798  17.761  0.00  0.00    +0.000 C 
ATOM     18  N   UNL     1       7.632   4.727  16.386  0.00  0.00    +0.000 NA
ATOM     19  C   UNL     1       6.634   5.219  15.433  0.00  0.00    +0.000 C 
ATOM     20  C   UNL     1       5.317   4.449  15.536  0.00  0.00    +0.000 C 
ATOM     21  H   UNL     1       7.881   3.766  16.153  0.00  0.00    +0.000 HD
ENDBRANCH  13  15
ENDBRANCH   7  10
BRANCH   1  22
ATOM     22  C   UNL     1      -0.321  11.348  18.922  0.00  0.00    +0.000 C 
BRANCH  22  29
ATOM     23  O   UNL     1      -6.419  11.134  17.971  0.00  0.00    +0.000 OA
ATOM     24  C   UNL     1      -5.374  11.539  18.470  0.00  0.00    +0.000 A 
ATOM     25  N   UNL     1      -5.371  12.360  19.574  0.00  0.00    +0.000 N 
ATOM     26  C   UNL     1      -4.241  12.880  20.139  0.00  0.00    +0.000 A 
ATOM     27  C   UNL     1      -3.024  12.558  19.688  0.00  0.00    +0.000 A 
ATOM     28  C   UNL     1      -2.872  11.587  18.594  0.00  0.00    +0.000 A 
ATOM     29  C   UNL     1      -1.621  11.075  18.179  0.00  0.00    +0.000 A 
ATOM     30  C   UNL     1      -1.575  10.238  17.044  0.00  0.00    +0.000 A 
ATOM     31  C   UNL     1      -2.736   9.886  16.351  0.00  0.00    +0.000 A 
ATOM     32  C   UNL     1      -3.973  10.324  16.808  0.00  0.00    +0.000 A 
ATOM     33  C   UNL     1      -4.040  11.154  17.931  0.00  0.00    +0.000 A 
ATOM     34  H   UNL     1      -6.281  12.600  19.946  0.00  0.00    +0.000 HD
ENDBRANCH  22  29
ENDBRANCH   1  22
TORSDOF 4
ENDMDL
MODEL 9
REMARK VINA RESULT:      -8.8      0.952      1.151
REMARK  Name = 
REMARK  4 active torsions:
REMARK  status: ('A' for Active; 'I' for Inactive)
REMARK    1  A    between atoms: C_7  and  C_8
REMARK    2  A    between atoms: C_8  and  C_9
REMARK    3  A    between atoms: C_15  and  C_16
REMARK    4  A    between atoms: N_19  and  C_20
REMARK                            x       y       z     vdW  Elec       q    Type
REMARK                         _______ _______ _______ _____ _____    ______ ____
ROOT
ATOM      1  C   UNL     1       2.038   7.809  19.436  0.00  0.00    +0.000 A 
ATOM      2  N   UNL     1       2.440   7.674  18.185  0.00  0.00    +0.000 NA
ATOM      3  N   UNL     1       1.872   8.684  17.440  0.00  0.00    +0.000 NA
ATOM      4  C   UNL     1       1.159   9.429  18.255  0.00  0.00    +0.000 A 
ATOM      5  C   UNL     1       0.343  10.562  18.054  0.00  0.00    +0.000 A 
ATOM      6  C   UNL     1      -0.231  11.150  19.114  0.00  0.00    +0.000 A 
ATOM      7  C   UNL     1       0.068  10.563  20.447  0.00  0.00    +0.000 A 
ATOM      8  N   UNL     1       0.771   9.498  20.678  0.00  0.00    +0.000 NA
ATOM      9  N   UNL     1       1.279   8.948  19.543  0.00  0.00    +0.000 N 
ENDROOT
BRANCH   7  10
ATOM     10  C   UNL     1      -0.459  11.269  21.597  0.00  0.00    +0.000 A 
ATOM     11  C   UNL     1      -1.049  10.823  22.802  0.00  0.00    +0.000 A 
ATOM     12  N   UNL     1      -1.440  11.827  23.592  0.00  0.00    +0.000 NA
ATOM     13  N   UNL     1      -1.077  12.934  22.920  0.00  0.00    +0.000 N 
ATOM     14  C   UNL     1      -0.506  12.645  21.715  0.00  0.00    +0.000 A 
BRANCH  13  15
ATOM     15  C   UNL     1      -1.366  14.278  23.416  0.00  0.00    +0.000 C 
ATOM     16  C   UNL     1      -2.599  14.299  24.334  0.00  0.00    +0.000 C 
ATOM     17  C   UNL     1      -3.894  14.206  23.533  0.00  0.00    +0.000 C 
ATOM     18  N   UNL     1      -3.989  15.270  22.536  0.00  0.00    +0.000 NA
ATOM     19  C   UNL     1      -2.862  15.237  21.602  0.00  0.00    +0.000 C 
ATOM     20  C   UNL     1      -1.519  15.346  22.323  0.00  0.00    +0.000 C 
ATOM     21  H   UNL     1      -4.023  16.178  22.998  0.00  0.00    +0.000 HD
ENDBRANCH  13  15
ENDBRANCH   7  10
BRANCH   1  22
ATOM     22  C   UNL     1       2.315   6.887  20.577  0.00  0.00    +0.000 C 
BRANCH  22  29
ATOM     23  O   UNL     1       3.651   1.483  17.904  0.00  0.00    +0.000 OA
ATOM     24  C   UNL     1       3.883   2.599  18.359  0.00  0.00    +0.000 A 
ATOM     25  N   UNL     1       5.079   3.239  18.127  0.00  0.00    +0.000 N 
ATOM     26  C   UNL     1       5.409   4.457  18.649  0.00  0.00    +0.000 A 
ATOM     27  C   UNL     1       4.540   5.161  19.382  0.00  0.00    +0.000 A 
ATOM     28  C   UNL     1       3.176   4.656  19.602  0.00  0.00    +0.000 A 
ATOM     29  C   UNL     1       2.158   5.416  20.221  0.00  0.00    +0.000 A 
ATOM     30  C   UNL     1       0.918   4.796  20.489  0.00  0.00    +0.000 A 
ATOM     31  C   UNL     1       0.675   3.469  20.128  0.00  0.00    +0.000 A 
ATOM     32  C   UNL     1       1.649   2.748  19.447  0.00  0.00    +0.000 A 
ATOM     33  C   UNL     1       2.883   3.344  19.173  0.00  0.00    +0.000 A 
ATOM     34  H   UNL     1       5.745   2.734  17.556  0.00  0.00    +0.000 HD
ENDBRANCH  22  29
ENDBRANCH   1  22
TORSDOF 4
ENDMDL
