MODEL 1
REMARK VINA RESULT:      -8.0      0.000      0.000
REMARK  Name = 
REMARK  5 active torsions:
REMARK  status: ('A' for Active; 'I' for Inactive)
REMARK    1  A    between atoms: C_1  and  C_2
REMARK    2  A    between atoms: C_7  and  C_8
REMARK    3  A    between atoms: C_20  and  N_21
REMARK    4  A    between atoms: C_23  and  C_24
REMARK    5  A    between atoms: C_26  and  C_27
REMARK                            x       y       z     vdW  Elec       q    Type
REMARK                         _______ _______ _______ _____ _____    ______ ____
ROOT
ATOM      1  C   UNL     1      -2.542  11.510  17.455  0.00  0.00    +0.000 C 
ATOM      2  C   UNL     1      -1.378  11.647  18.384  0.00  0.00    +0.000 A 
ATOM      3  N   UNL     1      -1.177  10.702  19.315  0.00  0.00    +0.000 NA
ATOM      4  C   UNL     1      -0.115  10.836  20.129  0.00  0.00    +0.000 A 
ATOM      5  N   UNL     1       0.103   9.859  21.115  0.00  0.00    +0.000 N 
ATOM      6  C   UNL     1       1.328   9.499  21.749  0.00  0.00    +0.000 C 
ATOM      7  C   UNL     1       0.902   8.020  21.695  0.00  0.00    +0.000 C 
ATOM      8  C   UNL     1      -0.441   8.539  21.149  0.00  0.00    +0.000 C 
ATOM      9  C   UNL     1       0.760  11.898  20.003  0.00  0.00    +0.000 A 
ATOM     10  C   UNL     1       0.503  12.808  18.999  0.00  0.00    +0.000 A 
ATOM     11  N   UNL     1      -0.573  12.700  18.189  0.00  0.00    +0.000 NA
ENDROOT
BRANCH   7  12
ATOM     12  C   UNL     1       1.727   7.204  20.701  0.00  0.00    +0.000 A 
ATOM     13  N   UNL     1       2.163   7.697  19.560  0.00  0.00    +0.000 NA
ATOM     14  C   UNL     1       2.865   6.677  18.965  0.00  0.00    +0.000 A 
ATOM     15  C   UNL     1       3.552   6.645  17.740  0.00  0.00    +0.000 A 
ATOM     16  C   UNL     1       4.219   5.468  17.369  0.00  0.00    +0.000 A 
ATOM     17  C   UNL     1       4.198   4.343  18.197  0.00  0.00    +0.000 A 
ATOM     18  C   UNL     1       3.507   4.368  19.408  0.00  0.00    +0.000 A 
ATOM     19  F   UNL     1       3.485   3.292  20.203  0.00  0.00    +0.000 F 
ATOM     20  C   UNL     1       2.852   5.541  19.764  0.00  0.00    +0.000 A 
ATOM     21  N   UNL     1       2.104   5.893  20.856  0.00  0.00    +0.000 N 
ATOM     22  H   UNL     1       1.895   5.299  21.646  0.00  0.00    +0.000 HD
ENDBRANCH   7  12
BRANCH  10  23
ATOM     23  N   UNL     1       1.416  13.876  18.771  0.00  0.00    +0.000 N 
ATOM     24  N   UNL     1       2.707  13.659  18.392  0.00  0.00    +0.000 NA
ATOM     25  C   UNL     1       3.158  14.901  18.190  0.00  0.00    +0.000 A 
ATOM     26  C   UNL     1       4.527  15.207  17.727  0.00  0.00    +0.000 C 
ATOM     27  N   UNL     1       2.262  15.892  18.459  0.00  0.00    +0.000 NA
ATOM     28  C   UNL     1       1.181  15.240  18.839  0.00  0.00    +0.000 A 
ATOM     29  C   UNL     1      -0.082  15.863  19.301  0.00  0.00    +0.000 C 
ENDBRANCH  10  23
TORSDOF 2
ENDMDL
MODEL 2
REMARK VINA RESULT:      -7.8      1.026      1.492
REMARK  Name = 
REMARK  5 active torsions:
REMARK  status: ('A' for Active; 'I' for Inactive)
REMARK    1  A    between atoms: C_1  and  C_2
REMARK    2  A    between atoms: C_7  and  C_8
REMARK    3  A    between atoms: C_20  and  N_21
REMARK    4  A    between atoms: C_23  and  C_24
REMARK    5  A    between atoms: C_26  and  C_27
REMARK                            x       y       z     vdW  Elec       q    Type
REMARK                         _______ _______ _______ _____ _____    ______ ____
ROOT
ATOM      1  C   UNL     1      -2.520  11.569  17.492  0.00  0.00    +0.000 C 
ATOM      2  C   UNL     1      -1.342  11.663  18.408  0.00  0.00    +0.000 A 
ATOM      3  N   UNL     1      -1.166  10.710  19.336  0.00  0.00    +0.000 NA
ATOM      4  C   UNL     1      -0.091  10.806  20.139  0.00  0.00    +0.000 A 
ATOM      5  N   UNL     1       0.103   9.820  21.122  0.00  0.00    +0.000 N 
ATOM      6  C   UNL     1       1.320   9.416  21.743  0.00  0.00    +0.000 C 
ATOM      7  C   UNL     1       0.842   7.953  21.692  0.00  0.00    +0.000 C 
ATOM      8  C   UNL     1      -0.488   8.521  21.159  0.00  0.00    +0.000 C 
ATOM      9  C   UNL     1       0.819  11.836  20.005  0.00  0.00    +0.000 A 
ATOM     10  C   UNL     1       0.584  12.756  19.005  0.00  0.00    +0.000 A 
ATOM     11  N   UNL     1      -0.503  12.687  18.206  0.00  0.00    +0.000 NA
ENDROOT
BRANCH   7  12
ATOM     12  C   UNL     1       1.627   7.110  20.688  0.00  0.00    +0.000 A 
ATOM     13  N   UNL     1       1.765   5.805  20.802  0.00  0.00    +0.000 NA
ATOM     14  C   UNL     1       2.512   5.420  19.716  0.00  0.00    +0.000 A 
ATOM     15  C   UNL     1       2.951   4.143  19.326  0.00  0.00    +0.000 A 
ATOM     16  C   UNL     1       3.691   4.014  18.141  0.00  0.00    +0.000 A 
ATOM     17  C   UNL     1       3.993   5.133  17.362  0.00  0.00    +0.000 A 
ATOM     18  C   UNL     1       3.568   6.403  17.753  0.00  0.00    +0.000 A 
ATOM     19  F   UNL     1       3.857   7.477  17.008  0.00  0.00    +0.000 F 
ATOM     20  C   UNL     1       2.835   6.516  18.928  0.00  0.00    +0.000 A 
ATOM     21  N   UNL     1       2.279   7.586  19.576  0.00  0.00    +0.000 N 
ATOM     22  H   UNL     1       2.318   8.549  19.271  0.00  0.00    +0.000 HD
ENDBRANCH   7  12
BRANCH  10  23
ATOM     23  N   UNL     1       1.532  13.791  18.768  0.00  0.00    +0.000 N 
ATOM     24  N   UNL     1       2.827  13.527  18.432  0.00  0.00    +0.000 NA
ATOM     25  C   UNL     1       3.317  14.750  18.203  0.00  0.00    +0.000 A 
ATOM     26  C   UNL     1       4.705  15.004  17.768  0.00  0.00    +0.000 C 
ATOM     27  N   UNL     1       2.442  15.773  18.416  0.00  0.00    +0.000 NA
ATOM     28  C   UNL     1       1.334  15.163  18.786  0.00  0.00    +0.000 A 
ATOM     29  C   UNL     1       0.077  15.834  19.194  0.00  0.00    +0.000 C 
ENDBRANCH  10  23
TORSDOF 2
ENDMDL
MODEL 3
REMARK VINA RESULT:      -7.8      4.443      7.997
REMARK  Name = 
REMARK  5 active torsions:
REMARK  status: ('A' for Active; 'I' for Inactive)
REMARK    1  A    between atoms: C_1  and  C_2
REMARK    2  A    between atoms: C_7  and  C_8
REMARK    3  A    between atoms: C_20  and  N_21
REMARK    4  A    between atoms: C_23  and  C_24
REMARK    5  A    between atoms: C_26  and  C_27
REMARK                            x       y       z     vdW  Elec       q    Type
REMARK                         _______ _______ _______ _____ _____    ______ ____
ROOT
ATOM      1  C   UNL     1      -3.080  10.082  14.381  0.00  0.00    +0.000 C 
ATOM      2  C   UNL     1      -3.203  10.477  15.817  0.00  0.00    +0.000 A 
ATOM      3  N   UNL     1      -2.142  10.324  16.624  0.00  0.00    +0.000 NA
ATOM      4  C   UNL     1      -2.269  10.700  17.910  0.00  0.00    +0.000 A 
ATOM      5  N   UNL     1      -1.169  10.539  18.769  0.00  0.00    +0.000 N 
ATOM      6  C   UNL     1      -0.869  11.251  19.967  0.00  0.00    +0.000 C 
ATOM      7  C   UNL     1       0.620  11.253  19.573  0.00  0.00    +0.000 C 
ATOM      8  C   UNL     1       0.196  10.363  18.389  0.00  0.00    +0.000 C 
ATOM      9  C   UNL     1      -3.444  11.248  18.386  0.00  0.00    +0.000 A 
ATOM     10  C   UNL     1      -4.477  11.402  17.486  0.00  0.00    +0.000 A 
ATOM     11  N   UNL     1      -4.372  11.008  16.198  0.00  0.00    +0.000 NA
ENDROOT
BRANCH   7  12
ATOM     12  C   UNL     1       1.124  12.642  19.184  0.00  0.00    +0.000 A 
ATOM     13  N   UNL     1       2.317  12.851  18.665  0.00  0.00    +0.000 NA
ATOM     14  C   UNL     1       2.388  14.204  18.443  0.00  0.00    +0.000 A 
ATOM     15  C   UNL     1       3.425  14.978  17.897  0.00  0.00    +0.000 A 
ATOM     16  C   UNL     1       3.235  16.361  17.753  0.00  0.00    +0.000 A 
ATOM     17  C   UNL     1       2.037  16.962  18.149  0.00  0.00    +0.000 A 
ATOM     18  C   UNL     1       1.011  16.197  18.702  0.00  0.00    +0.000 A 
ATOM     19  F   UNL     1      -0.137  16.770  19.082  0.00  0.00    +0.000 F 
ATOM     20  C   UNL     1       1.213  14.828  18.837  0.00  0.00    +0.000 A 
ATOM     21  N   UNL     1       0.429  13.818  19.325  0.00  0.00    +0.000 N 
ATOM     22  H   UNL     1      -0.506  13.920  19.696  0.00  0.00    +0.000 HD
ENDBRANCH   7  12
BRANCH  10  23
ATOM     23  N   UNL     1      -5.681  12.036  17.902  0.00  0.00    +0.000 N 
ATOM     24  N   UNL     1      -5.917  13.361  17.687  0.00  0.00    +0.000 NA
ATOM     25  C   UNL     1      -7.172  13.503  18.126  0.00  0.00    +0.000 A 
ATOM     26  C   UNL     1      -7.914  14.779  18.078  0.00  0.00    +0.000 C 
ATOM     27  N   UNL     1      -7.732  12.376  18.649  0.00  0.00    +0.000 NA
ATOM     28  C   UNL     1      -6.785  11.469  18.520  0.00  0.00    +0.000 A 
ATOM     29  C   UNL     1      -6.867  10.066  18.992  0.00  0.00    +0.000 C 
ENDBRANCH  10  23
TORSDOF 2
ENDMDL
MODEL 4
REMARK VINA RESULT:      -7.7      3.936      7.362
REMARK  Name = 
REMARK  5 active torsions:
REMARK  status: ('A' for Active; 'I' for Inactive)
REMARK    1  A    between atoms: C_1  and  C_2
REMARK    2  A    between atoms: C_7  and  C_8
REMARK    3  A    between atoms: C_20  and  N_21
REMARK    4  A    between atoms: C_23  and  C_24
REMARK    5  A    between atoms: C_26  and  C_27
REMARK                            x       y       z     vdW  Elec       q    Type
REMARK                         _______ _______ _______ _____ _____    ______ ____
ROOT
ATOM      1  C   UNL     1       1.741   3.011  20.368  0.00  0.00    +0.000 C 
ATOM      2  C   UNL     1       2.515   4.253  20.065  0.00  0.00    +0.000 A 
ATOM      3  N   UNL     1       3.821   4.147  19.774  0.00  0.00    +0.000 NA
ATOM      4  C   UNL     1       4.495   5.276  19.488  0.00  0.00    +0.000 A 
ATOM      5  N   UNL     1       5.865   5.182  19.191  0.00  0.00    +0.000 N 
ATOM      6  C   UNL     1       6.668   6.076  18.423  0.00  0.00    +0.000 C 
ATOM      7  C   UNL     1       7.401   4.867  17.812  0.00  0.00    +0.000 C 
ATOM      8  C   UNL     1       6.577   4.010  18.792  0.00  0.00    +0.000 C 
ATOM      9  C   UNL     1       3.866   6.505  19.469  0.00  0.00    +0.000 A 
ATOM     10  C   UNL     1       2.515   6.525  19.746  0.00  0.00    +0.000 A 
ATOM     11  N   UNL     1       1.829   5.404  20.058  0.00  0.00    +0.000 NA
ENDROOT
BRANCH   7  12
ATOM     12  C   UNL     1       7.063   4.657  16.337  0.00  0.00    +0.000 A 
ATOM     13  N   UNL     1       6.062   3.902  15.932  0.00  0.00    +0.000 NA
ATOM     14  C   UNL     1       6.078   3.978  14.561  0.00  0.00    +0.000 A 
ATOM     15  C   UNL     1       5.232   3.381  13.612  0.00  0.00    +0.000 A 
ATOM     16  C   UNL     1       5.450   3.642  12.250  0.00  0.00    +0.000 A 
ATOM     17  C   UNL     1       6.492   4.477  11.842  0.00  0.00    +0.000 A 
ATOM     18  C   UNL     1       7.341   5.062  12.782  0.00  0.00    +0.000 A 
ATOM     19  F   UNL     1       8.340   5.862  12.392  0.00  0.00    +0.000 F 
ATOM     20  C   UNL     1       7.112   4.796  14.126  0.00  0.00    +0.000 A 
ATOM     21  N   UNL     1       7.740   5.201  15.273  0.00  0.00    +0.000 N 
ATOM     22  H   UNL     1       8.541   5.816  15.324  0.00  0.00    +0.000 HD
ENDBRANCH   7  12
BRANCH  10  23
ATOM     23  N   UNL     1       1.801   7.752  19.660  0.00  0.00    +0.000 N 
ATOM     24  N   UNL     1       1.019   8.211  20.679  0.00  0.00    +0.000 NA
ATOM     25  C   UNL     1       0.638   9.411  20.228  0.00  0.00    +0.000 A 
ATOM     26  C   UNL     1      -0.214  10.338  21.000  0.00  0.00    +0.000 C 
ATOM     27  N   UNL     1       1.081   9.727  18.979  0.00  0.00    +0.000 NA
ATOM     28  C   UNL     1       1.792   8.675  18.625  0.00  0.00    +0.000 A 
ATOM     29  C   UNL     1       2.455   8.485  17.313  0.00  0.00    +0.000 C 
ENDBRANCH  10  23
TORSDOF 2
ENDMDL
MODEL 5
REMARK VINA RESULT:      -7.7      0.810      1.381
REMARK  Name = 
REMARK  5 active torsions:
REMARK  status: ('A' for Active; 'I' for Inactive)
REMARK    1  A    between atoms: C_1  and  C_2
REMARK    2  A    between atoms: C_7  and  C_8
REMARK    3  A    between atoms: C_20  and  N_21
REMARK    4  A    between atoms: C_23  and  C_24
REMARK    5  A    between atoms: C_26  and  C_27
REMARK                            x       y       z     vdW  Elec       q    Type
REMARK                         _______ _______ _______ _____ _____    ______ ____
ROOT
ATOM      1  C   UNL     1      -2.981  11.314  17.560  0.00  0.00    +0.000 C 
ATOM      2  C   UNL     1      -1.802  11.542  18.450  0.00  0.00    +0.000 A 
ATOM      3  N   UNL     1      -1.504  10.620  19.379  0.00  0.00    +0.000 NA
ATOM      4  C   UNL     1      -0.430  10.838  20.159  0.00  0.00    +0.000 A 
ATOM      5  N   UNL     1      -0.110   9.886  21.142  0.00  0.00    +0.000 N 
ATOM      6  C   UNL     1       1.156   9.621  21.740  0.00  0.00    +0.000 C 
ATOM      7  C   UNL     1       0.839   8.114  21.706  0.00  0.00    +0.000 C 
ATOM      8  C   UNL     1      -0.555   8.531  21.199  0.00  0.00    +0.000 C 
ATOM      9  C   UNL     1       0.360  11.960  20.000  0.00  0.00    +0.000 A 
ATOM     10  C   UNL     1       0.007  12.842  19.001  0.00  0.00    +0.000 A 
ATOM     11  N   UNL     1      -1.083  12.649  18.225  0.00  0.00    +0.000 NA
ENDROOT
BRANCH   7  12
ATOM     12  C   UNL     1       1.690   7.354  20.690  0.00  0.00    +0.000 A 
ATOM     13  N   UNL     1       2.092   7.885  19.553  0.00  0.00    +0.000 NA
ATOM     14  C   UNL     1       2.833   6.908  18.935  0.00  0.00    +0.000 A 
ATOM     15  C   UNL     1       3.509   6.928  17.704  0.00  0.00    +0.000 A 
ATOM     16  C   UNL     1       4.225   5.789  17.306  0.00  0.00    +0.000 A 
ATOM     17  C   UNL     1       4.264   4.651  18.115  0.00  0.00    +0.000 A 
ATOM     18  C   UNL     1       3.584   4.625  19.332  0.00  0.00    +0.000 A 
ATOM     19  F   UNL     1       3.620   3.536  20.109  0.00  0.00    +0.000 F 
ATOM     20  C   UNL     1       2.880   5.761  19.714  0.00  0.00    +0.000 A 
ATOM     21  N   UNL     1       2.128   6.059  20.819  0.00  0.00    +0.000 N 
ATOM     22  H   UNL     1       1.954   5.443  21.601  0.00  0.00    +0.000 HD
ENDBRANCH   7  12
BRANCH  10  23
ATOM     23  N   UNL     1       0.831  13.971  18.739  0.00  0.00    +0.000 N 
ATOM     24  N   UNL     1       0.394  15.249  18.924  0.00  0.00    +0.000 NA
ATOM     25  C   UNL     1       1.493  15.966  18.671  0.00  0.00    +0.000 A 
ATOM     26  C   UNL     1       1.546  17.439  18.768  0.00  0.00    +0.000 C 
ATOM     27  N   UNL     1       2.583  15.241  18.292  0.00  0.00    +0.000 NA
ATOM     28  C   UNL     1       2.153  13.995  18.321  0.00  0.00    +0.000 A 
ATOM     29  C   UNL     1       2.943  12.803  17.934  0.00  0.00    +0.000 C 
ENDBRANCH  10  23
TORSDOF 2
ENDMDL
MODEL 6
REMARK VINA RESULT:      -7.5      3.902      7.215
REMARK  Name = 
REMARK  5 active torsions:
REMARK  status: ('A' for Active; 'I' for Inactive)
REMARK    1  A    between atoms: C_1  and  C_2
REMARK    2  A    between atoms: C_7  and  C_8
REMARK    3  A    between atoms: C_20  and  N_21
REMARK    4  A    between atoms: C_23  and  C_24
REMARK    5  A    between atoms: C_26  and  C_27
REMARK                            x       y       z     vdW  Elec       q    Type
REMARK                         _______ _______ _______ _____ _____    ______ ____
ROOT
ATOM      1  C   UNL     1       1.577   3.217  20.264  0.00  0.00    +0.000 C 
ATOM      2  C   UNL     1       2.382   4.438  19.956  0.00  0.00    +0.000 A 
ATOM      3  N   UNL     1       3.693   4.302  19.704  0.00  0.00    +0.000 NA
ATOM      4  C   UNL     1       4.396   5.412  19.414  0.00  0.00    +0.000 A 
ATOM      5  N   UNL     1       5.772   5.287  19.156  0.00  0.00    +0.000 N 
ATOM      6  C   UNL     1       6.612   6.149  18.392  0.00  0.00    +0.000 C 
ATOM      7  C   UNL     1       7.338   4.915  17.826  0.00  0.00    +0.000 C 
ATOM      8  C   UNL     1       6.472   4.094  18.801  0.00  0.00    +0.000 C 
ATOM      9  C   UNL     1       3.791   6.652  19.352  0.00  0.00    +0.000 A 
ATOM     10  C   UNL     1       2.434   6.702  19.591  0.00  0.00    +0.000 A 
ATOM     11  N   UNL     1       1.719   5.601  19.907  0.00  0.00    +0.000 NA
ENDROOT
BRANCH   7  12
ATOM     12  C   UNL     1       7.037   4.680  16.347  0.00  0.00    +0.000 A 
ATOM     13  N   UNL     1       6.054   3.907  15.931  0.00  0.00    +0.000 NA
ATOM     14  C   UNL     1       6.100   3.963  14.559  0.00  0.00    +0.000 A 
ATOM     15  C   UNL     1       5.283   3.342  13.600  0.00  0.00    +0.000 A 
ATOM     16  C   UNL     1       5.529   3.587  12.241  0.00  0.00    +0.000 A 
ATOM     17  C   UNL     1       6.570   4.429  11.843  0.00  0.00    +0.000 A 
ATOM     18  C   UNL     1       7.390   5.038  12.794  0.00  0.00    +0.000 A 
ATOM     19  F   UNL     1       8.388   5.845  12.415  0.00  0.00    +0.000 F 
ATOM     20  C   UNL     1       7.134   4.788  14.136  0.00  0.00    +0.000 A 
ATOM     21  N   UNL     1       7.731   5.217  15.291  0.00  0.00    +0.000 N 
ATOM     22  H   UNL     1       8.522   5.843  15.351  0.00  0.00    +0.000 HD
ENDBRANCH   7  12
BRANCH  10  23
ATOM     23  N   UNL     1       1.745   7.941  19.460  0.00  0.00    +0.000 N 
ATOM     24  N   UNL     1       1.445   8.480  18.244  0.00  0.00    +0.000 NA
ATOM     25  C   UNL     1       0.723   9.554  18.580  0.00  0.00    +0.000 A 
ATOM     26  C   UNL     1       0.124  10.475  17.592  0.00  0.00    +0.000 C 
ATOM     27  N   UNL     1       0.584   9.763  19.919  0.00  0.00    +0.000 NA
ATOM     28  C   UNL     1       1.242   8.757  20.460  0.00  0.00    +0.000 A 
ATOM     29  C   UNL     1       1.446   8.545  21.913  0.00  0.00    +0.000 C 
ENDBRANCH  10  23
TORSDOF 2
ENDMDL
MODEL 7
REMARK VINA RESULT:      -7.4      1.318      2.027
REMARK  Name = 
REMARK  5 active torsions:
REMARK  status: ('A' for Active; 'I' for Inactive)
REMARK    1  A    between atoms: C_1  and  C_2
REMARK    2  A    between atoms: C_7  and  C_8
REMARK    3  A    between atoms: C_20  and  N_21
REMARK    4  A    between atoms: C_23  and  C_24
REMARK    5  A    between atoms: C_26  and  C_27
REMARK                            x       y       z     vdW  Elec       q    Type
REMARK                         _______ _______ _______ _____ _____    ______ ____
ROOT
ATOM      1  C   UNL     1      -2.961  11.322  17.529  0.00  0.00    +0.000 C 
ATOM      2  C   UNL     1      -1.777  11.516  18.422  0.00  0.00    +0.000 A 
ATOM      3  N   UNL     1      -1.514  10.592  19.358  0.00  0.00    +0.000 NA
ATOM      4  C   UNL     1      -0.435  10.779  20.140  0.00  0.00    +0.000 A 
ATOM      5  N   UNL     1      -0.150   9.824  21.131  0.00  0.00    +0.000 N 
ATOM      6  C   UNL     1       1.105   9.521  21.733  0.00  0.00    +0.000 C 
ATOM      7  C   UNL     1       0.737   8.025  21.709  0.00  0.00    +0.000 C 
ATOM      8  C   UNL     1      -0.641   8.485  21.196  0.00  0.00    +0.000 C 
ATOM      9  C   UNL     1       0.393  11.872  19.975  0.00  0.00    +0.000 A 
ATOM     10  C   UNL     1       0.072  12.759  18.969  0.00  0.00    +0.000 A 
ATOM     11  N   UNL     1      -1.021  12.597  18.191  0.00  0.00    +0.000 NA
ENDROOT
BRANCH   7  12
ATOM     12  C   UNL     1       1.565   7.230  20.702  0.00  0.00    +0.000 A 
ATOM     13  N   UNL     1       1.773   5.934  20.810  0.00  0.00    +0.000 NA
ATOM     14  C   UNL     1       2.538   5.593  19.722  0.00  0.00    +0.000 A 
ATOM     15  C   UNL     1       3.045   4.343  19.327  0.00  0.00    +0.000 A 
ATOM     16  C   UNL     1       3.789   4.259  18.141  0.00  0.00    +0.000 A 
ATOM     17  C   UNL     1       4.030   5.396  17.366  0.00  0.00    +0.000 A 
ATOM     18  C   UNL     1       3.538   6.640  17.762  0.00  0.00    +0.000 A 
ATOM     19  F   UNL     1       3.768   7.730  17.022  0.00  0.00    +0.000 F 
ATOM     20  C   UNL     1       2.801   6.708  18.938  0.00  0.00    +0.000 A 
ATOM     21  N   UNL     1       2.189   7.744  19.592  0.00  0.00    +0.000 N 
ATOM     22  H   UNL     1       2.176   8.709  19.290  0.00  0.00    +0.000 HD
ENDBRANCH   7  12
BRANCH  10  23
ATOM     23  N   UNL     1       0.936  13.858  18.701  0.00  0.00    +0.000 N 
ATOM     24  N   UNL     1       0.555  15.149  18.915  0.00  0.00    +0.000 NA
ATOM     25  C   UNL     1       1.676  15.826  18.644  0.00  0.00    +0.000 A 
ATOM     26  C   UNL     1       1.791  17.294  18.760  0.00  0.00    +0.000 C 
ATOM     27  N   UNL     1       2.725  15.063  18.228  0.00  0.00    +0.000 NA
ATOM     28  C   UNL     1       2.246  13.835  18.250  0.00  0.00    +0.000 A 
ATOM     29  C   UNL     1       2.978  12.618  17.827  0.00  0.00    +0.000 C 
ENDBRANCH  10  23
TORSDOF 2
ENDMDL
MODEL 8
REMARK VINA RESULT:      -7.4      3.326      8.496
REMARK  Name = 
REMARK  5 active torsions:
REMARK  status: ('A' for Active; 'I' for Inactive)
REMARK    1  A    between atoms: C_1  and  C_2
REMARK    2  A    between atoms: C_7  and  C_8
REMARK    3  A    between atoms: C_20  and  N_21
REMARK    4  A    between atoms: C_23  and  C_24
REMARK    5  A    between atoms: C_26  and  C_27
REMARK                            x       y       z     vdW  Elec       q    Type
REMARK                         _______ _______ _______ _____ _____    ______ ____
ROOT
ATOM      1  C   UNL     1       4.410   7.143  16.240  0.00  0.00    +0.000 C 
ATOM      2  C   UNL     1       3.560   7.116  17.470  0.00  0.00    +0.000 A 
ATOM      3  N   UNL     1       3.103   8.276  17.966  0.00  0.00    +0.000 NA
ATOM      4  C   UNL     1       2.327   8.228  19.065  0.00  0.00    +0.000 A 
ATOM      5  N   UNL     1       1.848   9.434  19.601  0.00  0.00    +0.000 N 
ATOM      6  C   UNL     1       0.689   9.649  20.403  0.00  0.00    +0.000 C 
ATOM      7  C   UNL     1       0.422  10.959  19.639  0.00  0.00    +0.000 C 
ATOM      8  C   UNL     1       1.768  10.696  18.937  0.00  0.00    +0.000 C 
ATOM      9  C   UNL     1       1.988   7.026  19.655  0.00  0.00    +0.000 A 
ATOM     10  C   UNL     1       2.471   5.877  19.064  0.00  0.00    +0.000 A 
ATOM     11  N   UNL     1       3.270   5.910  17.975  0.00  0.00    +0.000 NA
ENDROOT
BRANCH   7  12
ATOM     12  C   UNL     1      -0.803  10.874  18.731  0.00  0.00    +0.000 A 
ATOM     13  N   UNL     1      -1.941  11.479  19.005  0.00  0.00    +0.000 NA
ATOM     14  C   UNL     1      -2.777  11.177  17.958  0.00  0.00    +0.000 A 
ATOM     15  C   UNL     1      -4.107  11.564  17.722  0.00  0.00    +0.000 A 
ATOM     16  C   UNL     1      -4.738  11.134  16.545  0.00  0.00    +0.000 A 
ATOM     17  C   UNL     1      -4.061  10.331  15.624  0.00  0.00    +0.000 A 
ATOM     18  C   UNL     1      -2.745   9.936  15.862  0.00  0.00    +0.000 A 
ATOM     19  F   UNL     1      -2.095   9.167  14.981  0.00  0.00    +0.000 F 
ATOM     20  C   UNL     1      -2.132  10.371  17.031  0.00  0.00    +0.000 A 
ATOM     21  N   UNL     1      -0.882  10.173  17.553  0.00  0.00    +0.000 N 
ATOM     22  H   UNL     1      -0.142   9.630  17.128  0.00  0.00    +0.000 HD
ENDBRANCH   7  12
BRANCH  10  23
ATOM     23  N   UNL     1       2.086   4.608  19.581  0.00  0.00    +0.000 N 
ATOM     24  N   UNL     1       1.978   4.371  20.919  0.00  0.00    +0.000 NA
ATOM     25  C   UNL     1       1.500   3.123  20.950  0.00  0.00    +0.000 A 
ATOM     26  C   UNL     1       1.175   2.405  22.200  0.00  0.00    +0.000 C 
ATOM     27  N   UNL     1       1.342   2.534  19.732  0.00  0.00    +0.000 NA
ATOM     28  C   UNL     1       1.729   3.465  18.883  0.00  0.00    +0.000 A 
ATOM     29  C   UNL     1       1.805   3.309  17.411  0.00  0.00    +0.000 C 
ENDBRANCH  10  23
TORSDOF 2
ENDMDL
MODEL 9
REMARK VINA RESULT:      -7.3      4.456      7.843
REMARK  Name = 
REMARK  5 active torsions:
REMARK  status: ('A' for Active; 'I' for Inactive)
REMARK    1  A    between atoms: C_1  and  C_2
REMARK    2  A    between atoms: C_7  and  C_8
REMARK    3  A    between atoms: C_20  and  N_21
REMARK    4  A    between atoms: C_23  and  C_24
REMARK    5  A    between atoms: C_26  and  C_27
REMARK                            x       y       z     vdW  Elec       q    Type
REMARK                         _______ _______ _______ _____ _____    ______ ____
ROOT
ATOM      1  C   UNL     1       3.034  16.234  23.267  0.00  0.00    +0.000 C 
ATOM      2  C   UNL     1       3.005  15.492  21.969  0.00  0.00    +0.000 A 
ATOM      3  N   UNL     1       3.858  15.852  20.999  0.00  0.00    +0.000 NA
ATOM      4  C   UNL     1       3.826  15.161  19.844  0.00  0.00    +0.000 A 
ATOM      5  N   UNL     1       4.708  15.531  18.815  0.00  0.00    +0.000 N 
ATOM      6  C   UNL     1       5.209  14.731  17.747  0.00  0.00    +0.000 C 
ATOM      7  C   UNL     1       6.583  15.408  17.906  0.00  0.00    +0.000 C 
ATOM      8  C   UNL     1       5.895  16.315  18.944  0.00  0.00    +0.000 C 
ATOM      9  C   UNL     1       2.962  14.098  19.665  0.00  0.00    +0.000 A 
ATOM     10  C   UNL     1       2.141  13.770  20.724  0.00  0.00    +0.000 A 
ATOM     11  N   UNL     1       2.145  14.470  21.880  0.00  0.00    +0.000 NA
ENDROOT
BRANCH   7  12
ATOM     12  C   UNL     1       7.642  14.467  18.477  0.00  0.00    +0.000 A 
ATOM     13  N   UNL     1       7.850  14.325  19.770  0.00  0.00    +0.000 NA
ATOM     14  C   UNL     1       8.856  13.396  19.879  0.00  0.00    +0.000 A 
ATOM     15  C   UNL     1       9.471  12.857  21.022  0.00  0.00    +0.000 A 
ATOM     16  C   UNL     1      10.473  11.889  20.859  0.00  0.00    +0.000 A 
ATOM     17  C   UNL     1      10.859  11.469  19.584  0.00  0.00    +0.000 A 
ATOM     18  C   UNL     1      10.258  12.011  18.447  0.00  0.00    +0.000 A 
ATOM     19  F   UNL     1      10.627  11.610  17.225  0.00  0.00    +0.000 F 
ATOM     20  C   UNL     1       9.266  12.968  18.624  0.00  0.00    +0.000 A 
ATOM     21  N   UNL     1       8.494  13.678  17.745  0.00  0.00    +0.000 N 
ATOM     22  H   UNL     1       8.528  13.608  16.737  0.00  0.00    +0.000 HD
ENDBRANCH   7  12
BRANCH  10  23
ATOM     23  N   UNL     1       1.289  12.635  20.624  0.00  0.00    +0.000 N 
ATOM     24  N   UNL     1       1.476  11.518  21.383  0.00  0.00    +0.000 NA
ATOM     25  C   UNL     1       0.418  10.769  21.054  0.00  0.00    +0.000 A 
ATOM     26  C   UNL     1       0.141   9.444  21.645  0.00  0.00    +0.000 C 
ATOM     27  N   UNL     1      -0.400  11.308  20.107  0.00  0.00    +0.000 NA
ATOM     28  C   UNL     1       0.164  12.468  19.832  0.00  0.00    +0.000 A 
ATOM     29  C   UNL     1      -0.307  13.433  18.810  0.00  0.00    +0.000 C 
ENDBRANCH  10  23
TORSDOF 2
ENDMDL
