MODEL 1
REMARK VINA RESULT:      -5.5      0.000      0.000
REMARK  Name = 
REMARK  2 active torsions:
REMARK  status: ('A' for Active; 'I' for Inactive)
REMARK    1  A    between atoms: C_1  and  N_2
REMARK    2  A    between atoms: C_9  and  O_10
REMARK                            x       y       z     vdW  Elec       q    Type
REMARK                         _______ _______ _______ _____ _____    ______ ____
ROOT
ATOM      1  C   UNL     1       3.692   1.667  18.651  0.00  0.00    +0.000 C 
ATOM      2  N   UNL     1       3.105   2.358  19.794  0.00  0.00    +0.000 NA
ATOM      3  C   UNL     1       3.275   3.817  19.798  0.00  0.00    +0.000 C 
ATOM      4  C   UNL     1       2.732   4.485  18.531  0.00  0.00    +0.000 C 
ATOM      5  C   UNL     1       1.438   3.874  18.036  0.00  0.00    +0.000 C 
ATOM      6  O   UNL     1       0.871   4.355  17.046  0.00  0.00    +0.000 OA
ATOM      7  C   UNL     1       0.878   2.628  18.691  0.00  0.00    +0.000 C 
ATOM      8  C   UNL     1       1.647   2.199  19.942  0.00  0.00    +0.000 C 
ATOM      9  C   UNL     1       1.352   3.160  21.114  0.00  0.00    +0.000 C 
ATOM     10  C   UNL     1       2.451   4.221  21.028  0.00  0.00    +0.000 C 
ENDROOT
BRANCH   9  11
ATOM     11  O   UNL     1       1.449   2.482  22.363  0.00  0.00    +0.000 OA
ATOM     12  H   UNL     1       2.258   1.937  22.321  0.00  0.00    +0.000 HD
ENDBRANCH   9  11
TORSDOF 1
ENDMDL
MODEL 2
REMARK VINA RESULT:      -5.5      2.091      3.120
REMARK  Name = 
REMARK  2 active torsions:
REMARK  status: ('A' for Active; 'I' for Inactive)
REMARK    1  A    between atoms: C_1  and  N_2
REMARK    2  A    between atoms: C_9  and  O_10
REMARK                            x       y       z     vdW  Elec       q    Type
REMARK                         _______ _______ _______ _____ _____    ______ ____
ROOT
ATOM      1  C   UNL     1       1.926   5.451  20.453  0.00  0.00    +0.000 C 
ATOM      2  N   UNL     1       3.012   4.510  20.193  0.00  0.00    +0.000 NA
ATOM      3  C   UNL     1       2.840   3.178  20.786  0.00  0.00    +0.000 C 
ATOM      4  C   UNL     1       1.535   2.498  20.360  0.00  0.00    +0.000 C 
ATOM      5  C   UNL     1       1.180   2.734  18.907  0.00  0.00    +0.000 C 
ATOM      6  O   UNL     1       0.173   2.198  18.426  0.00  0.00    +0.000 OA
ATOM      7  C   UNL     1       2.000   3.686  18.061  0.00  0.00    +0.000 C 
ATOM      8  C   UNL     1       3.251   4.208  18.771  0.00  0.00    +0.000 C 
ATOM      9  C   UNL     1       4.320   3.097  18.871  0.00  0.00    +0.000 C 
ATOM     10  C   UNL     1       4.057   2.431  20.222  0.00  0.00    +0.000 C 
ENDROOT
BRANCH   9  11
ATOM     11  O   UNL     1       5.632   3.654  18.868  0.00  0.00    +0.000 OA
ATOM     12  H   UNL     1       5.572   4.503  18.390  0.00  0.00    +0.000 HD
ENDBRANCH   9  11
TORSDOF 1
ENDMDL
MODEL 3
REMARK VINA RESULT:      -5.4      1.932      2.647
REMARK  Name = 
REMARK  2 active torsions:
REMARK  status: ('A' for Active; 'I' for Inactive)
REMARK    1  A    between atoms: C_1  and  N_2
REMARK    2  A    between atoms: C_9  and  O_10
REMARK                            x       y       z     vdW  Elec       q    Type
REMARK                         _______ _______ _______ _____ _____    ______ ____
ROOT
ATOM      1  C   UNL     1       4.447   5.776  18.769  0.00  0.00    +0.000 C 
ATOM      2  N   UNL     1       4.285   4.468  19.395  0.00  0.00    +0.000 NA
ATOM      3  C   UNL     1       3.041   4.288  20.156  0.00  0.00    +0.000 C 
ATOM      4  C   UNL     1       1.786   4.554  19.320  0.00  0.00    +0.000 C 
ATOM      5  C   UNL     1       1.888   4.037  17.900  0.00  0.00    +0.000 C 
ATOM      6  O   UNL     1       0.921   4.147  17.135  0.00  0.00    +0.000 OA
ATOM      7  C   UNL     1       3.192   3.464  17.384  0.00  0.00    +0.000 C 
ATOM      8  C   UNL     1       4.266   3.325  18.464  0.00  0.00    +0.000 C 
ATOM      9  C   UNL     1       3.928   2.160  19.418  0.00  0.00    +0.000 C 
ATOM     10  C   UNL     1       3.134   2.808  20.553  0.00  0.00    +0.000 C 
ENDROOT
BRANCH   9  11
ATOM     11  O   UNL     1       5.115   1.576  19.949  0.00  0.00    +0.000 OA
ATOM     12  H   UNL     1       5.429   0.933  19.284  0.00  0.00    +0.000 HD
ENDBRANCH   9  11
TORSDOF 1
ENDMDL
MODEL 4
REMARK VINA RESULT:      -5.4      1.742      2.900
REMARK  Name = 
REMARK  2 active torsions:
REMARK  status: ('A' for Active; 'I' for Inactive)
REMARK    1  A    between atoms: C_1  and  N_2
REMARK    2  A    between atoms: C_9  and  O_10
REMARK                            x       y       z     vdW  Elec       q    Type
REMARK                         _______ _______ _______ _____ _____    ______ ____
ROOT
ATOM      1  C   UNL     1       1.067   3.090  20.851  0.00  0.00    +0.000 C 
ATOM      2  N   UNL     1       2.198   2.517  20.127  0.00  0.00    +0.000 NA
ATOM      3  C   UNL     1       2.001   2.363  18.680  0.00  0.00    +0.000 C 
ATOM      4  C   UNL     1       1.631   3.676  17.984  0.00  0.00    +0.000 C 
ATOM      5  C   UNL     1       2.381   4.875  18.524  0.00  0.00    +0.000 C 
ATOM      6  O   UNL     1       2.207   5.990  18.013  0.00  0.00    +0.000 OA
ATOM      7  C   UNL     1       3.278   4.738  19.737  0.00  0.00    +0.000 C 
ATOM      8  C   UNL     1       3.450   3.292  20.206  0.00  0.00    +0.000 C 
ATOM      9  C   UNL     1       4.355   2.509  19.229  0.00  0.00    +0.000 C 
ATOM     10  C   UNL     1       3.386   1.875  18.231  0.00  0.00    +0.000 C 
ENDROOT
BRANCH   9  11
ATOM     11  O   UNL     1       5.068   1.481  19.911  0.00  0.00    +0.000 OA
ATOM     12  H   UNL     1       4.477   1.154  20.616  0.00  0.00    +0.000 HD
ENDBRANCH   9  11
TORSDOF 1
ENDMDL
MODEL 5
REMARK VINA RESULT:      -5.3      1.405      3.585
REMARK  Name = 
REMARK  2 active torsions:
REMARK  status: ('A' for Active; 'I' for Inactive)
REMARK    1  A    between atoms: C_1  and  N_2
REMARK    2  A    between atoms: C_9  and  O_10
REMARK                            x       y       z     vdW  Elec       q    Type
REMARK                         _______ _______ _______ _____ _____    ______ ____
ROOT
ATOM      1  C   UNL     1       4.519   5.241  19.373  0.00  0.00    +0.000 C 
ATOM      2  N   UNL     1       3.518   4.505  18.606  0.00  0.00    +0.000 NA
ATOM      3  C   UNL     1       3.734   3.055  18.524  0.00  0.00    +0.000 C 
ATOM      4  C   UNL     1       3.837   2.388  19.899  0.00  0.00    +0.000 C 
ATOM      5  C   UNL     1       2.869   2.954  20.917  0.00  0.00    +0.000 C 
ATOM      6  O   UNL     1       2.820   2.468  22.054  0.00  0.00    +0.000 OA
ATOM      7  C   UNL     1       2.023   4.164  20.581  0.00  0.00    +0.000 C 
ATOM      8  C   UNL     1       2.139   4.602  19.119  0.00  0.00    +0.000 C 
ATOM      9  C   UNL     1       1.400   3.609  18.196  0.00  0.00    +0.000 C 
ATOM     10  C   UNL     1       2.469   2.597  17.785  0.00  0.00    +0.000 C 
ENDROOT
BRANCH   9  11
ATOM     11  O   UNL     1       0.904   4.269  17.034  0.00  0.00    +0.000 OA
ATOM     12  H   UNL     1       0.787   3.580  16.352  0.00  0.00    +0.000 HD
ENDBRANCH   9  11
TORSDOF 1
ENDMDL
MODEL 6
REMARK VINA RESULT:      -5.3      2.084      2.839
REMARK  Name = 
REMARK  2 active torsions:
REMARK  status: ('A' for Active; 'I' for Inactive)
REMARK    1  A    between atoms: C_1  and  N_2
REMARK    2  A    between atoms: C_9  and  O_10
REMARK                            x       y       z     vdW  Elec       q    Type
REMARK                         _______ _______ _______ _____ _____    ______ ____
ROOT
ATOM      1  C   UNL     1       0.803   2.405  18.831  0.00  0.00    +0.000 C 
ATOM      2  N   UNL     1       2.259   2.509  18.860  0.00  0.00    +0.000 NA
ATOM      3  C   UNL     1       2.817   3.664  18.146  0.00  0.00    +0.000 C 
ATOM      4  C   UNL     1       2.254   5.001  18.637  0.00  0.00    +0.000 C 
ATOM      5  C   UNL     1       2.062   5.058  20.138  0.00  0.00    +0.000 C 
ATOM      6  O   UNL     1       1.656   6.102  20.666  0.00  0.00    +0.000 OA
ATOM      7  C   UNL     1       2.281   3.823  20.987  0.00  0.00    +0.000 C 
ATOM      8  C   UNL     1       2.850   2.638  20.204  0.00  0.00    +0.000 C 
ATOM      9  C   UNL     1       4.336   2.881  19.860  0.00  0.00    +0.000 C 
ATOM     10  C   UNL     1       4.310   3.542  18.482  0.00  0.00    +0.000 C 
ENDROOT
BRANCH   9  11
ATOM     11  O   UNL     1       5.046   1.648  19.778  0.00  0.00    +0.000 OA
ATOM     12  H   UNL     1       5.665   1.734  19.028  0.00  0.00    +0.000 HD
ENDBRANCH   9  11
TORSDOF 1
ENDMDL
MODEL 7
REMARK VINA RESULT:      -5.3      1.914      2.508
REMARK  Name = 
REMARK  2 active torsions:
REMARK  status: ('A' for Active; 'I' for Inactive)
REMARK    1  A    between atoms: C_1  and  N_2
REMARK    2  A    between atoms: C_9  and  O_10
REMARK                            x       y       z     vdW  Elec       q    Type
REMARK                         _______ _______ _______ _____ _____    ______ ____
ROOT
ATOM      1  C   UNL     1       4.061   2.508  20.053  0.00  0.00    +0.000 C 
ATOM      2  N   UNL     1       3.598   3.848  19.707  0.00  0.00    +0.000 NA
ATOM      3  C   UNL     1       3.274   4.051  18.289  0.00  0.00    +0.000 C 
ATOM      4  C   UNL     1       2.230   3.060  17.767  0.00  0.00    +0.000 C 
ATOM      5  C   UNL     1       1.128   2.766  18.764  0.00  0.00    +0.000 C 
ATOM      6  O   UNL     1       0.196   2.015  18.445  0.00  0.00    +0.000 OA
ATOM      7  C   UNL     1       1.201   3.315  20.173  0.00  0.00    +0.000 C 
ATOM      8  C   UNL     1       2.366   4.282  20.390  0.00  0.00    +0.000 C 
ATOM      9  C   UNL     1       2.089   5.631  19.691  0.00  0.00    +0.000 C 
ATOM     10  C   UNL     1       2.714   5.481  18.303  0.00  0.00    +0.000 C 
ENDROOT
BRANCH   9  11
ATOM     11  O   UNL     1       2.726   6.702  20.381  0.00  0.00    +0.000 OA
ATOM     12  H   UNL     1       3.194   6.303  21.140  0.00  0.00    +0.000 HD
ENDBRANCH   9  11
TORSDOF 1
ENDMDL
MODEL 8
REMARK VINA RESULT:      -5.3      1.428      1.977
REMARK  Name = 
REMARK  2 active torsions:
REMARK  status: ('A' for Active; 'I' for Inactive)
REMARK    1  A    between atoms: C_1  and  N_2
REMARK    2  A    between atoms: C_9  and  O_10
REMARK                            x       y       z     vdW  Elec       q    Type
REMARK                         _______ _______ _______ _____ _____    ______ ____
ROOT
ATOM      1  C   UNL     1       4.477   5.289  19.345  0.00  0.00    +0.000 C 
ATOM      2  N   UNL     1       3.350   4.733  20.087  0.00  0.00    +0.000 NA
ATOM      3  C   UNL     1       2.023   5.090  19.570  0.00  0.00    +0.000 C 
ATOM      4  C   UNL     1       1.833   4.710  18.098  0.00  0.00    +0.000 C 
ATOM      5  C   UNL     1       2.455   3.378  17.735  0.00  0.00    +0.000 C 
ATOM      6  O   UNL     1       2.331   2.935  16.586  0.00  0.00    +0.000 OA
ATOM      7  C   UNL     1       3.300   2.626  18.743  0.00  0.00    +0.000 C 
ATOM      8  C   UNL     1       3.297   3.261  20.135  0.00  0.00    +0.000 C 
ATOM      9  C   UNL     1       1.940   3.027  20.834  0.00  0.00    +0.000 C 
ATOM     10  C   UNL     1       1.105   4.256  20.475  0.00  0.00    +0.000 C 
ENDROOT
BRANCH   9  11
ATOM     11  O   UNL     1       2.102   2.964  22.248  0.00  0.00    +0.000 OA
ATOM     12  H   UNL     1       2.582   2.135  22.437  0.00  0.00    +0.000 HD
ENDBRANCH   9  11
TORSDOF 1
ENDMDL
MODEL 9
REMARK VINA RESULT:      -5.3      2.058      3.554
REMARK  Name = 
REMARK  2 active torsions:
REMARK  status: ('A' for Active; 'I' for Inactive)
REMARK    1  A    between atoms: C_1  and  N_2
REMARK    2  A    between atoms: C_9  and  O_10
REMARK                            x       y       z     vdW  Elec       q    Type
REMARK                         _______ _______ _______ _____ _____    ______ ____
ROOT
ATOM      1  C   UNL     1       1.527   3.762  17.987  0.00  0.00    +0.000 C 
ATOM      2  N   UNL     1       2.895   4.156  18.312  0.00  0.00    +0.000 NA
ATOM      3  C   UNL     1       3.016   5.255  19.279  0.00  0.00    +0.000 C 
ATOM      4  C   UNL     1       2.297   4.969  20.601  0.00  0.00    +0.000 C 
ATOM      5  C   UNL     1       2.434   3.533  21.062  0.00  0.00    +0.000 C 
ATOM      6  O   UNL     1       1.938   3.184  22.141  0.00  0.00    +0.000 OA
ATOM      7  C   UNL     1       3.100   2.502  20.174  0.00  0.00    +0.000 C 
ATOM      8  C   UNL     1       3.727   3.098  18.912  0.00  0.00    +0.000 C 
ATOM      9  C   UNL     1       5.010   3.882  19.263  0.00  0.00    +0.000 C 
ATOM     10  C   UNL     1       4.536   5.319  19.484  0.00  0.00    +0.000 C 
ENDROOT
BRANCH   9  11
ATOM     11  O   UNL     1       5.936   3.852  18.180  0.00  0.00    +0.000 OA
ATOM     12  H   UNL     1       6.662   3.259  18.452  0.00  0.00    +0.000 HD
ENDBRANCH   9  11
TORSDOF 1
ENDMDL
