MODEL 1
REMARK VINA RESULT:      -9.0      0.000      0.000
REMARK  Name = 
REMARK  6 active torsions:
REMARK  status: ('A' for Active; 'I' for Inactive)
REMARK    1  A    between atoms: C_1  and  C_2
REMARK    2  A    between atoms: C_2  and  C_3
REMARK    3  A    between atoms: C_2  and  C_9
REMARK    4  A    between atoms: C_3  and  C_4
REMARK    5  A    between atoms: C_13  and  N_14
REMARK    6  A    between atoms: C_21  and  C_22
REMARK                            x       y       z     vdW  Elec       q    Type
REMARK                         _______ _______ _______ _____ _____    ______ ____
ROOT
ATOM      1  C   UNL     1       4.285   5.074  18.144  0.00  0.00    +0.000 A 
ATOM      2  C   UNL     1       3.984   4.014  18.995  0.00  0.00    +0.000 A 
ATOM      3  C   UNL     1       3.002   4.164  19.988  0.00  0.00    +0.000 A 
ATOM      4  C   UNL     1       2.321   5.380  20.167  0.00  0.00    +0.000 A 
ATOM      5  C   UNL     1       2.614   6.458  19.342  0.00  0.00    +0.000 A 
ATOM      6  C   UNL     1       3.564   6.262  18.323  0.00  0.00    +0.000 A 
ENDROOT
BRANCH   5   7
ATOM      7  N   UNL     1       2.051   7.751  19.491  0.00  0.00    +0.000 N 
ATOM      8  C   UNL     1       1.484   8.122  20.772  0.00  0.00    +0.000 C 
ATOM      9  C   UNL     1       0.841   9.432  20.525  0.00  0.00    +0.000 A 
ATOM     10  C   UNL     1       1.140   9.856  19.232  0.00  0.00    +0.000 A 
ATOM     11  C   UNL     1       0.755  11.106  18.788  0.00  0.00    +0.000 A 
ATOM     12  C   UNL     1       0.046  11.920  19.682  0.00  0.00    +0.000 A 
ATOM     13  C   UNL     1      -0.305  11.464  20.965  0.00  0.00    +0.000 A 
ATOM     14  C   UNL     1       0.072  10.188  21.407  0.00  0.00    +0.000 A 
ATOM     15  C   UNL     1       1.866   8.761  18.540  0.00  0.00    +0.000 C 
ATOM     16  O   UNL     1       2.186   8.807  17.366  0.00  0.00    +0.000 OA
BRANCH  14  17
ATOM     17  C   UNL     1      -0.359   9.663  22.754  0.00  0.00    +0.000 C 
ATOM     18  F   UNL     1      -1.014   8.466  22.698  0.00  0.00    +0.000 F 
ATOM     19  F   UNL     1       0.682   9.467  23.603  0.00  0.00    +0.000 F 
ATOM     20  F   UNL     1      -1.215  10.512  23.386  0.00  0.00    +0.000 F 
ENDBRANCH  14  17
ENDBRANCH   5   7
BRANCH   1  22
ATOM     21  C   UNL     1       5.192   3.970  15.988  0.00  0.00    +0.000 C 
ATOM     22  C   UNL     1       5.342   5.066  17.045  0.00  0.00    +0.000 C 
BRANCH  22  23
ATOM     23  C   UNL     1       6.790   5.118  17.597  0.00  0.00    +0.000 C 
BRANCH  23  24
ATOM     24  C   UNL     1       7.319   6.498  17.744  0.00  0.00    +0.000 A 
ATOM     25  N   UNL     1       7.098   7.551  16.984  0.00  0.00    +0.000 NA
ATOM     26  C   UNL     1       7.843   8.538  17.575  0.00  0.00    +0.000 A 
ATOM     27  C   UNL     1       8.479   8.044  18.685  0.00  0.00    +0.000 A 
ATOM     28  O   UNL     1       8.137   6.733  18.816  0.00  0.00    +0.000 OA
ENDBRANCH  23  24
ENDBRANCH  22  23
ENDBRANCH   1  22
TORSDOF 5
ENDMDL
MODEL 2
REMARK VINA RESULT:      -8.9      1.482      2.217
REMARK  Name = 
REMARK  6 active torsions:
REMARK  status: ('A' for Active; 'I' for Inactive)
REMARK    1  A    between atoms: C_1  and  C_2
REMARK    2  A    between atoms: C_2  and  C_3
REMARK    3  A    between atoms: C_2  and  C_9
REMARK    4  A    between atoms: C_3  and  C_4
REMARK    5  A    between atoms: C_13  and  N_14
REMARK    6  A    between atoms: C_21  and  C_22
REMARK                            x       y       z     vdW  Elec       q    Type
REMARK                         _______ _______ _______ _____ _____    ______ ____
ROOT
ATOM      1  C   UNL     1       4.626   5.161  18.524  0.00  0.00    +0.000 A 
ATOM      2  C   UNL     1       3.908   3.992  18.765  0.00  0.00    +0.000 A 
ATOM      3  C   UNL     1       2.556   4.059  19.138  0.00  0.00    +0.000 A 
ATOM      4  C   UNL     1       1.901   5.292  19.302  0.00  0.00    +0.000 A 
ATOM      5  C   UNL     1       2.598   6.472  19.084  0.00  0.00    +0.000 A 
ATOM      6  C   UNL     1       3.937   6.373  18.660  0.00  0.00    +0.000 A 
ENDROOT
BRANCH   5   7
ATOM      7  N   UNL     1       2.061   7.766  19.305  0.00  0.00    +0.000 N 
ATOM      8  C   UNL     1       1.511   8.081  20.607  0.00  0.00    +0.000 C 
ATOM      9  C   UNL     1       0.892   9.414  20.434  0.00  0.00    +0.000 A 
ATOM     10  C   UNL     1       1.189   9.898  19.163  0.00  0.00    +0.000 A 
ATOM     11  C   UNL     1       0.825  11.178  18.787  0.00  0.00    +0.000 A 
ATOM     12  C   UNL     1       0.140  11.957  19.728  0.00  0.00    +0.000 A 
ATOM     13  C   UNL     1      -0.211  11.442  20.989  0.00  0.00    +0.000 A 
ATOM     14  C   UNL     1       0.144  10.137  21.361  0.00  0.00    +0.000 A 
ATOM     15  C   UNL     1       1.889   8.827  18.408  0.00  0.00    +0.000 C 
ATOM     16  O   UNL     1       2.201   8.929  17.236  0.00  0.00    +0.000 OA
BRANCH  14  17
ATOM     17  C   UNL     1      -0.287   9.551  22.682  0.00  0.00    +0.000 C 
ATOM     18  F   UNL     1      -0.926   8.349  22.572  0.00  0.00    +0.000 F 
ATOM     19  F   UNL     1       0.752   9.334  23.528  0.00  0.00    +0.000 F 
ATOM     20  F   UNL     1      -1.157  10.362  23.344  0.00  0.00    +0.000 F 
ENDBRANCH  14  17
ENDBRANCH   5   7
BRANCH   1  22
ATOM     21  C   UNL     1       7.057   5.627  19.273  0.00  0.00    +0.000 C 
ATOM     22  C   UNL     1       6.100   5.243  18.142  0.00  0.00    +0.000 C 
BRANCH  22  23
ATOM     23  C   UNL     1       6.351   6.106  16.879  0.00  0.00    +0.000 C 
BRANCH  23  24
ATOM     24  C   UNL     1       6.406   5.314  15.623  0.00  0.00    +0.000 A 
ATOM     25  N   UNL     1       5.603   4.349  15.221  0.00  0.00    +0.000 NA
ATOM     26  C   UNL     1       6.130   3.975  14.011  0.00  0.00    +0.000 A 
ATOM     27  C   UNL     1       7.229   4.742  13.722  0.00  0.00    +0.000 A 
ATOM     28  O   UNL     1       7.410   5.622  14.744  0.00  0.00    +0.000 OA
ENDBRANCH  23  24
ENDBRANCH  22  23
ENDBRANCH   1  22
TORSDOF 5
ENDMDL
MODEL 3
REMARK VINA RESULT:      -8.9      1.458      2.338
REMARK  Name = 
REMARK  6 active torsions:
REMARK  status: ('A' for Active; 'I' for Inactive)
REMARK    1  A    between atoms: C_1  and  C_2
REMARK    2  A    between atoms: C_2  and  C_3
REMARK    3  A    between atoms: C_2  and  C_9
REMARK    4  A    between atoms: C_3  and  C_4
REMARK    5  A    between atoms: C_13  and  N_14
REMARK    6  A    between atoms: C_21  and  C_22
REMARK                            x       y       z     vdW  Elec       q    Type
REMARK                         _______ _______ _______ _____ _____    ______ ____
ROOT
ATOM      1  C   UNL     1       4.923   5.606  18.328  0.00  0.00    +0.000 A 
ATOM      2  C   UNL     1       4.279   4.375  18.412  0.00  0.00    +0.000 A 
ATOM      3  C   UNL     1       2.900   4.316  18.675  0.00  0.00    +0.000 A 
ATOM      4  C   UNL     1       2.145   5.482  18.885  0.00  0.00    +0.000 A 
ATOM      5  C   UNL     1       2.766   6.722  18.823  0.00  0.00    +0.000 A 
ATOM      6  C   UNL     1       4.137   6.752  18.505  0.00  0.00    +0.000 A 
ENDROOT
BRANCH   5   7
ATOM      7  N   UNL     1       2.118   7.952  19.104  0.00  0.00    +0.000 N 
ATOM      8  C   UNL     1       1.565   8.164  20.426  0.00  0.00    +0.000 C 
ATOM      9  C   UNL     1       0.825   9.441  20.315  0.00  0.00    +0.000 A 
ATOM     10  C   UNL     1       1.054  10.000  19.060  0.00  0.00    +0.000 A 
ATOM     11  C   UNL     1       0.570  11.254  18.742  0.00  0.00    +0.000 A 
ATOM     12  C   UNL     1      -0.167  11.931  19.723  0.00  0.00    +0.000 A 
ATOM     13  C   UNL     1      -0.448  11.337  20.967  0.00  0.00    +0.000 A 
ATOM     14  C   UNL     1       0.032  10.057  21.281  0.00  0.00    +0.000 A 
ATOM     15  C   UNL     1       1.835   9.027  18.253  0.00  0.00    +0.000 C 
ATOM     16  O   UNL     1       2.115   9.203  17.082  0.00  0.00    +0.000 OA
BRANCH  14  17
ATOM     17  C   UNL     1      -0.321   9.383  22.583  0.00  0.00    +0.000 C 
ATOM     18  F   UNL     1      -1.172  10.107  23.369  0.00  0.00    +0.000 F 
ATOM     19  F   UNL     1      -0.924   8.179  22.409  0.00  0.00    +0.000 F 
ATOM     20  F   UNL     1       0.775   9.154  23.357  0.00  0.00    +0.000 F 
ENDBRANCH  14  17
ENDBRANCH   5   7
BRANCH   1  22
ATOM     21  C   UNL     1       6.782   7.122  17.362  0.00  0.00    +0.000 C 
ATOM     22  C   UNL     1       6.412   5.822  18.078  0.00  0.00    +0.000 C 
BRANCH  22  23
ATOM     23  C   UNL     1       7.097   4.600  17.414  0.00  0.00    +0.000 C 
BRANCH  23  24
ATOM     24  C   UNL     1       6.943   4.566  15.937  0.00  0.00    +0.000 A 
ATOM     25  N   UNL     1       7.608   5.242  15.022  0.00  0.00    +0.000 NA
ATOM     26  C   UNL     1       7.043   4.830  13.842  0.00  0.00    +0.000 A 
ATOM     27  C   UNL     1       6.062   3.906  14.090  0.00  0.00    +0.000 A 
ATOM     28  O   UNL     1       5.996   3.712  15.436  0.00  0.00    +0.000 OA
ENDBRANCH  23  24
ENDBRANCH  22  23
ENDBRANCH   1  22
TORSDOF 5
ENDMDL
MODEL 4
REMARK VINA RESULT:      -8.9      1.661      2.415
REMARK  Name = 
REMARK  6 active torsions:
REMARK  status: ('A' for Active; 'I' for Inactive)
REMARK    1  A    between atoms: C_1  and  C_2
REMARK    2  A    between atoms: C_2  and  C_3
REMARK    3  A    between atoms: C_2  and  C_9
REMARK    4  A    between atoms: C_3  and  C_4
REMARK    5  A    between atoms: C_13  and  N_14
REMARK    6  A    between atoms: C_21  and  C_22
REMARK                            x       y       z     vdW  Elec       q    Type
REMARK                         _______ _______ _______ _____ _____    ______ ____
ROOT
ATOM      1  C   UNL     1       4.283   4.815  18.511  0.00  0.00    +0.000 A 
ATOM      2  C   UNL     1       3.800   3.760  19.280  0.00  0.00    +0.000 A 
ATOM      3  C   UNL     1       2.690   3.948  20.119  0.00  0.00    +0.000 A 
ATOM      4  C   UNL     1       2.058   5.199  20.227  0.00  0.00    +0.000 A 
ATOM      5  C   UNL     1       2.529   6.272  19.484  0.00  0.00    +0.000 A 
ATOM      6  C   UNL     1       3.610   6.039  18.612  0.00  0.00    +0.000 A 
ENDROOT
BRANCH   5   7
ATOM      7  N   UNL     1       2.023   7.593  19.582  0.00  0.00    +0.000 N 
ATOM      8  C   UNL     1       1.472   8.038  20.846  0.00  0.00    +0.000 C 
ATOM      9  C   UNL     1       0.887   9.364  20.547  0.00  0.00    +0.000 A 
ATOM     10  C   UNL     1       1.203   9.723  19.239  0.00  0.00    +0.000 A 
ATOM     11  C   UNL     1       0.872  10.971  18.746  0.00  0.00    +0.000 A 
ATOM     12  C   UNL     1       0.200  11.849  19.607  0.00  0.00    +0.000 A 
ATOM     13  C   UNL     1      -0.171  11.459  20.906  0.00  0.00    +0.000 A 
ATOM     14  C   UNL     1       0.151  10.186  21.398  0.00  0.00    +0.000 A 
ATOM     15  C   UNL     1       1.882   8.572  18.591  0.00  0.00    +0.000 C 
ATOM     16  O   UNL     1       2.203   8.559  17.417  0.00  0.00    +0.000 OA
BRANCH  14  17
ATOM     17  C   UNL     1      -0.302   9.733  22.763  0.00  0.00    +0.000 C 
ATOM     18  F   UNL     1       0.722   9.448  23.621  0.00  0.00    +0.000 F 
ATOM     19  F   UNL     1      -1.063  10.659  23.402  0.00  0.00    +0.000 F 
ATOM     20  F   UNL     1      -1.050   8.596  22.706  0.00  0.00    +0.000 F 
ENDBRANCH  14  17
ENDBRANCH   5   7
BRANCH   1  22
ATOM     21  C   UNL     1       6.850   4.985  18.250  0.00  0.00    +0.000 C 
ATOM     22  C   UNL     1       5.491   4.765  17.582  0.00  0.00    +0.000 C 
BRANCH  22  23
ATOM     23  C   UNL     1       5.329   5.666  16.330  0.00  0.00    +0.000 C 
BRANCH  23  24
ATOM     24  C   UNL     1       6.032   5.143  15.131  0.00  0.00    +0.000 A 
ATOM     25  N   UNL     1       7.230   5.453  14.676  0.00  0.00    +0.000 NA
ATOM     26  C   UNL     1       7.354   4.688  13.545  0.00  0.00    +0.000 A 
ATOM     27  C   UNL     1       6.225   3.930  13.366  0.00  0.00    +0.000 A 
ATOM     28  O   UNL     1       5.370   4.201  14.390  0.00  0.00    +0.000 OA
ENDBRANCH  23  24
ENDBRANCH  22  23
ENDBRANCH   1  22
TORSDOF 5
ENDMDL
MODEL 5
REMARK VINA RESULT:      -8.8      1.453      2.315
REMARK  Name = 
REMARK  6 active torsions:
REMARK  status: ('A' for Active; 'I' for Inactive)
REMARK    1  A    between atoms: C_1  and  C_2
REMARK    2  A    between atoms: C_2  and  C_3
REMARK    3  A    between atoms: C_2  and  C_9
REMARK    4  A    between atoms: C_3  and  C_4
REMARK    5  A    between atoms: C_13  and  N_14
REMARK    6  A    between atoms: C_21  and  C_22
REMARK                            x       y       z     vdW  Elec       q    Type
REMARK                         _______ _______ _______ _____ _____    ______ ____
ROOT
ATOM      1  C   UNL     1       4.923   5.647  18.376  0.00  0.00    +0.000 A 
ATOM      2  C   UNL     1       4.300   4.407  18.500  0.00  0.00    +0.000 A 
ATOM      3  C   UNL     1       2.929   4.332  18.792  0.00  0.00    +0.000 A 
ATOM      4  C   UNL     1       2.158   5.490  18.992  0.00  0.00    +0.000 A 
ATOM      5  C   UNL     1       2.757   6.738  18.890  0.00  0.00    +0.000 A 
ATOM      6  C   UNL     1       4.121   6.783  18.544  0.00  0.00    +0.000 A 
ENDROOT
BRANCH   5   7
ATOM      7  N   UNL     1       2.095   7.964  19.156  0.00  0.00    +0.000 N 
ATOM      8  C   UNL     1       1.543   8.186  20.477  0.00  0.00    +0.000 C 
ATOM      9  C   UNL     1       0.786   9.452  20.352  0.00  0.00    +0.000 A 
ATOM     10  C   UNL     1       1.005   9.997  19.090  0.00  0.00    +0.000 A 
ATOM     11  C   UNL     1       0.503  11.241  18.757  0.00  0.00    +0.000 A 
ATOM     12  C   UNL     1      -0.239  11.921  19.732  0.00  0.00    +0.000 A 
ATOM     13  C   UNL     1      -0.508  11.340  20.984  0.00  0.00    +0.000 A 
ATOM     14  C   UNL     1      -0.012  10.070  21.313  0.00  0.00    +0.000 A 
ATOM     15  C   UNL     1       1.795   9.024  18.293  0.00  0.00    +0.000 C 
ATOM     16  O   UNL     1       2.070   9.187  17.119  0.00  0.00    +0.000 OA
BRANCH  14  17
ATOM     17  C   UNL     1      -0.352   9.409  22.625  0.00  0.00    +0.000 C 
ATOM     18  F   UNL     1       0.729   9.184  23.429  0.00  0.00    +0.000 F 
ATOM     19  F   UNL     1      -1.216  10.139  23.376  0.00  0.00    +0.000 F 
ATOM     20  F   UNL     1      -0.931   8.189  22.451  0.00  0.00    +0.000 F 
ENDBRANCH  14  17
ENDBRANCH   5   7
BRANCH   1  22
ATOM     21  C   UNL     1       6.735   7.163  17.328  0.00  0.00    +0.000 C 
ATOM     22  C   UNL     1       6.402   5.881  18.092  0.00  0.00    +0.000 C 
BRANCH  22  23
ATOM     23  C   UNL     1       7.098   4.651  17.454  0.00  0.00    +0.000 C 
BRANCH  23  24
ATOM     24  C   UNL     1       6.822   4.502  16.003  0.00  0.00    +0.000 A 
ATOM     25  N   UNL     1       5.904   3.766  15.408  0.00  0.00    +0.000 NA
ATOM     26  C   UNL     1       6.117   4.000  14.074  0.00  0.00    +0.000 A 
ATOM     27  C   UNL     1       7.153   4.883  13.913  0.00  0.00    +0.000 A 
ATOM     28  O   UNL     1       7.608   5.229  15.149  0.00  0.00    +0.000 OA
ENDBRANCH  23  24
ENDBRANCH  22  23
ENDBRANCH   1  22
TORSDOF 5
ENDMDL
MODEL 6
REMARK VINA RESULT:      -8.8      0.907      1.212
REMARK  Name = 
REMARK  6 active torsions:
REMARK  status: ('A' for Active; 'I' for Inactive)
REMARK    1  A    between atoms: C_1  and  C_2
REMARK    2  A    between atoms: C_2  and  C_3
REMARK    3  A    between atoms: C_2  and  C_9
REMARK    4  A    between atoms: C_3  and  C_4
REMARK    5  A    between atoms: C_13  and  N_14
REMARK    6  A    between atoms: C_21  and  C_22
REMARK                            x       y       z     vdW  Elec       q    Type
REMARK                         _______ _______ _______ _____ _____    ______ ____
ROOT
ATOM      1  C   UNL     1       4.234   5.767  17.486  0.00  0.00    +0.000 A 
ATOM      2  C   UNL     1       3.800   4.563  18.035  0.00  0.00    +0.000 A 
ATOM      3  C   UNL     1       2.709   4.543  18.919  0.00  0.00    +0.000 A 
ATOM      4  C   UNL     1       2.048   5.726  19.293  0.00  0.00    +0.000 A 
ATOM      5  C   UNL     1       2.470   6.942  18.773  0.00  0.00    +0.000 A 
ATOM      6  C   UNL     1       3.532   6.924  17.848  0.00  0.00    +0.000 A 
ENDROOT
BRANCH   5   7
ATOM      7  N   UNL     1       1.932   8.199  19.148  0.00  0.00    +0.000 N 
ATOM      8  C   UNL     1       1.415   8.364  20.491  0.00  0.00    +0.000 C 
ATOM      9  C   UNL     1       0.784   9.703  20.481  0.00  0.00    +0.000 A 
ATOM     10  C   UNL     1       1.044  10.326  19.264  0.00  0.00    +0.000 A 
ATOM     11  C   UNL     1       0.663  11.636  19.040  0.00  0.00    +0.000 A 
ATOM     12  C   UNL     1      -0.002  12.301  20.079  0.00  0.00    +0.000 A 
ATOM     13  C   UNL     1      -0.317  11.648  21.284  0.00  0.00    +0.000 A 
ATOM     14  C   UNL     1       0.057  10.313  21.501  0.00  0.00    +0.000 A 
ATOM     15  C   UNL     1       1.730   9.350  18.379  0.00  0.00    +0.000 C 
ATOM     16  O   UNL     1       2.010   9.583  17.217  0.00  0.00    +0.000 OA
BRANCH  14  17
ATOM     17  C   UNL     1      -0.336   9.582  22.760  0.00  0.00    +0.000 C 
ATOM     18  F   UNL     1       0.715   9.289  23.582  0.00  0.00    +0.000 F 
ATOM     19  F   UNL     1      -1.211  10.282  23.527  0.00  0.00    +0.000 F 
ATOM     20  F   UNL     1      -0.930   8.386  22.497  0.00  0.00    +0.000 F 
ENDBRANCH  14  17
ENDBRANCH   5   7
BRANCH   1  22
ATOM     21  C   UNL     1       5.318   5.196  15.209  0.00  0.00    +0.000 C 
ATOM     22  C   UNL     1       5.416   5.944  16.540  0.00  0.00    +0.000 C 
BRANCH  22  23
ATOM     23  C   UNL     1       6.784   5.692  17.226  0.00  0.00    +0.000 C 
BRANCH  23  24
ATOM     24  C   UNL     1       7.453   6.935  17.686  0.00  0.00    +0.000 A 
ATOM     25  N   UNL     1       8.273   7.102  18.704  0.00  0.00    +0.000 NA
ATOM     26  C   UNL     1       8.567   8.441  18.666  0.00  0.00    +0.000 A 
ATOM     27  C   UNL     1       7.920   9.032  17.612  0.00  0.00    +0.000 A 
ATOM     28  O   UNL     1       7.210   8.070  16.961  0.00  0.00    +0.000 OA
ENDBRANCH  23  24
ENDBRANCH  22  23
ENDBRANCH   1  22
TORSDOF 5
ENDMDL
MODEL 7
REMARK VINA RESULT:      -8.7      1.811      2.413
REMARK  Name = 
REMARK  6 active torsions:
REMARK  status: ('A' for Active; 'I' for Inactive)
REMARK    1  A    between atoms: C_1  and  C_2
REMARK    2  A    between atoms: C_2  and  C_3
REMARK    3  A    between atoms: C_2  and  C_9
REMARK    4  A    between atoms: C_3  and  C_4
REMARK    5  A    between atoms: C_13  and  N_14
REMARK    6  A    between atoms: C_21  and  C_22
REMARK                            x       y       z     vdW  Elec       q    Type
REMARK                         _______ _______ _______ _____ _____    ______ ____
ROOT
ATOM      1  C   UNL     1       4.413   5.738  17.900  0.00  0.00    +0.000 A 
ATOM      2  C   UNL     1       4.197   4.604  18.677  0.00  0.00    +0.000 A 
ATOM      3  C   UNL     1       3.200   4.605  19.666  0.00  0.00    +0.000 A 
ATOM      4  C   UNL     1       2.417   5.746  19.915  0.00  0.00    +0.000 A 
ATOM      5  C   UNL     1       2.622   6.895  19.164  0.00  0.00    +0.000 A 
ATOM      6  C   UNL     1       3.593   6.847  18.146  0.00  0.00    +0.000 A 
ENDROOT
BRANCH   5   7
ATOM      7  N   UNL     1       1.951   8.124  19.389  0.00  0.00    +0.000 N 
ATOM      8  C   UNL     1       1.392   8.384  20.700  0.00  0.00    +0.000 C 
ATOM      9  C   UNL     1       0.627   9.641  20.532  0.00  0.00    +0.000 A 
ATOM     10  C   UNL     1       0.849  10.148  19.254  0.00  0.00    +0.000 A 
ATOM     11  C   UNL     1       0.341  11.377  18.880  0.00  0.00    +0.000 A 
ATOM     12  C   UNL     1      -0.411  12.082  19.830  0.00  0.00    +0.000 A 
ATOM     13  C   UNL     1      -0.682  11.539  21.098  0.00  0.00    +0.000 A 
ATOM     14  C   UNL     1      -0.179  10.283  21.469  0.00  0.00    +0.000 A 
ATOM     15  C   UNL     1       1.649   9.155  18.492  0.00  0.00    +0.000 C 
ATOM     16  O   UNL     1       1.929   9.284  17.314  0.00  0.00    +0.000 OA
BRANCH  14  17
ATOM     17  C   UNL     1      -0.522   9.661  22.799  0.00  0.00    +0.000 C 
ATOM     18  F   UNL     1      -1.046   8.403  22.704  0.00  0.00    +0.000 F 
ATOM     19  F   UNL     1       0.553   9.545  23.621  0.00  0.00    +0.000 F 
ATOM     20  F   UNL     1      -1.450  10.386  23.482  0.00  0.00    +0.000 F 
ENDBRANCH  14  17
ENDBRANCH   5   7
BRANCH   1  22
ATOM     21  C   UNL     1       5.067   6.729  15.602  0.00  0.00    +0.000 C 
ATOM     22  C   UNL     1       5.474   5.891  16.815  0.00  0.00    +0.000 C 
BRANCH  22  23
ATOM     23  C   UNL     1       6.093   4.538  16.379  0.00  0.00    +0.000 C 
BRANCH  23  24
ATOM     24  C   UNL     1       6.575   4.532  14.974  0.00  0.00    +0.000 A 
ATOM     25  N   UNL     1       7.567   5.216  14.440  0.00  0.00    +0.000 NA
ATOM     26  C   UNL     1       7.549   4.834  13.123  0.00  0.00    +0.000 A 
ATOM     27  C   UNL     1       6.550   3.919  12.914  0.00  0.00    +0.000 A 
ATOM     28  O   UNL     1       5.923   3.702  14.103  0.00  0.00    +0.000 OA
ENDBRANCH  23  24
ENDBRANCH  22  23
ENDBRANCH   1  22
TORSDOF 5
ENDMDL
MODEL 8
REMARK VINA RESULT:      -8.5      0.675      1.089
REMARK  Name = 
REMARK  6 active torsions:
REMARK  status: ('A' for Active; 'I' for Inactive)
REMARK    1  A    between atoms: C_1  and  C_2
REMARK    2  A    between atoms: C_2  and  C_3
REMARK    3  A    between atoms: C_2  and  C_9
REMARK    4  A    between atoms: C_3  and  C_4
REMARK    5  A    between atoms: C_13  and  N_14
REMARK    6  A    between atoms: C_21  and  C_22
REMARK                            x       y       z     vdW  Elec       q    Type
REMARK                         _______ _______ _______ _____ _____    ______ ____
ROOT
ATOM      1  C   UNL     1       3.809   5.129  17.704  0.00  0.00    +0.000 A 
ATOM      2  C   UNL     1       3.675   4.092  18.624  0.00  0.00    +0.000 A 
ATOM      3  C   UNL     1       2.917   4.278  19.792  0.00  0.00    +0.000 A 
ATOM      4  C   UNL     1       2.301   5.509  20.077  0.00  0.00    +0.000 A 
ATOM      5  C   UNL     1       2.432   6.564  19.185  0.00  0.00    +0.000 A 
ATOM      6  C   UNL     1       3.153   6.332  17.998  0.00  0.00    +0.000 A 
ENDROOT
BRANCH   5   7
ATOM      7  N   UNL     1       1.927   7.869  19.416  0.00  0.00    +0.000 N 
ATOM      8  C   UNL     1       1.394   8.190  20.724  0.00  0.00    +0.000 C 
ATOM      9  C   UNL     1       0.804   9.538  20.561  0.00  0.00    +0.000 A 
ATOM     10  C   UNL     1       1.102  10.021  19.289  0.00  0.00    +0.000 A 
ATOM     11  C   UNL     1       0.765  11.310  18.922  0.00  0.00    +0.000 A 
ATOM     12  C   UNL     1       0.104  12.101  19.871  0.00  0.00    +0.000 A 
ATOM     13  C   UNL     1      -0.249  11.588  21.132  0.00  0.00    +0.000 A 
ATOM     14  C   UNL     1       0.080  10.274  21.497  0.00  0.00    +0.000 A 
ATOM     15  C   UNL     1       1.772   8.938  18.525  0.00  0.00    +0.000 C 
ATOM     16  O   UNL     1       2.077   9.037  17.351  0.00  0.00    +0.000 OA
BRANCH  14  17
ATOM     17  C   UNL     1      -0.355   9.692  22.818  0.00  0.00    +0.000 C 
ATOM     18  F   UNL     1      -1.198  10.498  23.528  0.00  0.00    +0.000 F 
ATOM     19  F   UNL     1      -1.009   8.510  22.686  0.00  0.00    +0.000 F 
ATOM     20  F   UNL     1       0.699   9.456  23.648  0.00  0.00    +0.000 F 
ENDBRANCH  14  17
ENDBRANCH   5   7
BRANCH   1  22
ATOM     21  C   UNL     1       5.538   3.869  16.252  0.00  0.00    +0.000 C 
ATOM     22  C   UNL     1       4.620   5.082  16.414  0.00  0.00    +0.000 C 
BRANCH  22  23
ATOM     23  C   UNL     1       5.381   6.403  16.129  0.00  0.00    +0.000 C 
BRANCH  23  24
ATOM     24  C   UNL     1       6.479   6.673  17.092  0.00  0.00    +0.000 A 
ATOM     25  N   UNL     1       7.273   7.722  17.164  0.00  0.00    +0.000 NA
ATOM     26  C   UNL     1       8.097   7.431  18.221  0.00  0.00    +0.000 A 
ATOM     27  C   UNL     1       7.757   6.217  18.759  0.00  0.00    +0.000 A 
ATOM     28  O   UNL     1       6.705   5.723  18.051  0.00  0.00    +0.000 OA
ENDBRANCH  23  24
ENDBRANCH  22  23
ENDBRANCH   1  22
TORSDOF 5
ENDMDL
MODEL 9
REMARK VINA RESULT:      -8.3      3.958      8.137
REMARK  Name = 
REMARK  6 active torsions:
REMARK  status: ('A' for Active; 'I' for Inactive)
REMARK    1  A    between atoms: C_1  and  C_2
REMARK    2  A    between atoms: C_2  and  C_3
REMARK    3  A    between atoms: C_2  and  C_9
REMARK    4  A    between atoms: C_3  and  C_4
REMARK    5  A    between atoms: C_13  and  N_14
REMARK    6  A    between atoms: C_21  and  C_22
REMARK                            x       y       z     vdW  Elec       q    Type
REMARK                         _______ _______ _______ _____ _____    ______ ____
ROOT
ATOM      1  C   UNL     1       0.698  10.123  19.761  0.00  0.00    +0.000 A 
ATOM      2  C   UNL     1       0.371  10.170  21.114  0.00  0.00    +0.000 A 
ATOM      3  C   UNL     1       0.733   9.114  21.966  0.00  0.00    +0.000 A 
ATOM      4  C   UNL     1       1.405   7.979  21.479  0.00  0.00    +0.000 A 
ATOM      5  C   UNL     1       1.729   7.899  20.132  0.00  0.00    +0.000 A 
ATOM      6  C   UNL     1       1.400   8.996  19.314  0.00  0.00    +0.000 A 
ENDROOT
BRANCH   5   7
ATOM      7  N   UNL     1       2.327   6.767  19.523  0.00  0.00    +0.000 N 
ATOM      8  C   UNL     1       3.373   6.973  18.542  0.00  0.00    +0.000 C 
ATOM      9  C   UNL     1       3.635   5.623  17.993  0.00  0.00    +0.000 A 
ATOM     10  C   UNL     1       2.897   4.683  18.708  0.00  0.00    +0.000 A 
ATOM     11  C   UNL     1       3.049   3.331  18.470  0.00  0.00    +0.000 A 
ATOM     12  C   UNL     1       3.962   2.947  17.479  0.00  0.00    +0.000 A 
ATOM     13  C   UNL     1       4.661   3.902  16.719  0.00  0.00    +0.000 A 
ATOM     14  C   UNL     1       4.492   5.275  16.951  0.00  0.00    +0.000 A 
ATOM     15  C   UNL     1       2.010   5.409  19.653  0.00  0.00    +0.000 C 
ATOM     16  O   UNL     1       1.184   4.856  20.355  0.00  0.00    +0.000 OA
BRANCH  14  17
ATOM     17  C   UNL     1       5.182   6.308  16.096  0.00  0.00    +0.000 C 
ATOM     18  F   UNL     1       5.780   5.794  14.981  0.00  0.00    +0.000 F 
ATOM     19  F   UNL     1       4.338   7.269  15.643  0.00  0.00    +0.000 F 
ATOM     20  F   UNL     1       6.174   6.954  16.769  0.00  0.00    +0.000 F 
ENDBRANCH  14  17
ENDBRANCH   5   7
BRANCH   1  22
ATOM     21  C   UNL     1       1.226  12.428  18.717  0.00  0.00    +0.000 C 
ATOM     22  C   UNL     1       0.346  11.177  18.718  0.00  0.00    +0.000 C 
BRANCH  22  23
ATOM     23  C   UNL     1      -1.159  11.550  18.719  0.00  0.00    +0.000 C 
BRANCH  23  24
ATOM     24  C   UNL     1      -1.925  10.924  17.611  0.00  0.00    +0.000 A 
ATOM     25  N   UNL     1      -2.426   9.706  17.540  0.00  0.00    +0.000 NA
ATOM     26  C   UNL     1      -3.010   9.670  16.300  0.00  0.00    +0.000 A 
ATOM     27  C   UNL     1      -2.851  10.878  15.672  0.00  0.00    +0.000 A 
ATOM     28  O   UNL     1      -2.167  11.702  16.512  0.00  0.00    +0.000 OA
ENDBRANCH  23  24
ENDBRANCH  22  23
ENDBRANCH   1  22
TORSDOF 5
ENDMDL
