MODEL 1
REMARK VINA RESULT:      -5.8      0.000      0.000
REMARK  Name = 
REMARK  6 active torsions:
REMARK  status: ('A' for Active; 'I' for Inactive)
REMARK    1  A    between atoms: N_1  and  C_2
REMARK    2  A    between atoms: C_2  and  C_3
REMARK    3  A    between atoms: C_3  and  C_4
REMARK    4  A    between atoms: C_3  and  C_8
REMARK    5  A    between atoms: C_4  and  C_5
REMARK    6  A    between atoms: C_5  and  O_7
REMARK                            x       y       z     vdW  Elec       q    Type
REMARK                         _______ _______ _______ _____ _____    ______ ____
ROOT
ATOM      1  C   UNL     1       4.003   4.620  18.276  0.00  0.00    +0.000 C 
ENDROOT
BRANCH   1   2
ATOM      2  C   UNL     1       2.595   5.305  18.367  0.00  0.00    +0.000 C 
ATOM      3  C   UNL     1       1.434   4.350  18.009  0.00  0.00    +0.000 C 
ATOM      4  C   UNL     1       1.215   3.271  19.067  0.00  0.00    +0.000 C 
ATOM      5  C   UNL     1       0.950   3.879  20.439  0.00  0.00    +0.000 C 
ATOM      6  C   UNL     1       1.997   4.917  20.839  0.00  0.00    +0.000 C 
ATOM      7  C   UNL     1       2.268   5.939  19.735  0.00  0.00    +0.000 C 
ENDBRANCH   1   2
BRANCH   1   8
ATOM      8  C   UNL     1       4.064   3.659  17.062  0.00  0.00    +0.000 C 
BRANCH   8   9
ATOM      9  N   UNL     1       4.389   2.287  17.465  0.00  0.00    +0.000 NA
ATOM     10  H   UNL     1       3.930   2.108  18.364  0.00  0.00    +0.000 HD
ATOM     11  H   UNL     1       5.388   2.251  17.693  0.00  0.00    +0.000 HD
ENDBRANCH   8   9
ENDBRANCH   1   8
BRANCH   1  12
ATOM     12  C   UNL     1       5.182   5.618  18.253  0.00  0.00    +0.000 C 
BRANCH  12  13
ATOM     13  C   UNL     1       6.456   5.068  18.844  0.00  0.00    +0.000 C 
ATOM     14  O   UNL     1       6.929   5.419  19.918  0.00  0.00    +0.000 OA
BRANCH  13  15
ATOM     15  O   UNL     1       7.048   4.142  18.055  0.00  0.00    +0.000 OA
ATOM     16  H   UNL     1       6.966   4.359  17.098  0.00  0.00    +0.000 HD
ENDBRANCH  13  15
ENDBRANCH  12  13
ENDBRANCH   1  12
TORSDOF 6
ENDMDL
MODEL 2
REMARK VINA RESULT:      -5.7      1.245      1.716
REMARK  Name = 
REMARK  6 active torsions:
REMARK  status: ('A' for Active; 'I' for Inactive)
REMARK    1  A    between atoms: N_1  and  C_2
REMARK    2  A    between atoms: C_2  and  C_3
REMARK    3  A    between atoms: C_3  and  C_4
REMARK    4  A    between atoms: C_3  and  C_8
REMARK    5  A    between atoms: C_4  and  C_5
REMARK    6  A    between atoms: C_5  and  O_7
REMARK                            x       y       z     vdW  Elec       q    Type
REMARK                         _______ _______ _______ _____ _____    ______ ____
ROOT
ATOM      1  C   UNL     1       3.535   3.137  17.957  0.00  0.00    +0.000 C 
ENDROOT
BRANCH   1   2
ATOM      2  C   UNL     1       2.104   3.772  17.863  0.00  0.00    +0.000 C 
ATOM      3  C   UNL     1       1.057   3.035  18.729  0.00  0.00    +0.000 C 
ATOM      4  C   UNL     1       1.284   3.241  20.225  0.00  0.00    +0.000 C 
ATOM      5  C   UNL     1       1.278   4.720  20.593  0.00  0.00    +0.000 C 
ATOM      6  C   UNL     1       2.213   5.552  19.718  0.00  0.00    +0.000 C 
ATOM      7  C   UNL     1       2.033   5.270  18.226  0.00  0.00    +0.000 C 
ENDBRANCH   1   2
BRANCH   1   8
ATOM      8  C   UNL     1       3.465   1.604  17.737  0.00  0.00    +0.000 C 
BRANCH   8   9
ATOM      9  N   UNL     1       4.300   0.874  18.698  0.00  0.00    +0.000 NA
ATOM     10  H   UNL     1       4.059  -0.120  18.630  0.00  0.00    +0.000 HD
ATOM     11  H   UNL     1       3.997   1.131  19.643  0.00  0.00    +0.000 HD
ENDBRANCH   8   9
ENDBRANCH   1   8
BRANCH   1  12
ATOM     12  C   UNL     1       4.569   3.786  17.012  0.00  0.00    +0.000 C 
BRANCH  12  13
ATOM     13  C   UNL     1       5.560   4.679  17.716  0.00  0.00    +0.000 C 
ATOM     14  O   UNL     1       5.563   5.902  17.642  0.00  0.00    +0.000 OA
BRANCH  13  15
ATOM     15  O   UNL     1       6.471   3.990  18.440  0.00  0.00    +0.000 OA
ATOM     16  H   UNL     1       6.499   4.281  19.381  0.00  0.00    +0.000 HD
ENDBRANCH  13  15
ENDBRANCH  12  13
ENDBRANCH   1  12
TORSDOF 6
ENDMDL
MODEL 3
REMARK VINA RESULT:      -5.6      2.058      2.788
REMARK  Name = 
REMARK  6 active torsions:
REMARK  status: ('A' for Active; 'I' for Inactive)
REMARK    1  A    between atoms: N_1  and  C_2
REMARK    2  A    between atoms: C_2  and  C_3
REMARK    3  A    between atoms: C_3  and  C_4
REMARK    4  A    between atoms: C_3  and  C_8
REMARK    5  A    between atoms: C_4  and  C_5
REMARK    6  A    between atoms: C_5  and  O_7
REMARK                            x       y       z     vdW  Elec       q    Type
REMARK                         _______ _______ _______ _____ _____    ______ ____
ROOT
ATOM      1  C   UNL     1       4.488   4.895  16.865  0.00  0.00    +0.000 C 
ENDROOT
BRANCH   1   2
ATOM      2  C   UNL     1       4.016   4.578  18.327  0.00  0.00    +0.000 C 
ATOM      3  C   UNL     1       2.576   5.059  18.616  0.00  0.00    +0.000 C 
ATOM      4  C   UNL     1       1.524   4.241  17.870  0.00  0.00    +0.000 C 
ATOM      5  C   UNL     1       1.627   2.758  18.207  0.00  0.00    +0.000 C 
ATOM      6  C   UNL     1       3.045   2.212  18.049  0.00  0.00    +0.000 C 
ATOM      7  C   UNL     1       4.096   3.090  18.727  0.00  0.00    +0.000 C 
ENDBRANCH   1   2
BRANCH   1   8
ATOM      8  C   UNL     1       4.854   6.394  16.724  0.00  0.00    +0.000 C 
BRANCH   8   9
ATOM      9  N   UNL     1       5.158   6.756  15.336  0.00  0.00    +0.000 NA
ATOM     10  H   UNL     1       5.052   5.913  14.762  0.00  0.00    +0.000 HD
ATOM     11  H   UNL     1       6.159   6.966  15.273  0.00  0.00    +0.000 HD
ENDBRANCH   8   9
ENDBRANCH   1   8
BRANCH   1  12
ATOM     12  C   UNL     1       5.642   3.994  16.373  0.00  0.00    +0.000 C 
BRANCH  12  13
ATOM     13  C   UNL     1       7.008   4.471  16.797  0.00  0.00    +0.000 C 
ATOM     14  O   UNL     1       7.442   4.398  17.940  0.00  0.00    +0.000 OA
BRANCH  13  15
ATOM     15  O   UNL     1       7.718   5.010  15.780  0.00  0.00    +0.000 OA
ATOM     16  H   UNL     1       7.203   5.048  14.942  0.00  0.00    +0.000 HD
ENDBRANCH  13  15
ENDBRANCH  12  13
ENDBRANCH   1  12
TORSDOF 6
ENDMDL
MODEL 4
REMARK VINA RESULT:      -5.6      2.284      2.885
REMARK  Name = 
REMARK  6 active torsions:
REMARK  status: ('A' for Active; 'I' for Inactive)
REMARK    1  A    between atoms: N_1  and  C_2
REMARK    2  A    between atoms: C_2  and  C_3
REMARK    3  A    between atoms: C_3  and  C_4
REMARK    4  A    between atoms: C_3  and  C_8
REMARK    5  A    between atoms: C_4  and  C_5
REMARK    6  A    between atoms: C_5  and  O_7
REMARK                            x       y       z     vdW  Elec       q    Type
REMARK                         _______ _______ _______ _____ _____    ______ ____
ROOT
ATOM      1  C   UNL     1       6.308   5.025  17.071  0.00  0.00    +0.000 C 
ENDROOT
BRANCH   1   2
ATOM      2  C   UNL     1       4.757   5.222  16.954  0.00  0.00    +0.000 C 
ATOM      3  C   UNL     1       3.979   3.887  16.915  0.00  0.00    +0.000 C 
ATOM      4  C   UNL     1       4.001   3.157  18.256  0.00  0.00    +0.000 C 
ATOM      5  C   UNL     1       3.438   4.026  19.375  0.00  0.00    +0.000 C 
ATOM      6  C   UNL     1       4.077   5.411  19.427  0.00  0.00    +0.000 C 
ATOM      7  C   UNL     1       4.127   6.093  18.060  0.00  0.00    +0.000 C 
ENDBRANCH   1   2
BRANCH   1   8
ATOM      8  C   UNL     1       6.873   4.369  15.785  0.00  0.00    +0.000 C 
BRANCH   8   9
ATOM      9  N   UNL     1       7.569   5.340  14.935  0.00  0.00    +0.000 NA
ATOM     10  H   UNL     1       7.382   6.275  15.310  0.00  0.00    +0.000 HD
ATOM     11  H   UNL     1       7.108   5.350  14.019  0.00  0.00    +0.000 HD
ENDBRANCH   8   9
ENDBRANCH   1   8
BRANCH   1  12
ATOM     12  C   UNL     1       7.077   6.319  17.416  0.00  0.00    +0.000 C 
BRANCH  12  13
ATOM     13  C   UNL     1       7.793   6.266  18.742  0.00  0.00    +0.000 C 
ATOM     14  O   UNL     1       7.694   5.346  19.546  0.00  0.00    +0.000 OA
BRANCH  13  15
ATOM     15  O   UNL     1       8.559   7.356  18.974  0.00  0.00    +0.000 OA
ATOM     16  H   UNL     1       9.521   7.146  18.965  0.00  0.00    +0.000 HD
ENDBRANCH  13  15
ENDBRANCH  12  13
ENDBRANCH   1  12
TORSDOF 6
ENDMDL
MODEL 5
REMARK VINA RESULT:      -5.6      2.177      3.065
REMARK  Name = 
REMARK  6 active torsions:
REMARK  status: ('A' for Active; 'I' for Inactive)
REMARK    1  A    between atoms: N_1  and  C_2
REMARK    2  A    between atoms: C_2  and  C_3
REMARK    3  A    between atoms: C_3  and  C_4
REMARK    4  A    between atoms: C_3  and  C_8
REMARK    5  A    between atoms: C_4  and  C_5
REMARK    6  A    between atoms: C_5  and  O_7
REMARK                            x       y       z     vdW  Elec       q    Type
REMARK                         _______ _______ _______ _____ _____    ______ ____
ROOT
ATOM      1  C   UNL     1       4.747   4.614  17.472  0.00  0.00    +0.000 C 
ENDROOT
BRANCH   1   2
ATOM      2  C   UNL     1       4.015   3.355  18.052  0.00  0.00    +0.000 C 
ATOM      3  C   UNL     1       3.837   3.411  19.586  0.00  0.00    +0.000 C 
ATOM      4  C   UNL     1       2.823   4.467  20.020  0.00  0.00    +0.000 C 
ATOM      5  C   UNL     1       1.462   4.234  19.373  0.00  0.00    +0.000 C 
ATOM      6  C   UNL     1       1.550   4.063  17.858  0.00  0.00    +0.000 C 
ATOM      7  C   UNL     1       2.630   3.067  17.436  0.00  0.00    +0.000 C 
ENDBRANCH   1   2
BRANCH   1   8
ATOM      8  C   UNL     1       5.919   5.036  18.395  0.00  0.00    +0.000 C 
BRANCH   8   9
ATOM      9  N   UNL     1       7.107   4.202  18.189  0.00  0.00    +0.000 NA
ATOM     10  H   UNL     1       7.279   4.146  17.180  0.00  0.00    +0.000 HD
ATOM     11  H   UNL     1       6.868   3.238  18.445  0.00  0.00    +0.000 HD
ENDBRANCH   8   9
ENDBRANCH   1   8
BRANCH   1  12
ATOM     12  C   UNL     1       5.226   4.442  16.014  0.00  0.00    +0.000 C 
BRANCH  12  13
ATOM     13  C   UNL     1       6.016   5.615  15.490  0.00  0.00    +0.000 C 
ATOM     14  O   UNL     1       7.224   5.601  15.288  0.00  0.00    +0.000 OA
BRANCH  13  15
ATOM     15  O   UNL     1       5.254   6.712  15.275  0.00  0.00    +0.000 OA
ATOM     16  H   UNL     1       4.512   6.535  14.651  0.00  0.00    +0.000 HD
ENDBRANCH  13  15
ENDBRANCH  12  13
ENDBRANCH   1  12
TORSDOF 6
ENDMDL
MODEL 6
REMARK VINA RESULT:      -5.6      2.803      4.800
REMARK  Name = 
REMARK  6 active torsions:
REMARK  status: ('A' for Active; 'I' for Inactive)
REMARK    1  A    between atoms: N_1  and  C_2
REMARK    2  A    between atoms: C_2  and  C_3
REMARK    3  A    between atoms: C_3  and  C_4
REMARK    4  A    between atoms: C_3  and  C_8
REMARK    5  A    between atoms: C_4  and  C_5
REMARK    6  A    between atoms: C_5  and  O_7
REMARK                            x       y       z     vdW  Elec       q    Type
REMARK                         _______ _______ _______ _____ _____    ______ ____
ROOT
ATOM      1  C   UNL     1       4.056   4.004  18.290  0.00  0.00    +0.000 C 
ENDROOT
BRANCH   1   2
ATOM      2  C   UNL     1       4.763   5.401  18.213  0.00  0.00    +0.000 C 
ATOM      3  C   UNL     1       6.274   5.334  18.529  0.00  0.00    +0.000 C 
ATOM      4  C   UNL     1       7.071   4.630  17.432  0.00  0.00    +0.000 C 
ATOM      5  C   UNL     1       6.877   5.307  16.079  0.00  0.00    +0.000 C 
ATOM      6  C   UNL     1       5.406   5.512  15.725  0.00  0.00    +0.000 C 
ATOM      7  C   UNL     1       4.604   6.137  16.866  0.00  0.00    +0.000 C 
ENDBRANCH   1   2
BRANCH   1   8
ATOM      8  C   UNL     1       4.225   3.385  19.702  0.00  0.00    +0.000 C 
BRANCH   8   9
ATOM      9  N   UNL     1       4.952   2.113  19.659  0.00  0.00    +0.000 NA
ATOM     10  H   UNL     1       5.772   2.241  19.057  0.00  0.00    +0.000 HD
ATOM     11  H   UNL     1       4.379   1.436  19.145  0.00  0.00    +0.000 HD
ENDBRANCH   8   9
ENDBRANCH   1   8
BRANCH   1  12
ATOM     12  C   UNL     1       2.569   4.032  17.872  0.00  0.00    +0.000 C 
BRANCH  12  13
ATOM     13  C   UNL     1       1.834   2.745  18.153  0.00  0.00    +0.000 C 
ATOM     14  O   UNL     1       0.786   2.670  18.783  0.00  0.00    +0.000 OA
BRANCH  13  15
ATOM     15  O   UNL     1       2.460   1.658  17.647  0.00  0.00    +0.000 OA
ATOM     16  H   UNL     1       2.865   1.835  16.767  0.00  0.00    +0.000 HD
ENDBRANCH  13  15
ENDBRANCH  12  13
ENDBRANCH   1  12
TORSDOF 6
ENDMDL
MODEL 7
REMARK VINA RESULT:      -5.5      1.495      1.642
REMARK  Name = 
REMARK  6 active torsions:
REMARK  status: ('A' for Active; 'I' for Inactive)
REMARK    1  A    between atoms: N_1  and  C_2
REMARK    2  A    between atoms: C_2  and  C_3
REMARK    3  A    between atoms: C_3  and  C_4
REMARK    4  A    between atoms: C_3  and  C_8
REMARK    5  A    between atoms: C_4  and  C_5
REMARK    6  A    between atoms: C_5  and  O_7
REMARK                            x       y       z     vdW  Elec       q    Type
REMARK                         _______ _______ _______ _____ _____    ______ ____
ROOT
ATOM      1  C   UNL     1       4.869   4.454  17.361  0.00  0.00    +0.000 C 
ENDROOT
BRANCH   1   2
ATOM      2  C   UNL     1       3.326   4.545  17.625  0.00  0.00    +0.000 C 
ATOM      3  C   UNL     1       2.560   3.279  17.177  0.00  0.00    +0.000 C 
ATOM      4  C   UNL     1       2.859   2.070  18.061  0.00  0.00    +0.000 C 
ATOM      5  C   UNL     1       2.533   2.353  19.524  0.00  0.00    +0.000 C 
ATOM      6  C   UNL     1       3.166   3.647  20.031  0.00  0.00    +0.000 C 
ATOM      7  C   UNL     1       2.933   4.829  19.090  0.00  0.00    +0.000 C 
ENDBRANCH   1   2
BRANCH   1   8
ATOM      8  C   UNL     1       5.157   4.365  15.840  0.00  0.00    +0.000 C 
BRANCH   8   9
ATOM      9  N   UNL     1       6.171   3.351  15.533  0.00  0.00    +0.000 NA
ATOM     10  H   UNL     1       7.076   3.705  15.858  0.00  0.00    +0.000 HD
ATOM     11  H   UNL     1       6.279   3.308  14.515  0.00  0.00    +0.000 HD
ENDBRANCH   8   9
ENDBRANCH   1   8
BRANCH   1  12
ATOM     12  C   UNL     1       5.682   5.594  18.013  0.00  0.00    +0.000 C 
BRANCH  12  13
ATOM     13  C   UNL     1       6.876   5.116  18.801  0.00  0.00    +0.000 C 
ATOM     14  O   UNL     1       7.142   5.478  19.941  0.00  0.00    +0.000 OA
BRANCH  13  15
ATOM     15  O   UNL     1       7.648   4.244  18.114  0.00  0.00    +0.000 OA
ATOM     16  H   UNL     1       7.823   3.419  18.621  0.00  0.00    +0.000 HD
ENDBRANCH  13  15
ENDBRANCH  12  13
ENDBRANCH   1  12
TORSDOF 6
ENDMDL
MODEL 8
REMARK VINA RESULT:      -5.5      2.866      3.680
REMARK  Name = 
REMARK  6 active torsions:
REMARK  status: ('A' for Active; 'I' for Inactive)
REMARK    1  A    between atoms: N_1  and  C_2
REMARK    2  A    between atoms: C_2  and  C_3
REMARK    3  A    between atoms: C_3  and  C_4
REMARK    4  A    between atoms: C_3  and  C_8
REMARK    5  A    between atoms: C_4  and  C_5
REMARK    6  A    between atoms: C_5  and  O_7
REMARK                            x       y       z     vdW  Elec       q    Type
REMARK                         _______ _______ _______ _____ _____    ______ ____
ROOT
ATOM      1  C   UNL     1       5.257   5.086  16.639  0.00  0.00    +0.000 C 
ENDROOT
BRANCH   1   2
ATOM      2  C   UNL     1       4.693   4.604  18.020  0.00  0.00    +0.000 C 
ATOM      3  C   UNL     1       3.703   5.609  18.653  0.00  0.00    +0.000 C 
ATOM      4  C   UNL     1       2.379   5.684  17.895  0.00  0.00    +0.000 C 
ATOM      5  C   UNL     1       1.708   4.317  17.806  0.00  0.00    +0.000 C 
ATOM      6  C   UNL     1       2.646   3.230  17.285  0.00  0.00    +0.000 C 
ATOM      7  C   UNL     1       3.999   3.226  17.995  0.00  0.00    +0.000 C 
ENDBRANCH   1   2
BRANCH   1   8
ATOM      8  C   UNL     1       5.416   6.628  16.623  0.00  0.00    +0.000 C 
BRANCH   8   9
ATOM      9  N   UNL     1       6.785   7.040  16.948  0.00  0.00    +0.000 NA
ATOM     10  H   UNL     1       7.338   6.192  17.108  0.00  0.00    +0.000 HD
ATOM     11  H   UNL     1       6.771   7.495  17.867  0.00  0.00    +0.000 HD
ENDBRANCH   8   9
ENDBRANCH   1   8
BRANCH   1  12
ATOM     12  C   UNL     1       6.572   4.389  16.225  0.00  0.00    +0.000 C 
BRANCH  12  13
ATOM     13  C   UNL     1       6.885   4.507  14.754  0.00  0.00    +0.000 C 
ATOM     14  O   UNL     1       7.571   5.395  14.262  0.00  0.00    +0.000 OA
BRANCH  13  15
ATOM     15  O   UNL     1       6.315   3.531  14.012  0.00  0.00    +0.000 OA
ATOM     16  H   UNL     1       5.474   3.824  13.592  0.00  0.00    +0.000 HD
ENDBRANCH  13  15
ENDBRANCH  12  13
ENDBRANCH   1  12
TORSDOF 6
ENDMDL
MODEL 9
REMARK VINA RESULT:      -5.5      1.113      1.574
REMARK  Name = 
REMARK  6 active torsions:
REMARK  status: ('A' for Active; 'I' for Inactive)
REMARK    1  A    between atoms: N_1  and  C_2
REMARK    2  A    between atoms: C_2  and  C_3
REMARK    3  A    between atoms: C_3  and  C_4
REMARK    4  A    between atoms: C_3  and  C_8
REMARK    5  A    between atoms: C_4  and  C_5
REMARK    6  A    between atoms: C_5  and  O_7
REMARK                            x       y       z     vdW  Elec       q    Type
REMARK                         _______ _______ _______ _____ _____    ______ ____
ROOT
ATOM      1  C   UNL     1       4.114   4.233  18.763  0.00  0.00    +0.000 C 
ENDROOT
BRANCH   1   2
ATOM      2  C   UNL     1       2.678   4.705  18.346  0.00  0.00    +0.000 C 
ATOM      3  C   UNL     1       1.568   4.156  19.271  0.00  0.00    +0.000 C 
ATOM      4  C   UNL     1       1.603   4.783  20.664  0.00  0.00    +0.000 C 
ATOM      5  C   UNL     1       1.485   6.302  20.595  0.00  0.00    +0.000 C 
ATOM      6  C   UNL     1       2.480   6.930  19.622  0.00  0.00    +0.000 C 
ATOM      7  C   UNL     1       2.495   6.235  18.261  0.00  0.00    +0.000 C 
ENDBRANCH   1   2
BRANCH   1   8
ATOM      8  C   UNL     1       4.228   2.690  18.673  0.00  0.00    +0.000 C 
BRANCH   8   9
ATOM      9  N   UNL     1       4.858   2.117  19.867  0.00  0.00    +0.000 NA
ATOM     10  H   UNL     1       4.528   2.646  20.680  0.00  0.00    +0.000 HD
ATOM     11  H   UNL     1       5.860   2.329  19.832  0.00  0.00    +0.000 HD
ENDBRANCH   8   9
ENDBRANCH   1   8
BRANCH   1  12
ATOM     12  C   UNL     1       5.250   4.920  17.974  0.00  0.00    +0.000 C 
BRANCH  12  13
ATOM     13  C   UNL     1       6.584   4.886  18.676  0.00  0.00    +0.000 C 
ATOM     14  O   UNL     1       6.802   5.388  19.773  0.00  0.00    +0.000 OA
BRANCH  13  15
ATOM     15  O   UNL     1       7.542   4.251  17.963  0.00  0.00    +0.000 OA
ATOM     16  H   UNL     1       8.066   3.625  18.514  0.00  0.00    +0.000 HD
ENDBRANCH  13  15
ENDBRANCH  12  13
ENDBRANCH   1  12
TORSDOF 6
ENDMDL
