MODEL 1
REMARK VINA RESULT:      -6.6      0.000      0.000
REMARK  Name = 
REMARK  1 active torsions:
REMARK  status: ('A' for Active; 'I' for Inactive)
REMARK    1  A    between atoms: N_11  and  C_12
REMARK                            x       y       z     vdW  Elec       q    Type
REMARK                         _______ _______ _______ _____ _____    ______ ____
ROOT
ATOM      1  O   UNL     1       6.250   5.153  19.817  0.00  0.00    +0.000 OA
ATOM      2  C   UNL     1       5.604   4.840  18.838  0.00  0.00    +0.000 C 
ATOM      3  C   UNL     1       4.167   4.555  18.872  0.00  0.00    +0.000 A 
ATOM      4  C   UNL     1       3.268   4.584  19.920  0.00  0.00    +0.000 A 
ATOM      5  C   UNL     1       1.935   4.273  19.627  0.00  0.00    +0.000 A 
ATOM      6  C   UNL     1       1.539   3.945  18.313  0.00  0.00    +0.000 A 
ATOM      7  C   UNL     1       2.468   3.921  17.270  0.00  0.00    +0.000 A 
ATOM      8  C   UNL     1       3.776   4.232  17.584  0.00  0.00    +0.000 A 
ATOM      9  C   UNL     1       4.961   4.306  16.735  0.00  0.00    +0.000 C 
ATOM     10  O   UNL     1       4.970   4.067  15.543  0.00  0.00    +0.000 OA
ATOM     11  N   UNL     1       5.988   4.680  17.542  0.00  0.00    +0.000 N 
ENDROOT
BRANCH  11  12
ATOM     12  C   UNL     1       7.306   4.905  17.063  0.00  0.00    +0.000 C 
ATOM     13  F   UNL     1       7.667   6.195  17.268  0.00  0.00    +0.000 F 
ATOM     14  F   UNL     1       8.193   4.125  17.727  0.00  0.00    +0.000 F 
ENDBRANCH  11  12
TORSDOF 1
ENDMDL
MODEL 2
REMARK VINA RESULT:      -6.5      0.135      2.340
REMARK  Name = 
REMARK  1 active torsions:
REMARK  status: ('A' for Active; 'I' for Inactive)
REMARK    1  A    between atoms: N_11  and  C_12
REMARK                            x       y       z     vdW  Elec       q    Type
REMARK                         _______ _______ _______ _____ _____    ______ ____
ROOT
ATOM      1  O   UNL     1       4.984   4.081  15.511  0.00  0.00    +0.000 OA
ATOM      2  C   UNL     1       4.987   4.290  16.707  0.00  0.00    +0.000 C 
ATOM      3  C   UNL     1       3.804   4.137  17.560  0.00  0.00    +0.000 A 
ATOM      4  C   UNL     1       2.518   3.741  17.252  0.00  0.00    +0.000 A 
ATOM      5  C   UNL     1       1.599   3.678  18.306  0.00  0.00    +0.000 A 
ATOM      6  C   UNL     1       1.983   4.007  19.623  0.00  0.00    +0.000 A 
ATOM      7  C   UNL     1       3.291   4.407  19.910  0.00  0.00    +0.000 A 
ATOM      8  C   UNL     1       4.178   4.461  18.853  0.00  0.00    +0.000 A 
ATOM      9  C   UNL     1       5.592   4.823  18.822  0.00  0.00    +0.000 C 
ATOM     10  O   UNL     1       6.234   5.173  19.793  0.00  0.00    +0.000 OA
ATOM     11  N   UNL     1       5.995   4.685  17.532  0.00  0.00    +0.000 N 
ENDROOT
BRANCH  11  12
ATOM     12  C   UNL     1       7.334   4.905  17.112  0.00  0.00    +0.000 C 
ATOM     13  F   UNL     1       7.684   6.199  17.316  0.00  0.00    +0.000 F 
ATOM     14  F   UNL     1       8.189   4.136  17.829  0.00  0.00    +0.000 F 
ENDBRANCH  11  12
TORSDOF 1
ENDMDL
MODEL 3
REMARK VINA RESULT:      -6.4      3.644      4.936
REMARK  Name = 
REMARK  1 active torsions:
REMARK  status: ('A' for Active; 'I' for Inactive)
REMARK    1  A    between atoms: N_11  and  C_12
REMARK                            x       y       z     vdW  Elec       q    Type
REMARK                         _______ _______ _______ _____ _____    ______ ____
ROOT
ATOM      1  O   UNL     1       2.997   1.984  17.716  0.00  0.00    +0.000 OA
ATOM      2  C   UNL     1       2.956   3.157  18.029  0.00  0.00    +0.000 C 
ATOM      3  C   UNL     1       3.762   4.196  17.383  0.00  0.00    +0.000 A 
ATOM      4  C   UNL     1       4.670   4.117  16.346  0.00  0.00    +0.000 A 
ATOM      5  C   UNL     1       5.277   5.310  15.935  0.00  0.00    +0.000 A 
ATOM      6  C   UNL     1       4.965   6.535  16.561  0.00  0.00    +0.000 A 
ATOM      7  C   UNL     1       4.043   6.590  17.610  0.00  0.00    +0.000 A 
ATOM      8  C   UNL     1       3.459   5.400  17.997  0.00  0.00    +0.000 A 
ATOM      9  C   UNL     1       2.467   5.125  19.032  0.00  0.00    +0.000 C 
ATOM     10  O   UNL     1       1.992   5.966  19.771  0.00  0.00    +0.000 OA
ATOM     11  N   UNL     1       2.216   3.791  18.979  0.00  0.00    +0.000 N 
ENDROOT
BRANCH  11  12
ATOM     12  C   UNL     1       1.260   3.150  19.812  0.00  0.00    +0.000 C 
ATOM     13  F   UNL     1       0.321   2.529  19.057  0.00  0.00    +0.000 F 
ATOM     14  F   UNL     1       1.856   2.204  20.577  0.00  0.00    +0.000 F 
ENDBRANCH  11  12
TORSDOF 1
ENDMDL
MODEL 4
REMARK VINA RESULT:      -6.4      1.790      1.974
REMARK  Name = 
REMARK  1 active torsions:
REMARK  status: ('A' for Active; 'I' for Inactive)
REMARK    1  A    between atoms: N_11  and  C_12
REMARK                            x       y       z     vdW  Elec       q    Type
REMARK                         _______ _______ _______ _____ _____    ______ ____
ROOT
ATOM      1  O   UNL     1       7.090   5.389  19.984  0.00  0.00    +0.000 OA
ATOM      2  C   UNL     1       6.514   5.386  18.915  0.00  0.00    +0.000 C 
ATOM      3  C   UNL     1       5.391   4.496  18.603  0.00  0.00    +0.000 A 
ATOM      4  C   UNL     1       4.756   3.543  19.374  0.00  0.00    +0.000 A 
ATOM      5  C   UNL     1       3.686   2.857  18.789  0.00  0.00    +0.000 A 
ATOM      6  C   UNL     1       3.282   3.136  17.466  0.00  0.00    +0.000 A 
ATOM      7  C   UNL     1       3.941   4.105  16.705  0.00  0.00    +0.000 A 
ATOM      8  C   UNL     1       4.994   4.768  17.305  0.00  0.00    +0.000 A 
ATOM      9  C   UNL     1       5.863   5.822  16.792  0.00  0.00    +0.000 C 
ATOM     10  O   UNL     1       5.792   6.289  15.672  0.00  0.00    +0.000 OA
ATOM     11  N   UNL     1       6.718   6.138  17.799  0.00  0.00    +0.000 N 
ENDROOT
BRANCH  11  12
ATOM     12  C   UNL     1       7.693   7.165  17.693  0.00  0.00    +0.000 C 
ATOM     13  F   UNL     1       7.092   8.378  17.616  0.00  0.00    +0.000 F 
ATOM     14  F   UNL     1       8.492   7.178  18.787  0.00  0.00    +0.000 F 
ENDBRANCH  11  12
TORSDOF 1
ENDMDL
MODEL 5
REMARK VINA RESULT:      -6.4      3.655      4.629
REMARK  Name = 
REMARK  1 active torsions:
REMARK  status: ('A' for Active; 'I' for Inactive)
REMARK    1  A    between atoms: N_11  and  C_12
REMARK                            x       y       z     vdW  Elec       q    Type
REMARK                         _______ _______ _______ _____ _____    ______ ____
ROOT
ATOM      1  O   UNL     1       2.043   6.027  19.829  0.00  0.00    +0.000 OA
ATOM      2  C   UNL     1       2.454   5.162  19.084  0.00  0.00    +0.000 C 
ATOM      3  C   UNL     1       3.454   5.400  18.039  0.00  0.00    +0.000 A 
ATOM      4  C   UNL     1       4.128   6.551  17.684  0.00  0.00    +0.000 A 
ATOM      5  C   UNL     1       5.051   6.454  16.636  0.00  0.00    +0.000 A 
ATOM      6  C   UNL     1       5.273   5.227  15.977  0.00  0.00    +0.000 A 
ATOM      7  C   UNL     1       4.577   4.075  16.353  0.00  0.00    +0.000 A 
ATOM      8  C   UNL     1       3.673   4.197  17.390  0.00  0.00    +0.000 A 
ATOM      9  C   UNL     1       2.811   3.199  18.017  0.00  0.00    +0.000 C 
ATOM     10  O   UNL     1       2.748   2.033  17.677  0.00  0.00    +0.000 OA
ATOM     11  N   UNL     1       2.139   3.840  19.007  0.00  0.00    +0.000 N 
ENDROOT
BRANCH  11  12
ATOM     12  C   UNL     1       1.232   3.180  19.879  0.00  0.00    +0.000 C 
ATOM     13  F   UNL     1       0.250   2.576  19.165  0.00  0.00    +0.000 F 
ATOM     14  F   UNL     1       1.868   2.218  20.588  0.00  0.00    +0.000 F 
ENDBRANCH  11  12
TORSDOF 1
ENDMDL
MODEL 6
REMARK VINA RESULT:      -6.4      3.599      4.556
REMARK  Name = 
REMARK  1 active torsions:
REMARK  status: ('A' for Active; 'I' for Inactive)
REMARK    1  A    between atoms: N_11  and  C_12
REMARK                            x       y       z     vdW  Elec       q    Type
REMARK                         _______ _______ _______ _____ _____    ______ ____
ROOT
ATOM      1  O   UNL     1       2.312   6.167  19.872  0.00  0.00    +0.000 OA
ATOM      2  C   UNL     1       2.721   5.269  19.164  0.00  0.00    +0.000 C 
ATOM      3  C   UNL     1       3.616   5.480  18.023  0.00  0.00    +0.000 A 
ATOM      4  C   UNL     1       4.179   6.637  17.522  0.00  0.00    +0.000 A 
ATOM      5  C   UNL     1       5.019   6.510  16.410  0.00  0.00    +0.000 A 
ATOM      6  C   UNL     1       5.273   5.247  15.834  0.00  0.00    +0.000 A 
ATOM      7  C   UNL     1       4.690   4.090  16.358  0.00  0.00    +0.000 A 
ATOM      8  C   UNL     1       3.865   4.242  17.455  0.00  0.00    +0.000 A 
ATOM      9  C   UNL     1       3.128   3.249  18.230  0.00  0.00    +0.000 C 
ATOM     10  O   UNL     1       3.119   2.057  17.989  0.00  0.00    +0.000 OA
ATOM     11  N   UNL     1       2.494   3.928  19.220  0.00  0.00    +0.000 N 
ENDROOT
BRANCH  11  12
ATOM     12  C   UNL     1       1.706   3.289  20.215  0.00  0.00    +0.000 C 
ATOM     13  F   UNL     1       2.201   3.557  21.449  0.00  0.00    +0.000 F 
ATOM     14  F   UNL     1       0.432   3.748  20.180  0.00  0.00    +0.000 F 
ENDBRANCH  11  12
TORSDOF 1
ENDMDL
MODEL 7
REMARK VINA RESULT:      -6.3      2.078      2.239
REMARK  Name = 
REMARK  1 active torsions:
REMARK  status: ('A' for Active; 'I' for Inactive)
REMARK    1  A    between atoms: N_11  and  C_12
REMARK                            x       y       z     vdW  Elec       q    Type
REMARK                         _______ _______ _______ _____ _____    ______ ____
ROOT
ATOM      1  O   UNL     1       5.708   3.854  18.985  0.00  0.00    +0.000 OA
ATOM      2  C   UNL     1       5.368   4.775  18.271  0.00  0.00    +0.000 C 
ATOM      3  C   UNL     1       4.255   5.675  18.586  0.00  0.00    +0.000 A 
ATOM      4  C   UNL     1       3.405   5.711  19.674  0.00  0.00    +0.000 A 
ATOM      5  C   UNL     1       2.435   6.719  19.695  0.00  0.00    +0.000 A 
ATOM      6  C   UNL     1       2.338   7.653  18.643  0.00  0.00    +0.000 A 
ATOM      7  C   UNL     1       3.208   7.597  17.551  0.00  0.00    +0.000 A 
ATOM      8  C   UNL     1       4.157   6.593  17.554  0.00  0.00    +0.000 A 
ATOM      9  C   UNL     1       5.201   6.274  16.585  0.00  0.00    +0.000 C 
ATOM     10  O   UNL     1       5.385   6.881  15.548  0.00  0.00    +0.000 OA
ATOM     11  N   UNL     1       5.874   5.205  17.083  0.00  0.00    +0.000 N 
ENDROOT
BRANCH  11  12
ATOM     12  C   UNL     1       7.001   4.630  16.437  0.00  0.00    +0.000 C 
ATOM     13  F   UNL     1       7.913   4.225  17.355  0.00  0.00    +0.000 F 
ATOM     14  F   UNL     1       6.633   3.539  15.722  0.00  0.00    +0.000 F 
ENDBRANCH  11  12
TORSDOF 1
ENDMDL
MODEL 8
REMARK VINA RESULT:      -6.3      3.560      4.839
REMARK  Name = 
REMARK  1 active torsions:
REMARK  status: ('A' for Active; 'I' for Inactive)
REMARK    1  A    between atoms: N_11  and  C_12
REMARK                            x       y       z     vdW  Elec       q    Type
REMARK                         _______ _______ _______ _____ _____    ______ ____
ROOT
ATOM      1  O   UNL     1       3.350   1.954  17.950  0.00  0.00    +0.000 OA
ATOM      2  C   UNL     1       3.284   3.141  18.195  0.00  0.00    +0.000 C 
ATOM      3  C   UNL     1       3.991   4.167  17.423  0.00  0.00    +0.000 A 
ATOM      4  C   UNL     1       4.816   4.057  16.321  0.00  0.00    +0.000 A 
ATOM      5  C   UNL     1       5.336   5.243  15.790  0.00  0.00    +0.000 A 
ATOM      6  C   UNL     1       5.025   6.492  16.366  0.00  0.00    +0.000 A 
ATOM      7  C   UNL     1       4.189   6.579  17.482  0.00  0.00    +0.000 A 
ATOM      8  C   UNL     1       3.688   5.395  17.987  0.00  0.00    +0.000 A 
ATOM      9  C   UNL     1       2.795   5.149  19.116  0.00  0.00    +0.000 C 
ATOM     10  O   UNL     1       2.347   6.017  19.840  0.00  0.00    +0.000 OA
ATOM     11  N   UNL     1       2.598   3.807  19.164  0.00  0.00    +0.000 N 
ENDROOT
BRANCH  11  12
ATOM     12  C   UNL     1       1.740   3.184  20.109  0.00  0.00    +0.000 C 
ATOM     13  F   UNL     1       2.175   3.429  21.370  0.00  0.00    +0.000 F 
ATOM     14  F   UNL     1       0.483   3.680  20.010  0.00  0.00    +0.000 F 
ENDBRANCH  11  12
TORSDOF 1
ENDMDL
MODEL 9
REMARK VINA RESULT:      -6.3      2.160      2.878
REMARK  Name = 
REMARK  1 active torsions:
REMARK  status: ('A' for Active; 'I' for Inactive)
REMARK    1  A    between atoms: N_11  and  C_12
REMARK                            x       y       z     vdW  Elec       q    Type
REMARK                         _______ _______ _______ _____ _____    ______ ____
ROOT
ATOM      1  O   UNL     1       5.232   6.961  15.497  0.00  0.00    +0.000 OA
ATOM      2  C   UNL     1       5.074   6.317  16.513  0.00  0.00    +0.000 C 
ATOM      3  C   UNL     1       4.077   6.647  17.536  0.00  0.00    +0.000 A 
ATOM      4  C   UNL     1       3.145   7.665  17.589  0.00  0.00    +0.000 A 
ATOM      5  C   UNL     1       2.308   7.707  18.710  0.00  0.00    +0.000 A 
ATOM      6  C   UNL     1       2.421   6.746  19.735  0.00  0.00    +0.000 A 
ATOM      7  C   UNL     1       3.372   5.725  19.660  0.00  0.00    +0.000 A 
ATOM      8  C   UNL     1       4.187   5.705  18.544  0.00  0.00    +0.000 A 
ATOM      9  C   UNL     1       5.252   4.782  18.167  0.00  0.00    +0.000 C 
ATOM     10  O   UNL     1       5.616   3.838  18.841  0.00  0.00    +0.000 OA
ATOM     11  N   UNL     1       5.713   5.201  16.960  0.00  0.00    +0.000 N 
ENDROOT
BRANCH  11  12
ATOM     12  C   UNL     1       6.731   4.519  16.241  0.00  0.00    +0.000 C 
ATOM     13  F   UNL     1       7.783   4.254  17.054  0.00  0.00    +0.000 F 
ATOM     14  F   UNL     1       6.271   3.333  15.775  0.00  0.00    +0.000 F 
ENDBRANCH  11  12
TORSDOF 1
ENDMDL
