MODEL 1
REMARK VINA RESULT:      -7.1      0.000      0.000
REMARK  Name = 
REMARK  5 active torsions:
REMARK  status: ('A' for Active; 'I' for Inactive)
REMARK    1  A    between atoms: C_1  and  N_2
REMARK    2  A    between atoms: C_3  and  S_4
REMARK    3  A    between atoms: S_4  and  C_5
REMARK    4  A    between atoms: C_5  and  C_6
REMARK    5  A    between atoms: C_14  and  C_15
REMARK                            x       y       z     vdW  Elec       q    Type
REMARK                         _______ _______ _______ _____ _____    ______ ____
ROOT
ATOM      1  C   UNL     1       4.642   5.435  16.331  0.00  0.00    +0.000 C 
ATOM      2  N   UNL     1       5.908   4.956  16.827  0.00  0.00    +0.000 N 
ATOM      3  C   UNL     1       6.320   4.846  18.130  0.00  0.00    +0.000 A 
ATOM      4  N   UNL     1       7.560   4.420  18.166  0.00  0.00    +0.000 NA
ATOM      5  N   UNL     1       7.987   4.268  16.871  0.00  0.00    +0.000 NA
ATOM      6  C   UNL     1       6.997   4.593  16.054  0.00  0.00    +0.000 A 
ENDROOT
BRANCH   6   7
ATOM      7  C   UNL     1       7.079   4.623  14.595  0.00  0.00    +0.000 A 
ATOM      8  C   UNL     1       6.338   3.745  13.807  0.00  0.00    +0.000 A 
ATOM      9  N   UNL     1       6.430   3.712  12.452  0.00  0.00    +0.000 NA
ATOM     10  C   UNL     1       7.278   4.611  11.908  0.00  0.00    +0.000 A 
ATOM     11  C   UNL     1       8.002   5.502  12.681  0.00  0.00    +0.000 A 
ATOM     12  N   UNL     1       7.927   5.526  14.034  0.00  0.00    +0.000 NA
ENDBRANCH   6   7
BRANCH   3  13
ATOM     13  S   UNL     1       5.346   5.225  19.514  0.00  0.00    +0.000 S 
BRANCH  13  14
ATOM     14  C   UNL     1       4.827   3.555  20.025  0.00  0.00    +0.000 C 
BRANCH  14  15
ATOM     15  C   UNL     1       3.325   3.362  19.982  0.00  0.00    +0.000 A 
ATOM     16  C   UNL     1       2.630   2.973  21.129  0.00  0.00    +0.000 A 
ATOM     17  C   UNL     1       1.243   2.863  21.077  0.00  0.00    +0.000 A 
ATOM     18  C   UNL     1       0.580   3.133  19.887  0.00  0.00    +0.000 A 
ATOM     19  C   UNL     1       1.340   3.500  18.790  0.00  0.00    +0.000 A 
ATOM     20  N   UNL     1       2.689   3.621  18.809  0.00  0.00    +0.000 NA
ENDBRANCH  14  15
ENDBRANCH  13  14
ENDBRANCH   3  13
TORSDOF 4
ENDMDL
MODEL 2
REMARK VINA RESULT:      -6.7      1.246      1.588
REMARK  Name = 
REMARK  5 active torsions:
REMARK  status: ('A' for Active; 'I' for Inactive)
REMARK    1  A    between atoms: C_1  and  N_2
REMARK    2  A    between atoms: C_3  and  S_4
REMARK    3  A    between atoms: S_4  and  C_5
REMARK    4  A    between atoms: C_5  and  C_6
REMARK    5  A    between atoms: C_14  and  C_15
REMARK                            x       y       z     vdW  Elec       q    Type
REMARK                         _______ _______ _______ _____ _____    ______ ____
ROOT
ATOM      1  C   UNL     1       5.143   3.580  16.615  0.00  0.00    +0.000 C 
ATOM      2  N   UNL     1       6.036   4.695  16.811  0.00  0.00    +0.000 N 
ATOM      3  C   UNL     1       6.223   5.440  17.947  0.00  0.00    +0.000 A 
ATOM      4  N   UNL     1       7.082   6.402  17.705  0.00  0.00    +0.000 NA
ATOM      5  N   UNL     1       7.451   6.312  16.387  0.00  0.00    +0.000 NA
ATOM      6  C   UNL     1       6.821   5.287  15.837  0.00  0.00    +0.000 A 
ENDROOT
BRANCH   6   7
ATOM      7  C   UNL     1       6.901   4.901  14.428  0.00  0.00    +0.000 A 
ATOM      8  C   UNL     1       6.092   3.896  13.902  0.00  0.00    +0.000 A 
ATOM      9  N   UNL     1       6.176   3.479  12.613  0.00  0.00    +0.000 NA
ATOM     10  C   UNL     1       7.090   4.123  11.855  0.00  0.00    +0.000 A 
ATOM     11  C   UNL     1       7.884   5.138  12.363  0.00  0.00    +0.000 A 
ATOM     12  N   UNL     1       7.815   5.544  13.655  0.00  0.00    +0.000 NA
ENDBRANCH   6   7
BRANCH   3  13
ATOM     13  S   UNL     1       5.434   5.152  19.463  0.00  0.00    +0.000 S 
BRANCH  13  14
ATOM     14  C   UNL     1       3.780   5.832  19.113  0.00  0.00    +0.000 C 
BRANCH  14  15
ATOM     15  C   UNL     1       2.665   4.837  19.361  0.00  0.00    +0.000 A 
ATOM     16  C   UNL     1       2.013   4.225  18.289  0.00  0.00    +0.000 A 
ATOM     17  C   UNL     1       1.034   3.268  18.547  0.00  0.00    +0.000 A 
ATOM     18  C   UNL     1       0.721   2.948  19.862  0.00  0.00    +0.000 A 
ATOM     19  C   UNL     1       1.403   3.607  20.870  0.00  0.00    +0.000 A 
ATOM     20  N   UNL     1       2.363   4.537  20.652  0.00  0.00    +0.000 NA
ENDBRANCH  14  15
ENDBRANCH  13  14
ENDBRANCH   3  13
TORSDOF 4
ENDMDL
MODEL 3
REMARK VINA RESULT:      -6.6      1.197      1.213
REMARK  Name = 
REMARK  5 active torsions:
REMARK  status: ('A' for Active; 'I' for Inactive)
REMARK    1  A    between atoms: C_1  and  N_2
REMARK    2  A    between atoms: C_3  and  S_4
REMARK    3  A    between atoms: S_4  and  C_5
REMARK    4  A    between atoms: C_5  and  C_6
REMARK    5  A    between atoms: C_14  and  C_15
REMARK                            x       y       z     vdW  Elec       q    Type
REMARK                         _______ _______ _______ _____ _____    ______ ____
ROOT
ATOM      1  C   UNL     1       5.198   3.565  16.748  0.00  0.00    +0.000 C 
ATOM      2  N   UNL     1       6.053   4.715  16.911  0.00  0.00    +0.000 N 
ATOM      3  C   UNL     1       6.238   5.479  18.034  0.00  0.00    +0.000 A 
ATOM      4  N   UNL     1       7.054   6.470  17.762  0.00  0.00    +0.000 NA
ATOM      5  N   UNL     1       7.395   6.378  16.437  0.00  0.00    +0.000 NA
ATOM      6  C   UNL     1       6.792   5.323  15.912  0.00  0.00    +0.000 A 
ENDROOT
BRANCH   6   7
ATOM      7  C   UNL     1       6.853   4.925  14.507  0.00  0.00    +0.000 A 
ATOM      8  C   UNL     1       6.009   3.943  13.992  0.00  0.00    +0.000 A 
ATOM      9  N   UNL     1       6.075   3.513  12.706  0.00  0.00    +0.000 NA
ATOM     10  C   UNL     1       7.006   4.121  11.939  0.00  0.00    +0.000 A 
ATOM     11  C   UNL     1       7.835   5.114  12.436  0.00  0.00    +0.000 A 
ATOM     12  N   UNL     1       7.784   5.532  13.725  0.00  0.00    +0.000 NA
ENDBRANCH   6   7
BRANCH   3  13
ATOM     13  S   UNL     1       5.496   5.180  19.572  0.00  0.00    +0.000 S 
BRANCH  13  14
ATOM     14  C   UNL     1       3.820   5.828  19.266  0.00  0.00    +0.000 C 
BRANCH  14  15
ATOM     15  C   UNL     1       2.744   4.768  19.380  0.00  0.00    +0.000 A 
ATOM     16  C   UNL     1       2.342   4.302  20.633  0.00  0.00    +0.000 A 
ATOM     17  C   UNL     1       1.308   3.372  20.711  0.00  0.00    +0.000 A 
ATOM     18  C   UNL     1       0.705   2.921  19.544  0.00  0.00    +0.000 A 
ATOM     19  C   UNL     1       1.168   3.421  18.339  0.00  0.00    +0.000 A 
ATOM     20  N   UNL     1       2.167   4.329  18.230  0.00  0.00    +0.000 NA
ENDBRANCH  14  15
ENDBRANCH  13  14
ENDBRANCH   3  13
TORSDOF 4
ENDMDL
MODEL 4
REMARK VINA RESULT:      -6.6      2.442      6.901
REMARK  Name = 
REMARK  5 active torsions:
REMARK  status: ('A' for Active; 'I' for Inactive)
REMARK    1  A    between atoms: C_1  and  N_2
REMARK    2  A    between atoms: C_3  and  S_4
REMARK    3  A    between atoms: S_4  and  C_5
REMARK    4  A    between atoms: C_5  and  C_6
REMARK    5  A    between atoms: C_14  and  C_15
REMARK                            x       y       z     vdW  Elec       q    Type
REMARK                         _______ _______ _______ _____ _____    ______ ____
ROOT
ATOM      1  C   UNL     1       4.028   2.577  17.136  0.00  0.00    +0.000 C 
ATOM      2  N   UNL     1       3.879   3.995  17.354  0.00  0.00    +0.000 N 
ATOM      3  C   UNL     1       4.366   5.024  16.590  0.00  0.00    +0.000 A 
ATOM      4  N   UNL     1       4.064   6.170  17.153  0.00  0.00    +0.000 NA
ATOM      5  N   UNL     1       3.391   5.900  18.317  0.00  0.00    +0.000 NA
ATOM      6  C   UNL     1       3.278   4.588  18.450  0.00  0.00    +0.000 A 
ENDROOT
BRANCH   6   7
ATOM      7  C   UNL     1       2.678   3.901  19.594  0.00  0.00    +0.000 A 
ATOM      8  C   UNL     1       3.462   3.369  20.614  0.00  0.00    +0.000 A 
ATOM      9  N   UNL     1       2.942   2.681  21.663  0.00  0.00    +0.000 NA
ATOM     10  C   UNL     1       1.596   2.564  21.668  0.00  0.00    +0.000 A 
ATOM     11  C   UNL     1       0.807   3.109  20.669  0.00  0.00    +0.000 A 
ATOM     12  N   UNL     1       1.325   3.780  19.611  0.00  0.00    +0.000 NA
ENDBRANCH   6   7
BRANCH   3  13
ATOM     13  S   UNL     1       5.253   4.830  15.113  0.00  0.00    +0.000 S 
BRANCH  13  14
ATOM     14  C   UNL     1       6.924   4.509  15.766  0.00  0.00    +0.000 C 
BRANCH  14  15
ATOM     15  C   UNL     1       7.317   5.458  16.880  0.00  0.00    +0.000 A 
ATOM     16  C   UNL     1       7.506   4.981  18.179  0.00  0.00    +0.000 A 
ATOM     17  C   UNL     1       7.927   5.864  19.171  0.00  0.00    +0.000 A 
ATOM     18  C   UNL     1       8.142   7.198  18.851  0.00  0.00    +0.000 A 
ATOM     19  C   UNL     1       7.921   7.597  17.544  0.00  0.00    +0.000 A 
ATOM     20  N   UNL     1       7.517   6.763  16.557  0.00  0.00    +0.000 NA
ENDBRANCH  14  15
ENDBRANCH  13  14
ENDBRANCH   3  13
TORSDOF 4
ENDMDL
MODEL 5
REMARK VINA RESULT:      -6.6      1.765      7.535
REMARK  Name = 
REMARK  5 active torsions:
REMARK  status: ('A' for Active; 'I' for Inactive)
REMARK    1  A    between atoms: C_1  and  N_2
REMARK    2  A    between atoms: C_3  and  S_4
REMARK    3  A    between atoms: S_4  and  C_5
REMARK    4  A    between atoms: C_5  and  C_6
REMARK    5  A    between atoms: C_14  and  C_15
REMARK                            x       y       z     vdW  Elec       q    Type
REMARK                         _______ _______ _______ _____ _____    ______ ____
ROOT
ATOM      1  C   UNL     1       3.548   6.207  18.953  0.00  0.00    +0.000 C 
ATOM      2  N   UNL     1       3.920   4.991  18.273  0.00  0.00    +0.000 N 
ATOM      3  C   UNL     1       4.613   4.856  17.098  0.00  0.00    +0.000 A 
ATOM      4  N   UNL     1       4.701   3.586  16.781  0.00  0.00    +0.000 NA
ATOM      5  N   UNL     1       4.037   2.869  17.744  0.00  0.00    +0.000 NA
ATOM      6  C   UNL     1       3.557   3.709  18.647  0.00  0.00    +0.000 A 
ENDROOT
BRANCH   6   7
ATOM      7  C   UNL     1       2.734   3.336  19.798  0.00  0.00    +0.000 A 
ATOM      8  C   UNL     1       3.303   2.829  20.964  0.00  0.00    +0.000 A 
ATOM      9  N   UNL     1       2.565   2.425  22.030  0.00  0.00    +0.000 NA
ATOM     10  C   UNL     1       1.228   2.570  21.896  0.00  0.00    +0.000 A 
ATOM     11  C   UNL     1       0.655   3.094  20.749  0.00  0.00    +0.000 A 
ATOM     12  N   UNL     1       1.388   3.480  19.676  0.00  0.00    +0.000 NA
ENDBRANCH   6   7
BRANCH   3  13
ATOM     13  S   UNL     1       5.262   6.171  16.172  0.00  0.00    +0.000 S 
BRANCH  13  14
ATOM     14  C   UNL     1       6.910   5.510  15.764  0.00  0.00    +0.000 C 
BRANCH  14  15
ATOM     15  C   UNL     1       7.002   4.978  14.348  0.00  0.00    +0.000 A 
ATOM     16  C   UNL     1       6.175   3.933  13.931  0.00  0.00    +0.000 A 
ATOM     17  C   UNL     1       6.237   3.506  12.607  0.00  0.00    +0.000 A 
ATOM     18  C   UNL     1       7.124   4.120  11.732  0.00  0.00    +0.000 A 
ATOM     19  C   UNL     1       7.919   5.140  12.223  0.00  0.00    +0.000 A 
ATOM     20  N   UNL     1       7.879   5.582  13.503  0.00  0.00    +0.000 NA
ENDBRANCH  14  15
ENDBRANCH  13  14
ENDBRANCH   3  13
TORSDOF 4
ENDMDL
MODEL 6
REMARK VINA RESULT:      -6.5      1.744      7.110
REMARK  Name = 
REMARK  5 active torsions:
REMARK  status: ('A' for Active; 'I' for Inactive)
REMARK    1  A    between atoms: C_1  and  N_2
REMARK    2  A    between atoms: C_3  and  S_4
REMARK    3  A    between atoms: S_4  and  C_5
REMARK    4  A    between atoms: C_5  and  C_6
REMARK    5  A    between atoms: C_14  and  C_15
REMARK                            x       y       z     vdW  Elec       q    Type
REMARK                         _______ _______ _______ _____ _____    ______ ____
ROOT
ATOM      1  C   UNL     1       5.593   4.415  19.113  0.00  0.00    +0.000 C 
ATOM      2  N   UNL     1       4.700   5.331  18.447  0.00  0.00    +0.000 N 
ATOM      3  C   UNL     1       5.023   6.387  17.635  0.00  0.00    +0.000 A 
ATOM      4  N   UNL     1       3.929   7.011  17.269  0.00  0.00    +0.000 NA
ATOM      5  N   UNL     1       2.868   6.379  17.865  0.00  0.00    +0.000 NA
ATOM      6  C   UNL     1       3.324   5.365  18.583  0.00  0.00    +0.000 A 
ENDROOT
BRANCH   6   7
ATOM      7  C   UNL     1       2.508   4.485  19.420  0.00  0.00    +0.000 A 
ATOM      8  C   UNL     1       2.534   4.575  20.810  0.00  0.00    +0.000 A 
ATOM      9  N   UNL     1       1.829   3.742  21.617  0.00  0.00    +0.000 NA
ATOM     10  C   UNL     1       1.073   2.822  20.979  0.00  0.00    +0.000 A 
ATOM     11  C   UNL     1       1.024   2.739  19.598  0.00  0.00    +0.000 A 
ATOM     12  N   UNL     1       1.740   3.558  18.790  0.00  0.00    +0.000 NA
ENDBRANCH   6   7
BRANCH   3  13
ATOM     13  S   UNL     1       6.636   6.828  17.174  0.00  0.00    +0.000 S 
BRANCH  13  14
ATOM     14  C   UNL     1       7.316   5.196  16.734  0.00  0.00    +0.000 C 
BRANCH  14  15
ATOM     15  C   UNL     1       7.087   4.831  15.282  0.00  0.00    +0.000 A 
ATOM     16  C   UNL     1       6.043   3.975  14.925  0.00  0.00    +0.000 A 
ATOM     17  C   UNL     1       5.818   3.705  13.577  0.00  0.00    +0.000 A 
ATOM     18  C   UNL     1       6.639   4.284  12.618  0.00  0.00    +0.000 A 
ATOM     19  C   UNL     1       7.660   5.112  13.051  0.00  0.00    +0.000 A 
ATOM     20  N   UNL     1       7.902   5.398  14.353  0.00  0.00    +0.000 NA
ENDBRANCH  14  15
ENDBRANCH  13  14
ENDBRANCH   3  13
TORSDOF 4
ENDMDL
MODEL 7
REMARK VINA RESULT:      -6.5      1.729      7.081
REMARK  Name = 
REMARK  5 active torsions:
REMARK  status: ('A' for Active; 'I' for Inactive)
REMARK    1  A    between atoms: C_1  and  N_2
REMARK    2  A    between atoms: C_3  and  S_4
REMARK    3  A    between atoms: S_4  and  C_5
REMARK    4  A    between atoms: C_5  and  C_6
REMARK    5  A    between atoms: C_14  and  C_15
REMARK                            x       y       z     vdW  Elec       q    Type
REMARK                         _______ _______ _______ _____ _____    ______ ____
ROOT
ATOM      1  C   UNL     1       5.652   4.509  19.082  0.00  0.00    +0.000 C 
ATOM      2  N   UNL     1       4.702   5.378  18.433  0.00  0.00    +0.000 N 
ATOM      3  C   UNL     1       4.955   6.440  17.604  0.00  0.00    +0.000 A 
ATOM      4  N   UNL     1       3.824   7.011  17.263  0.00  0.00    +0.000 NA
ATOM      5  N   UNL     1       2.808   6.337  17.893  0.00  0.00    +0.000 NA
ATOM      6  C   UNL     1       3.329   5.351  18.606  0.00  0.00    +0.000 A 
ENDROOT
BRANCH   6   7
ATOM      7  C   UNL     1       2.576   4.444  19.472  0.00  0.00    +0.000 A 
ATOM      8  C   UNL     1       1.677   3.518  18.948  0.00  0.00    +0.000 A 
ATOM      9  N   UNL     1       0.925   2.697  19.725  0.00  0.00    +0.000 NA
ATOM     10  C   UNL     1       1.123   2.819  21.056  0.00  0.00    +0.000 A 
ATOM     11  C   UNL     1       2.031   3.721  21.585  0.00  0.00    +0.000 A 
ATOM     12  N   UNL     1       2.769   4.555  20.813  0.00  0.00    +0.000 NA
ENDBRANCH   6   7
BRANCH   3  13
ATOM     13  S   UNL     1       6.532   6.949  17.097  0.00  0.00    +0.000 S 
BRANCH  13  14
ATOM     14  C   UNL     1       7.294   5.339  16.710  0.00  0.00    +0.000 C 
BRANCH  14  15
ATOM     15  C   UNL     1       7.093   4.919  15.268  0.00  0.00    +0.000 A 
ATOM     16  C   UNL     1       6.068   4.035  14.927  0.00  0.00    +0.000 A 
ATOM     17  C   UNL     1       5.867   3.714  13.587  0.00  0.00    +0.000 A 
ATOM     18  C   UNL     1       6.693   4.272  12.620  0.00  0.00    +0.000 A 
ATOM     19  C   UNL     1       7.695   5.130  13.038  0.00  0.00    +0.000 A 
ATOM     20  N   UNL     1       7.913   5.466  14.332  0.00  0.00    +0.000 NA
ENDBRANCH  14  15
ENDBRANCH  13  14
ENDBRANCH   3  13
TORSDOF 4
ENDMDL
MODEL 8
REMARK VINA RESULT:      -6.4      1.332      1.697
REMARK  Name = 
REMARK  5 active torsions:
REMARK  status: ('A' for Active; 'I' for Inactive)
REMARK    1  A    between atoms: C_1  and  N_2
REMARK    2  A    between atoms: C_3  and  S_4
REMARK    3  A    between atoms: S_4  and  C_5
REMARK    4  A    between atoms: C_5  and  C_6
REMARK    5  A    between atoms: C_14  and  C_15
REMARK                            x       y       z     vdW  Elec       q    Type
REMARK                         _______ _______ _______ _____ _____    ______ ____
ROOT
ATOM      1  C   UNL     1       4.762   6.875  15.644  0.00  0.00    +0.000 C 
ATOM      2  N   UNL     1       5.275   5.737  16.366  0.00  0.00    +0.000 N 
ATOM      3  C   UNL     1       5.157   5.460  17.704  0.00  0.00    +0.000 A 
ATOM      4  N   UNL     1       5.809   4.357  17.984  0.00  0.00    +0.000 NA
ATOM      5  N   UNL     1       6.389   3.908  16.824  0.00  0.00    +0.000 NA
ATOM      6  C   UNL     1       6.076   4.738  15.842  0.00  0.00    +0.000 A 
ENDROOT
BRANCH   6   7
ATOM      7  C   UNL     1       6.555   4.638  14.464  0.00  0.00    +0.000 A 
ATOM      8  C   UNL     1       5.977   3.754  13.555  0.00  0.00    +0.000 A 
ATOM      9  N   UNL     1       6.431   3.599  12.285  0.00  0.00    +0.000 NA
ATOM     10  C   UNL     1       7.477   4.383  11.945  0.00  0.00    +0.000 A 
ATOM     11  C   UNL     1       8.045   5.280  12.834  0.00  0.00    +0.000 A 
ATOM     12  N   UNL     1       7.606   5.424  14.109  0.00  0.00    +0.000 NA
ENDBRANCH   6   7
BRANCH   3  13
ATOM     13  S   UNL     1       4.284   6.430  18.845  0.00  0.00    +0.000 S 
BRANCH  13  14
ATOM     14  C   UNL     1       2.574   5.920  18.479  0.00  0.00    +0.000 C 
BRANCH  14  15
ATOM     15  C   UNL     1       2.088   4.794  19.369  0.00  0.00    +0.000 A 
ATOM     16  C   UNL     1       1.335   3.746  18.834  0.00  0.00    +0.000 A 
ATOM     17  C   UNL     1       0.955   2.693  19.663  0.00  0.00    +0.000 A 
ATOM     18  C   UNL     1       1.323   2.710  21.002  0.00  0.00    +0.000 A 
ATOM     19  C   UNL     1       2.058   3.789  21.459  0.00  0.00    +0.000 A 
ATOM     20  N   UNL     1       2.448   4.825  20.679  0.00  0.00    +0.000 NA
ENDBRANCH  14  15
ENDBRANCH  13  14
ENDBRANCH   3  13
TORSDOF 4
ENDMDL
MODEL 9
REMARK VINA RESULT:      -6.3      3.378      7.558
REMARK  Name = 
REMARK  5 active torsions:
REMARK  status: ('A' for Active; 'I' for Inactive)
REMARK    1  A    between atoms: C_1  and  N_2
REMARK    2  A    between atoms: C_3  and  S_4
REMARK    3  A    between atoms: S_4  and  C_5
REMARK    4  A    between atoms: C_5  and  C_6
REMARK    5  A    between atoms: C_14  and  C_15
REMARK                            x       y       z     vdW  Elec       q    Type
REMARK                         _______ _______ _______ _____ _____    ______ ____
ROOT
ATOM      1  C   UNL     1       2.078   5.050  18.236  0.00  0.00    +0.000 C 
ATOM      2  N   UNL     1       3.091   5.963  17.769  0.00  0.00    +0.000 N 
ATOM      3  C   UNL     1       4.253   5.668  17.104  0.00  0.00    +0.000 A 
ATOM      4  N   UNL     1       4.936   6.770  16.902  0.00  0.00    +0.000 NA
ATOM      5  N   UNL     1       4.232   7.807  17.460  0.00  0.00    +0.000 NA
ATOM      6  C   UNL     1       3.117   7.328  17.991  0.00  0.00    +0.000 A 
ENDROOT
BRANCH   6   7
ATOM      7  C   UNL     1       2.131   8.110  18.736  0.00  0.00    +0.000 A 
ATOM      8  C   UNL     1       1.376   9.105  18.120  0.00  0.00    +0.000 A 
ATOM      9  N   UNL     1       0.490   9.883  18.793  0.00  0.00    +0.000 NA
ATOM     10  C   UNL     1       0.367   9.613  20.110  0.00  0.00    +0.000 A 
ATOM     11  C   UNL     1       1.096   8.611  20.728  0.00  0.00    +0.000 A 
ATOM     12  N   UNL     1       1.996   7.845  20.062  0.00  0.00    +0.000 NA
ENDBRANCH   6   7
BRANCH   3  13
ATOM     13  S   UNL     1       4.744   4.078  16.617  0.00  0.00    +0.000 S 
BRANCH  13  14
ATOM     14  C   UNL     1       6.501   4.373  16.233  0.00  0.00    +0.000 C 
BRANCH  14  15
ATOM     15  C   UNL     1       6.786   4.402  14.746  0.00  0.00    +0.000 A 
ATOM     16  C   UNL     1       6.068   3.580  13.874  0.00  0.00    +0.000 A 
ATOM     17  C   UNL     1       6.308   3.672  12.505  0.00  0.00    +0.000 A 
ATOM     18  C   UNL     1       7.258   4.569  12.036  0.00  0.00    +0.000 A 
ATOM     19  C   UNL     1       7.936   5.340  12.964  0.00  0.00    +0.000 A 
ATOM     20  N   UNL     1       7.723   5.279  14.300  0.00  0.00    +0.000 NA
ENDBRANCH  14  15
ENDBRANCH  13  14
ENDBRANCH   3  13
TORSDOF 4
ENDMDL
