MODEL 1
REMARK VINA RESULT:      -7.3      0.000      0.000
REMARK  Name = 
REMARK  1 active torsions:
REMARK  status: ('A' for Active; 'I' for Inactive)
REMARK    1  A    between atoms: C_9  and  C_10
REMARK                            x       y       z     vdW  Elec       q    Type
REMARK                         _______ _______ _______ _____ _____    ______ ____
ROOT
ATOM      1  O   UNL     1       2.882   8.006  18.031  0.00  0.00    +0.000 OA
ATOM      2  C   UNL     1       2.735   6.973  18.660  0.00  0.00    +0.000 C 
ATOM      3  O   UNL     1       2.190   6.902  19.921  0.00  0.00    +0.000 OA
ATOM      4  C   UNL     1       2.028   5.526  20.310  0.00  0.00    +0.000 C 
ATOM      5  C   UNL     1       2.999   4.780  19.435  0.00  0.00    +0.000 C 
ATOM      6  C   UNL     1       2.734   3.311  19.133  0.00  0.00    +0.000 C 
ATOM      7  C   UNL     1       3.507   2.872  17.906  0.00  0.00    +0.000 C 
ATOM      8  C   UNL     1       4.147   3.723  17.078  0.00  0.00    +0.000 C 
ATOM      9  C   UNL     1       4.142   5.243  17.256  0.00  0.00    +0.000 C 
ATOM     10  C   UNL     1       2.947   5.582  18.150  0.00  0.00    +0.000 C 
ENDROOT
BRANCH   9  11
ATOM     11  C   UNL     1       5.494   5.773  17.732  0.00  0.00    +0.000 A 
ATOM     12  C   UNL     1       6.075   6.872  17.081  0.00  0.00    +0.000 A 
ATOM     13  C   UNL     1       7.319   7.370  17.479  0.00  0.00    +0.000 A 
ATOM     14  C   UNL     1       8.003   6.780  18.538  0.00  0.00    +0.000 A 
ATOM     15  C   UNL     1       7.439   5.698  19.207  0.00  0.00    +0.000 A 
ATOM     16  C   UNL     1       6.196   5.202  18.809  0.00  0.00    +0.000 A 
ENDBRANCH   9  11
TORSDOF 1
ENDMDL
MODEL 2
REMARK VINA RESULT:      -7.2      0.080      1.206
REMARK  Name = 
REMARK  1 active torsions:
REMARK  status: ('A' for Active; 'I' for Inactive)
REMARK    1  A    between atoms: C_9  and  C_10
REMARK                            x       y       z     vdW  Elec       q    Type
REMARK                         _______ _______ _______ _____ _____    ______ ____
ROOT
ATOM      1  O   UNL     1       2.827   8.016  18.064  0.00  0.00    +0.000 OA
ATOM      2  C   UNL     1       2.695   6.984  18.698  0.00  0.00    +0.000 C 
ATOM      3  O   UNL     1       2.190   6.916  19.976  0.00  0.00    +0.000 OA
ATOM      4  C   UNL     1       2.035   5.541  20.371  0.00  0.00    +0.000 C 
ATOM      5  C   UNL     1       2.976   4.791  19.466  0.00  0.00    +0.000 C 
ATOM      6  C   UNL     1       2.697   3.322  19.175  0.00  0.00    +0.000 C 
ATOM      7  C   UNL     1       3.429   2.880  17.925  0.00  0.00    +0.000 C 
ATOM      8  C   UNL     1       4.046   3.727  17.076  0.00  0.00    +0.000 C 
ATOM      9  C   UNL     1       4.052   5.248  17.252  0.00  0.00    +0.000 C 
ATOM     10  C   UNL     1       2.887   5.592  18.183  0.00  0.00    +0.000 C 
ENDROOT
BRANCH   9  11
ATOM     11  C   UNL     1       5.420   5.774  17.686  0.00  0.00    +0.000 A 
ATOM     12  C   UNL     1       6.088   5.163  18.758  0.00  0.00    +0.000 A 
ATOM     13  C   UNL     1       7.332   5.631  19.192  0.00  0.00    +0.000 A 
ATOM     14  C   UNL     1       7.932   6.717  18.558  0.00  0.00    +0.000 A 
ATOM     15  C   UNL     1       7.293   7.328  17.484  0.00  0.00    +0.000 A 
ATOM     16  C   UNL     1       6.051   6.860  17.052  0.00  0.00    +0.000 A 
ENDBRANCH   9  11
TORSDOF 1
ENDMDL
MODEL 3
REMARK VINA RESULT:      -7.1      2.578      3.377
REMARK  Name = 
REMARK  1 active torsions:
REMARK  status: ('A' for Active; 'I' for Inactive)
REMARK    1  A    between atoms: C_9  and  C_10
REMARK                            x       y       z     vdW  Elec       q    Type
REMARK                         _______ _______ _______ _____ _____    ______ ____
ROOT
ATOM      1  O   UNL     1       5.056   2.379  20.030  0.00  0.00    +0.000 OA
ATOM      2  C   UNL     1       4.056   2.551  19.356  0.00  0.00    +0.000 C 
ATOM      3  O   UNL     1       3.285   1.537  18.836  0.00  0.00    +0.000 OA
ATOM      4  C   UNL     1       2.105   2.083  18.219  0.00  0.00    +0.000 C 
ATOM      5  C   UNL     1       2.473   3.513  17.925  0.00  0.00    +0.000 C 
ATOM      6  C   UNL     1       1.360   4.547  17.811  0.00  0.00    +0.000 C 
ATOM      7  C   UNL     1       1.914   5.946  17.988  0.00  0.00    +0.000 C 
ATOM      8  C   UNL     1       3.166   6.209  18.414  0.00  0.00    +0.000 C 
ATOM      9  C   UNL     1       4.174   5.125  18.805  0.00  0.00    +0.000 C 
ATOM     10  C   UNL     1       3.370   3.856  19.097  0.00  0.00    +0.000 C 
ENDROOT
BRANCH   9  11
ATOM     11  C   UNL     1       5.291   4.976  17.773  0.00  0.00    +0.000 A 
ATOM     12  C   UNL     1       4.988   5.067  16.406  0.00  0.00    +0.000 A 
ATOM     13  C   UNL     1       5.983   4.916  15.436  0.00  0.00    +0.000 A 
ATOM     14  C   UNL     1       7.301   4.676  15.816  0.00  0.00    +0.000 A 
ATOM     15  C   UNL     1       7.626   4.596  17.166  0.00  0.00    +0.000 A 
ATOM     16  C   UNL     1       6.631   4.747  18.134  0.00  0.00    +0.000 A 
ENDBRANCH   9  11
TORSDOF 1
ENDMDL
MODEL 4
REMARK VINA RESULT:      -7.1      2.601      3.534
REMARK  Name = 
REMARK  1 active torsions:
REMARK  status: ('A' for Active; 'I' for Inactive)
REMARK    1  A    between atoms: C_9  and  C_10
REMARK                            x       y       z     vdW  Elec       q    Type
REMARK                         _______ _______ _______ _____ _____    ______ ____
ROOT
ATOM      1  O   UNL     1       5.011   2.273  20.020  0.00  0.00    +0.000 OA
ATOM      2  C   UNL     1       4.000   2.483  19.374  0.00  0.00    +0.000 C 
ATOM      3  O   UNL     1       3.176   1.499  18.879  0.00  0.00    +0.000 OA
ATOM      4  C   UNL     1       2.001   2.089  18.294  0.00  0.00    +0.000 C 
ATOM      5  C   UNL     1       2.415   3.503  17.986  0.00  0.00    +0.000 C 
ATOM      6  C   UNL     1       1.341   4.579  17.901  0.00  0.00    +0.000 C 
ATOM      7  C   UNL     1       1.953   5.956  18.058  0.00  0.00    +0.000 C 
ATOM      8  C   UNL     1       3.226   6.171  18.447  0.00  0.00    +0.000 C 
ATOM      9  C   UNL     1       4.202   5.050  18.813  0.00  0.00    +0.000 C 
ATOM     10  C   UNL     1       3.358   3.813  19.131  0.00  0.00    +0.000 C 
ENDROOT
BRANCH   9  11
ATOM     11  C   UNL     1       5.283   4.856  17.750  0.00  0.00    +0.000 A 
ATOM     12  C   UNL     1       6.627   4.757  18.140  0.00  0.00    +0.000 A 
ATOM     13  C   UNL     1       7.643   4.599  17.192  0.00  0.00    +0.000 A 
ATOM     14  C   UNL     1       7.331   4.531  15.836  0.00  0.00    +0.000 A 
ATOM     15  C   UNL     1       6.003   4.612  15.429  0.00  0.00    +0.000 A 
ATOM     16  C   UNL     1       4.990   4.771  16.377  0.00  0.00    +0.000 A 
ENDBRANCH   9  11
TORSDOF 1
ENDMDL
MODEL 5
REMARK VINA RESULT:      -6.9      1.203      1.564
REMARK  Name = 
REMARK  1 active torsions:
REMARK  status: ('A' for Active; 'I' for Inactive)
REMARK    1  A    between atoms: C_9  and  C_10
REMARK                            x       y       z     vdW  Elec       q    Type
REMARK                         _______ _______ _______ _____ _____    ______ ____
ROOT
ATOM      1  O   UNL     1       2.162   7.032  19.629  0.00  0.00    +0.000 OA
ATOM      2  C   UNL     1       2.221   5.857  19.944  0.00  0.00    +0.000 C 
ATOM      3  O   UNL     1       2.223   5.399  21.241  0.00  0.00    +0.000 OA
ATOM      4  C   UNL     1       2.152   3.962  21.255  0.00  0.00    +0.000 C 
ATOM      5  C   UNL     1       2.649   3.556  19.893  0.00  0.00    +0.000 C 
ATOM      6  C   UNL     1       2.203   2.217  19.320  0.00  0.00    +0.000 C 
ATOM      7  C   UNL     1       2.394   2.192  17.817  0.00  0.00    +0.000 C 
ATOM      8  C   UNL     1       2.696   3.280  17.080  0.00  0.00    +0.000 C 
ATOM      9  C   UNL     1       2.848   4.686  17.668  0.00  0.00    +0.000 C 
ATOM     10  C   UNL     1       2.132   4.682  19.020  0.00  0.00    +0.000 C 
ENDROOT
BRANCH   9  11
ATOM     11  C   UNL     1       4.305   5.146  17.694  0.00  0.00    +0.000 A 
ATOM     12  C   UNL     1       4.639   6.416  17.200  0.00  0.00    +0.000 A 
ATOM     13  C   UNL     1       5.965   6.860  17.192  0.00  0.00    +0.000 A 
ATOM     14  C   UNL     1       6.981   6.043  17.681  0.00  0.00    +0.000 A 
ATOM     15  C   UNL     1       6.670   4.786  18.189  0.00  0.00    +0.000 A 
ATOM     16  C   UNL     1       5.346   4.343  18.197  0.00  0.00    +0.000 A 
ENDBRANCH   9  11
TORSDOF 1
ENDMDL
MODEL 6
REMARK VINA RESULT:      -6.9      2.115      4.616
REMARK  Name = 
REMARK  1 active torsions:
REMARK  status: ('A' for Active; 'I' for Inactive)
REMARK    1  A    between atoms: C_9  and  C_10
REMARK                            x       y       z     vdW  Elec       q    Type
REMARK                         _______ _______ _______ _____ _____    ______ ____
ROOT
ATOM      1  O   UNL     1       7.234   5.213  20.158  0.00  0.00    +0.000 OA
ATOM      2  C   UNL     1       7.135   5.660  19.029  0.00  0.00    +0.000 C 
ATOM      3  O   UNL     1       7.725   6.826  18.600  0.00  0.00    +0.000 OA
ATOM      4  C   UNL     1       7.529   6.984  17.183  0.00  0.00    +0.000 C 
ATOM      5  C   UNL     1       6.332   6.123  16.880  0.00  0.00    +0.000 C 
ATOM      6  C   UNL     1       6.160   5.577  15.468  0.00  0.00    +0.000 C 
ATOM      7  C   UNL     1       5.214   4.394  15.467  0.00  0.00    +0.000 C 
ATOM      8  C   UNL     1       4.777   3.780  16.586  0.00  0.00    +0.000 C 
ATOM      9  C   UNL     1       5.213   4.182  17.998  0.00  0.00    +0.000 C 
ATOM     10  C   UNL     1       6.514   4.974  17.852  0.00  0.00    +0.000 C 
ENDROOT
BRANCH   9  11
ATOM     11  C   UNL     1       4.096   4.882  18.769  0.00  0.00    +0.000 A 
ATOM     12  C   UNL     1       3.526   4.253  19.887  0.00  0.00    +0.000 A 
ATOM     13  C   UNL     1       2.489   4.858  20.603  0.00  0.00    +0.000 A 
ATOM     14  C   UNL     1       2.005   6.105  20.217  0.00  0.00    +0.000 A 
ATOM     15  C   UNL     1       2.565   6.753  19.121  0.00  0.00    +0.000 A 
ATOM     16  C   UNL     1       3.601   6.148  18.406  0.00  0.00    +0.000 A 
ENDBRANCH   9  11
TORSDOF 1
ENDMDL
MODEL 7
REMARK VINA RESULT:      -6.9      2.449      4.333
REMARK  Name = 
REMARK  1 active torsions:
REMARK  status: ('A' for Active; 'I' for Inactive)
REMARK    1  A    between atoms: C_9  and  C_10
REMARK                            x       y       z     vdW  Elec       q    Type
REMARK                         _______ _______ _______ _____ _____    ______ ____
ROOT
ATOM      1  O   UNL     1       5.527   5.360  19.672  0.00  0.00    +0.000 OA
ATOM      2  C   UNL     1       4.757   4.637  19.066  0.00  0.00    +0.000 C 
ATOM      3  O   UNL     1       5.038   4.040  17.859  0.00  0.00    +0.000 OA
ATOM      4  C   UNL     1       3.975   3.140  17.496  0.00  0.00    +0.000 C 
ATOM      5  C   UNL     1       2.792   3.632  18.286  0.00  0.00    +0.000 C 
ATOM      6  C   UNL     1       1.675   2.651  18.620  0.00  0.00    +0.000 C 
ATOM      7  C   UNL     1       0.843   3.167  19.777  0.00  0.00    +0.000 C 
ATOM      8  C   UNL     1       1.190   4.224  20.539  0.00  0.00    +0.000 C 
ATOM      9  C   UNL     1       2.488   5.015  20.351  0.00  0.00    +0.000 C 
ATOM     10  C   UNL     1       3.445   4.116  19.565  0.00  0.00    +0.000 C 
ENDROOT
BRANCH   9  11
ATOM     11  C   UNL     1       2.240   6.398  19.753  0.00  0.00    +0.000 A 
ATOM     12  C   UNL     1       1.699   7.413  20.556  0.00  0.00    +0.000 A 
ATOM     13  C   UNL     1       1.441   8.685  20.035  0.00  0.00    +0.000 A 
ATOM     14  C   UNL     1       1.724   8.966  18.701  0.00  0.00    +0.000 A 
ATOM     15  C   UNL     1       2.274   7.978  17.890  0.00  0.00    +0.000 A 
ATOM     16  C   UNL     1       2.531   6.708  18.412  0.00  0.00    +0.000 A 
ENDBRANCH   9  11
TORSDOF 1
ENDMDL
MODEL 8
REMARK VINA RESULT:      -6.8      1.204      1.926
REMARK  Name = 
REMARK  1 active torsions:
REMARK  status: ('A' for Active; 'I' for Inactive)
REMARK    1  A    between atoms: C_9  and  C_10
REMARK                            x       y       z     vdW  Elec       q    Type
REMARK                         _______ _______ _______ _____ _____    ______ ____
ROOT
ATOM      1  O   UNL     1       2.157   7.050  19.605  0.00  0.00    +0.000 OA
ATOM      2  C   UNL     1       2.232   5.876  19.922  0.00  0.00    +0.000 C 
ATOM      3  O   UNL     1       2.258   5.422  21.220  0.00  0.00    +0.000 OA
ATOM      4  C   UNL     1       2.203   3.984  21.239  0.00  0.00    +0.000 C 
ATOM      5  C   UNL     1       2.684   3.580  19.871  0.00  0.00    +0.000 C 
ATOM      6  C   UNL     1       2.245   2.235  19.307  0.00  0.00    +0.000 C 
ATOM      7  C   UNL     1       2.415   2.208  17.802  0.00  0.00    +0.000 C 
ATOM      8  C   UNL     1       2.694   3.297  17.058  0.00  0.00    +0.000 C 
ATOM      9  C   UNL     1       2.840   4.706  17.640  0.00  0.00    +0.000 C 
ATOM     10  C   UNL     1       2.143   4.698  19.002  0.00  0.00    +0.000 C 
ENDROOT
BRANCH   9  11
ATOM     11  C   UNL     1       4.292   5.182  17.645  0.00  0.00    +0.000 A 
ATOM     12  C   UNL     1       5.302   4.318  18.096  0.00  0.00    +0.000 A 
ATOM     13  C   UNL     1       6.638   4.728  18.131  0.00  0.00    +0.000 A 
ATOM     14  C   UNL     1       6.989   6.009  17.711  0.00  0.00    +0.000 A 
ATOM     15  C   UNL     1       6.006   6.876  17.247  0.00  0.00    +0.000 A 
ATOM     16  C   UNL     1       4.672   6.466  17.213  0.00  0.00    +0.000 A 
ENDBRANCH   9  11
TORSDOF 1
ENDMDL
MODEL 9
REMARK VINA RESULT:      -6.8      2.117      4.447
REMARK  Name = 
REMARK  1 active torsions:
REMARK  status: ('A' for Active; 'I' for Inactive)
REMARK    1  A    between atoms: C_9  and  C_10
REMARK                            x       y       z     vdW  Elec       q    Type
REMARK                         _______ _______ _______ _____ _____    ______ ____
ROOT
ATOM      1  O   UNL     1       7.220   5.225  20.147  0.00  0.00    +0.000 OA
ATOM      2  C   UNL     1       7.137   5.666  19.015  0.00  0.00    +0.000 C 
ATOM      3  O   UNL     1       7.735   6.829  18.588  0.00  0.00    +0.000 OA
ATOM      4  C   UNL     1       7.558   6.981  17.168  0.00  0.00    +0.000 C 
ATOM      5  C   UNL     1       6.363   6.121  16.853  0.00  0.00    +0.000 C 
ATOM      6  C   UNL     1       6.209   5.569  15.442  0.00  0.00    +0.000 C 
ATOM      7  C   UNL     1       5.260   4.389  15.433  0.00  0.00    +0.000 C 
ATOM      8  C   UNL     1       4.807   3.781  16.549  0.00  0.00    +0.000 C 
ATOM      9  C   UNL     1       5.225   4.188  17.965  0.00  0.00    +0.000 C 
ATOM     10  C   UNL     1       6.529   4.977  17.833  0.00  0.00    +0.000 C 
ENDROOT
BRANCH   9  11
ATOM     11  C   UNL     1       4.099   4.895  18.718  0.00  0.00    +0.000 A 
ATOM     12  C   UNL     1       3.617   6.126  18.247  0.00  0.00    +0.000 A 
ATOM     13  C   UNL     1       2.602   6.809  18.923  0.00  0.00    +0.000 A 
ATOM     14  C   UNL     1       2.046   6.270  20.081  0.00  0.00    +0.000 A 
ATOM     15  C   UNL     1       2.498   5.044  20.557  0.00  0.00    +0.000 A 
ATOM     16  C   UNL     1       3.513   4.364  19.881  0.00  0.00    +0.000 A 
ENDBRANCH   9  11
TORSDOF 1
ENDMDL
