MODEL 1
REMARK VINA RESULT:      -8.4      0.000      0.000
REMARK  Name = 
REMARK  3 active torsions:
REMARK  status: ('A' for Active; 'I' for Inactive)
REMARK    1  A    between atoms: O_1  and  C_2
REMARK    2  A    between atoms: C_9  and  N_10
REMARK    3  A    between atoms: C_14  and  C_15
REMARK                            x       y       z     vdW  Elec       q    Type
REMARK                         _______ _______ _______ _____ _____    ______ ____
ROOT
ATOM      1  N   UNL     1       2.774   7.025  19.569  0.00  0.00    +0.000 N 
ATOM      2  C   UNL     1       1.983   8.102  19.368  0.00  0.00    +0.000 A 
ATOM      3  N   UNL     1       1.697   8.741  18.255  0.00  0.00    +0.000 NA
ATOM      4  C   UNL     1       0.825   9.715  18.626  0.00  0.00    +0.000 A 
ATOM      5  C   UNL     1       0.604   9.666  19.983  0.00  0.00    +0.000 A 
ATOM      6  O   UNL     1       1.364   8.630  20.478  0.00  0.00    +0.000 OA
ATOM      7  H   UNL     1       2.944   6.753  20.524  0.00  0.00    +0.000 HD
ENDROOT
BRANCH   1  15
ATOM      8  C   UNL     1       0.958   3.037  18.769  0.00  0.00    +0.000 C 
ATOM      9  C   UNL     1       2.020   2.000  18.440  0.00  0.00    +0.000 C 
ATOM     10  C   UNL     1       2.898   2.510  17.309  0.00  0.00    +0.000 C 
ATOM     11  C   UNL     1       3.364   3.933  17.500  0.00  0.00    +0.000 A 
ATOM     12  C   UNL     1       4.413   4.371  16.682  0.00  0.00    +0.000 A 
ATOM     13  C   UNL     1       4.889   5.664  16.791  0.00  0.00    +0.000 A 
ATOM     14  C   UNL     1       4.323   6.525  17.728  0.00  0.00    +0.000 A 
ATOM     15  C   UNL     1       3.261   6.144  18.568  0.00  0.00    +0.000 A 
ATOM     16  C   UNL     1       2.758   4.823  18.430  0.00  0.00    +0.000 A 
ATOM     17  C   UNL     1       1.616   4.321  19.292  0.00  0.00    +0.000 C 
BRANCH   8  18
ATOM     18  O   UNL     1       0.073   2.518  19.758  0.00  0.00    +0.000 OA
ATOM     19  H   UNL     1      -0.090   1.584  19.541  0.00  0.00    +0.000 HD
ENDBRANCH   8  18
ENDBRANCH   1  15
BRANCH   5  20
ATOM     20  C   UNL     1      -0.191  10.470  20.901  0.00  0.00    +0.000 A 
ATOM     21  C   UNL     1      -0.297  10.081  22.249  0.00  0.00    +0.000 A 
ATOM     22  C   UNL     1      -1.116  10.775  23.143  0.00  0.00    +0.000 A 
ATOM     23  C   UNL     1      -1.836  11.880  22.701  0.00  0.00    +0.000 A 
ATOM     24  C   UNL     1      -1.716  12.303  21.379  0.00  0.00    +0.000 A 
ATOM     25  C   UNL     1      -0.895  11.606  20.483  0.00  0.00    +0.000 A 
ENDBRANCH   5  20
TORSDOF 3
ENDMDL
MODEL 2
REMARK VINA RESULT:      -8.4      0.259      1.019
REMARK  Name = 
REMARK  3 active torsions:
REMARK  status: ('A' for Active; 'I' for Inactive)
REMARK    1  A    between atoms: O_1  and  C_2
REMARK    2  A    between atoms: C_9  and  N_10
REMARK    3  A    between atoms: C_14  and  C_15
REMARK                            x       y       z     vdW  Elec       q    Type
REMARK                         _______ _______ _______ _____ _____    ______ ____
ROOT
ATOM      1  N   UNL     1       2.851   6.863  19.646  0.00  0.00    +0.000 N 
ATOM      2  C   UNL     1       2.073   7.952  19.463  0.00  0.00    +0.000 A 
ATOM      3  N   UNL     1       1.788   8.607  18.358  0.00  0.00    +0.000 NA
ATOM      4  C   UNL     1       0.932   9.589  18.746  0.00  0.00    +0.000 A 
ATOM      5  C   UNL     1       0.719   9.528  20.103  0.00  0.00    +0.000 A 
ATOM      6  O   UNL     1       1.469   8.477  20.582  0.00  0.00    +0.000 OA
ATOM      7  H   UNL     1       3.024   6.578  20.597  0.00  0.00    +0.000 HD
ENDROOT
BRANCH   1  15
ATOM      8  C   UNL     1       0.918   2.950  18.755  0.00  0.00    +0.000 C 
ATOM      9  C   UNL     1       1.950   1.886  18.415  0.00  0.00    +0.000 C 
ATOM     10  C   UNL     1       2.854   2.389  17.301  0.00  0.00    +0.000 C 
ATOM     11  C   UNL     1       3.362   3.793  17.524  0.00  0.00    +0.000 A 
ATOM     12  C   UNL     1       4.431   4.214  16.723  0.00  0.00    +0.000 A 
ATOM     13  C   UNL     1       4.946   5.488  16.860  0.00  0.00    +0.000 A 
ATOM     14  C   UNL     1       4.399   6.349  17.809  0.00  0.00    +0.000 A 
ATOM     15  C   UNL     1       3.319   5.986  18.632  0.00  0.00    +0.000 A 
ATOM     16  C   UNL     1       2.776   4.684  18.465  0.00  0.00    +0.000 A 
ATOM     17  C   UNL     1       1.611   4.202  19.308  0.00  0.00    +0.000 C 
BRANCH   8  18
ATOM     18  O   UNL     1       0.008   2.440  19.727  0.00  0.00    +0.000 OA
ATOM     19  H   UNL     1      -0.871   2.406  19.312  0.00  0.00    +0.000 HD
ENDBRANCH   8  18
ENDBRANCH   1  15
BRANCH   5  20
ATOM     20  C   UNL     1      -0.058  10.333  21.035  0.00  0.00    +0.000 A 
ATOM     21  C   UNL     1      -0.428  11.643  20.678  0.00  0.00    +0.000 A 
ATOM     22  C   UNL     1      -1.100  12.478  21.574  0.00  0.00    +0.000 A 
ATOM     23  C   UNL     1      -1.424  12.008  22.843  0.00  0.00    +0.000 A 
ATOM     24  C   UNL     1      -1.099  10.701  23.202  0.00  0.00    +0.000 A 
ATOM     25  C   UNL     1      -0.424   9.866  22.303  0.00  0.00    +0.000 A 
ENDBRANCH   5  20
TORSDOF 3
ENDMDL
MODEL 3
REMARK VINA RESULT:      -8.3      2.009      3.210
REMARK  Name = 
REMARK  3 active torsions:
REMARK  status: ('A' for Active; 'I' for Inactive)
REMARK    1  A    between atoms: O_1  and  C_2
REMARK    2  A    between atoms: C_9  and  N_10
REMARK    3  A    between atoms: C_14  and  C_15
REMARK                            x       y       z     vdW  Elec       q    Type
REMARK                         _______ _______ _______ _____ _____    ______ ____
ROOT
ATOM      1  N   UNL     1       2.892   6.019  19.866  0.00  0.00    +0.000 N 
ATOM      2  C   UNL     1       2.306   7.220  19.671  0.00  0.00    +0.000 A 
ATOM      3  N   UNL     1       2.217   7.946  18.578  0.00  0.00    +0.000 NA
ATOM      4  C   UNL     1       1.488   9.035  18.941  0.00  0.00    +0.000 A 
ATOM      5  C   UNL     1       1.155   8.964  20.274  0.00  0.00    +0.000 A 
ATOM      6  O   UNL     1       1.695   7.794  20.762  0.00  0.00    +0.000 OA
ATOM      7  H   UNL     1       2.939   5.680  20.813  0.00  0.00    +0.000 HD
ENDROOT
BRANCH   1  15
ATOM      8  C   UNL     1       7.168   5.408  18.775  0.00  0.00    +0.000 C 
ATOM      9  C   UNL     1       7.336   5.216  17.276  0.00  0.00    +0.000 C 
ATOM     10  C   UNL     1       6.418   4.104  16.798  0.00  0.00    +0.000 C 
ATOM     11  C   UNL     1       5.007   4.217  17.322  0.00  0.00    +0.000 A 
ATOM     12  C   UNL     1       4.033   3.430  16.694  0.00  0.00    +0.000 A 
ATOM     13  C   UNL     1       2.720   3.472  17.122  0.00  0.00    +0.000 A 
ATOM     14  C   UNL     1       2.371   4.311  18.178  0.00  0.00    +0.000 A 
ATOM     15  C   UNL     1       3.307   5.114  18.853  0.00  0.00    +0.000 A 
ATOM     16  C   UNL     1       4.660   5.044  18.426  0.00  0.00    +0.000 A 
ATOM     17  C   UNL     1       5.741   5.873  19.093  0.00  0.00    +0.000 C 
BRANCH   8  18
ATOM     18  O   UNL     1       8.100   6.380  19.241  0.00  0.00    +0.000 OA
ATOM     19  H   UNL     1       7.691   6.836  19.997  0.00  0.00    +0.000 HD
ENDBRANCH   8  18
ENDBRANCH   1  15
BRANCH   5  20
ATOM     20  C   UNL     1       0.431   9.847  21.177  0.00  0.00    +0.000 A 
ATOM     21  C   UNL     1      -0.051   9.344  22.399  0.00  0.00    +0.000 A 
ATOM     22  C   UNL     1      -0.822  10.133  23.256  0.00  0.00    +0.000 A 
ATOM     23  C   UNL     1      -1.114  11.447  22.905  0.00  0.00    +0.000 A 
ATOM     24  C   UNL     1      -0.615  11.975  21.716  0.00  0.00    +0.000 A 
ATOM     25  C   UNL     1       0.157  11.182  20.858  0.00  0.00    +0.000 A 
ENDBRANCH   5  20
TORSDOF 3
ENDMDL
MODEL 4
REMARK VINA RESULT:      -8.2      2.032      3.380
REMARK  Name = 
REMARK  3 active torsions:
REMARK  status: ('A' for Active; 'I' for Inactive)
REMARK    1  A    between atoms: O_1  and  C_2
REMARK    2  A    between atoms: C_9  and  N_10
REMARK    3  A    between atoms: C_14  and  C_15
REMARK                            x       y       z     vdW  Elec       q    Type
REMARK                         _______ _______ _______ _____ _____    ______ ____
ROOT
ATOM      1  N   UNL     1       2.888   5.960  19.875  0.00  0.00    +0.000 N 
ATOM      2  C   UNL     1       2.304   7.160  19.674  0.00  0.00    +0.000 A 
ATOM      3  N   UNL     1       2.257   7.903  18.589  0.00  0.00    +0.000 NA
ATOM      4  C   UNL     1       1.507   8.983  18.938  0.00  0.00    +0.000 A 
ATOM      5  C   UNL     1       1.119   8.890  20.254  0.00  0.00    +0.000 A 
ATOM      6  O   UNL     1       1.645   7.715  20.747  0.00  0.00    +0.000 OA
ATOM      7  H   UNL     1       2.897   5.606  20.818  0.00  0.00    +0.000 HD
ENDROOT
BRANCH   1  15
ATOM      8  C   UNL     1       7.203   5.459  18.886  0.00  0.00    +0.000 C 
ATOM      9  C   UNL     1       7.413   5.282  17.390  0.00  0.00    +0.000 C 
ATOM     10  C   UNL     1       6.534   4.151  16.882  0.00  0.00    +0.000 C 
ATOM     11  C   UNL     1       5.108   4.227  17.372  0.00  0.00    +0.000 A 
ATOM     12  C   UNL     1       4.169   3.422  16.715  0.00  0.00    +0.000 A 
ATOM     13  C   UNL     1       2.845   3.429  17.111  0.00  0.00    +0.000 A 
ATOM     14  C   UNL     1       2.450   4.251  18.164  0.00  0.00    +0.000 A 
ATOM     15  C   UNL     1       3.350   5.072  18.867  0.00  0.00    +0.000 A 
ATOM     16  C   UNL     1       4.714   5.037  18.473  0.00  0.00    +0.000 A 
ATOM     17  C   UNL     1       5.757   5.888  19.171  0.00  0.00    +0.000 C 
BRANCH   8  18
ATOM     18  O   UNL     1       8.100   6.451  19.381  0.00  0.00    +0.000 OA
ATOM     19  H   UNL     1       8.978   6.258  19.010  0.00  0.00    +0.000 HD
ENDBRANCH   8  18
ENDBRANCH   1  15
BRANCH   5  20
ATOM     20  C   UNL     1       0.354   9.756  21.139  0.00  0.00    +0.000 A 
ATOM     21  C   UNL     1       0.137  11.098  20.777  0.00  0.00    +0.000 A 
ATOM     22  C   UNL     1      -0.519  11.985  21.635  0.00  0.00    +0.000 A 
ATOM     23  C   UNL     1      -0.978  11.536  22.869  0.00  0.00    +0.000 A 
ATOM     24  C   UNL     1      -0.805  10.201  23.230  0.00  0.00    +0.000 A 
ATOM     25  C   UNL     1      -0.147   9.314  22.369  0.00  0.00    +0.000 A 
ENDBRANCH   5  20
TORSDOF 3
ENDMDL
MODEL 5
REMARK VINA RESULT:      -8.1      2.502      8.110
REMARK  Name = 
REMARK  3 active torsions:
REMARK  status: ('A' for Active; 'I' for Inactive)
REMARK    1  A    between atoms: O_1  and  C_2
REMARK    2  A    between atoms: C_9  and  N_10
REMARK    3  A    between atoms: C_14  and  C_15
REMARK                            x       y       z     vdW  Elec       q    Type
REMARK                         _______ _______ _______ _____ _____    ______ ____
ROOT
ATOM      1  N   UNL     1       1.155  10.045  18.157  0.00  0.00    +0.000 N 
ATOM      2  C   UNL     1       1.743   8.886  18.522  0.00  0.00    +0.000 A 
ATOM      3  N   UNL     1       1.712   8.252  19.674  0.00  0.00    +0.000 NA
ATOM      4  C   UNL     1       2.439   7.122  19.471  0.00  0.00    +0.000 A 
ATOM      5  C   UNL     1       2.926   7.093  18.185  0.00  0.00    +0.000 A 
ATOM      6  O   UNL     1       2.492   8.243  17.563  0.00  0.00    +0.000 OA
ATOM      7  H   UNL     1       1.393  10.414  17.250  0.00  0.00    +0.000 HD
ENDROOT
BRANCH   1  15
ATOM      8  C   UNL     1      -3.100   9.934  16.840  0.00  0.00    +0.000 C 
ATOM      9  C   UNL     1      -3.783  11.274  17.058  0.00  0.00    +0.000 C 
ATOM     10  C   UNL     1      -3.602  11.710  18.503  0.00  0.00    +0.000 C 
ATOM     11  C   UNL     1      -2.183  11.573  19.002  0.00  0.00    +0.000 A 
ATOM     12  C   UNL     1      -1.865  12.233  20.196  0.00  0.00    +0.000 A 
ATOM     13  C   UNL     1      -0.590  12.148  20.721  0.00  0.00    +0.000 A 
ATOM     14  C   UNL     1       0.379  11.407  20.049  0.00  0.00    +0.000 A 
ATOM     15  C   UNL     1       0.115  10.715  18.854  0.00  0.00    +0.000 A 
ATOM     16  C   UNL     1      -1.206  10.783  18.335  0.00  0.00    +0.000 A 
ATOM     17  C   UNL     1      -1.586  10.070  17.052  0.00  0.00    +0.000 C 
BRANCH   8  18
ATOM     18  O   UNL     1      -3.355   9.477  15.514  0.00  0.00    +0.000 OA
ATOM     19  H   UNL     1      -3.715   8.575  15.583  0.00  0.00    +0.000 HD
ENDBRANCH   8  18
ENDBRANCH   1  15
BRANCH   5  20
ATOM     20  C   UNL     1       3.772   6.161  17.452  0.00  0.00    +0.000 A 
ATOM     21  C   UNL     1       4.759   6.660  16.582  0.00  0.00    +0.000 A 
ATOM     22  C   UNL     1       5.535   5.803  15.797  0.00  0.00    +0.000 A 
ATOM     23  C   UNL     1       5.340   4.428  15.880  0.00  0.00    +0.000 A 
ATOM     24  C   UNL     1       4.393   3.913  16.763  0.00  0.00    +0.000 A 
ATOM     25  C   UNL     1       3.615   4.773  17.548  0.00  0.00    +0.000 A 
ENDBRANCH   5  20
TORSDOF 3
ENDMDL
MODEL 6
REMARK VINA RESULT:      -8.0      1.677      3.150
REMARK  Name = 
REMARK  3 active torsions:
REMARK  status: ('A' for Active; 'I' for Inactive)
REMARK    1  A    between atoms: O_1  and  C_2
REMARK    2  A    between atoms: C_9  and  N_10
REMARK    3  A    between atoms: C_14  and  C_15
REMARK                            x       y       z     vdW  Elec       q    Type
REMARK                         _______ _______ _______ _____ _____    ______ ____
ROOT
ATOM      1  N   UNL     1       2.710   6.382  19.870  0.00  0.00    +0.000 N 
ATOM      2  C   UNL     1       2.072   7.543  19.608  0.00  0.00    +0.000 A 
ATOM      3  N   UNL     1       1.766   8.094  18.453  0.00  0.00    +0.000 NA
ATOM      4  C   UNL     1       1.094   9.231  18.776  0.00  0.00    +0.000 A 
ATOM      5  C   UNL     1       1.015   9.367  20.143  0.00  0.00    +0.000 A 
ATOM      6  O   UNL     1       1.662   8.282  20.693  0.00  0.00    +0.000 OA
ATOM      7  H   UNL     1       2.940   6.192  20.832  0.00  0.00    +0.000 HD
ENDROOT
BRANCH   1  15
ATOM      8  C   UNL     1       6.242   6.305  17.155  0.00  0.00    +0.000 C 
ATOM      9  C   UNL     1       5.878   5.748  15.788  0.00  0.00    +0.000 C 
ATOM     10  C   UNL     1       5.203   4.396  15.951  0.00  0.00    +0.000 C 
ATOM     11  C   UNL     1       4.124   4.383  17.007  0.00  0.00    +0.000 A 
ATOM     12  C   UNL     1       3.250   3.288  17.006  0.00  0.00    +0.000 A 
ATOM     13  C   UNL     1       2.243   3.200  17.947  0.00  0.00    +0.000 A 
ATOM     14  C   UNL     1       2.097   4.213  18.891  0.00  0.00    +0.000 A 
ATOM     15  C   UNL     1       2.950   5.330  18.947  0.00  0.00    +0.000 A 
ATOM     16  C   UNL     1       4.001   5.399  17.995  0.00  0.00    +0.000 A 
ATOM     17  C   UNL     1       4.971   6.565  17.976  0.00  0.00    +0.000 C 
BRANCH   8  18
ATOM     18  O   UNL     1       6.965   7.523  16.998  0.00  0.00    +0.000 OA
ATOM     19  H   UNL     1       7.822   7.302  16.596  0.00  0.00    +0.000 HD
ENDBRANCH   8  18
ENDBRANCH   1  15
BRANCH   5  20
ATOM     20  C   UNL     1       0.452  10.384  21.020  0.00  0.00    +0.000 A 
ATOM     21  C   UNL     1      -0.313   9.990  22.134  0.00  0.00    +0.000 A 
ATOM     22  C   UNL     1      -0.941  10.933  22.952  0.00  0.00    +0.000 A 
ATOM     23  C   UNL     1      -0.802  12.289  22.674  0.00  0.00    +0.000 A 
ATOM     24  C   UNL     1      -0.018  12.699  21.597  0.00  0.00    +0.000 A 
ATOM     25  C   UNL     1       0.610  11.753  20.776  0.00  0.00    +0.000 A 
ENDBRANCH   5  20
TORSDOF 3
ENDMDL
MODEL 7
REMARK VINA RESULT:      -8.0      2.487      8.071
REMARK  Name = 
REMARK  3 active torsions:
REMARK  status: ('A' for Active; 'I' for Inactive)
REMARK    1  A    between atoms: O_1  and  C_2
REMARK    2  A    between atoms: C_9  and  N_10
REMARK    3  A    between atoms: C_14  and  C_15
REMARK                            x       y       z     vdW  Elec       q    Type
REMARK                         _______ _______ _______ _____ _____    ______ ____
ROOT
ATOM      1  N   UNL     1       1.185  10.043  18.171  0.00  0.00    +0.000 N 
ATOM      2  C   UNL     1       1.771   8.874  18.510  0.00  0.00    +0.000 A 
ATOM      3  N   UNL     1       1.732   8.211  19.646  0.00  0.00    +0.000 NA
ATOM      4  C   UNL     1       2.460   7.086  19.417  0.00  0.00    +0.000 A 
ATOM      5  C   UNL     1       2.954   7.089  18.133  0.00  0.00    +0.000 A 
ATOM      6  O   UNL     1       2.525   8.255  17.540  0.00  0.00    +0.000 OA
ATOM      7  H   UNL     1       1.429  10.435  17.276  0.00  0.00    +0.000 HD
ENDROOT
BRANCH   1  15
ATOM      8  C   UNL     1      -3.067   9.938  16.849  0.00  0.00    +0.000 C 
ATOM      9  C   UNL     1      -3.757  11.271  17.091  0.00  0.00    +0.000 C 
ATOM     10  C   UNL     1      -3.578  11.682  18.543  0.00  0.00    +0.000 C 
ATOM     11  C   UNL     1      -2.160  11.541  19.041  0.00  0.00    +0.000 A 
ATOM     12  C   UNL     1      -1.845  12.181  20.247  0.00  0.00    +0.000 A 
ATOM     13  C   UNL     1      -0.571  12.091  20.772  0.00  0.00    +0.000 A 
ATOM     14  C   UNL     1       0.402  11.367  20.088  0.00  0.00    +0.000 A 
ATOM     15  C   UNL     1       0.142  10.695  18.880  0.00  0.00    +0.000 A 
ATOM     16  C   UNL     1      -1.178  10.768  18.361  0.00  0.00    +0.000 A 
ATOM     17  C   UNL     1      -1.554  10.077  17.064  0.00  0.00    +0.000 C 
BRANCH   8  18
ATOM     18  O   UNL     1      -3.320   9.504  15.514  0.00  0.00    +0.000 OA
ATOM     19  H   UNL     1      -2.552   8.978  15.231  0.00  0.00    +0.000 HD
ENDBRANCH   8  18
ENDBRANCH   1  15
BRANCH   5  20
ATOM     20  C   UNL     1       3.804   6.176  17.382  0.00  0.00    +0.000 A 
ATOM     21  C   UNL     1       3.608   4.788  17.505  0.00  0.00    +0.000 A 
ATOM     22  C   UNL     1       4.453   3.876  16.869  0.00  0.00    +0.000 A 
ATOM     23  C   UNL     1       5.505   4.342  16.086  0.00  0.00    +0.000 A 
ATOM     24  C   UNL     1       5.692   5.713  15.921  0.00  0.00    +0.000 A 
ATOM     25  C   UNL     1       4.845   6.626  16.561  0.00  0.00    +0.000 A 
ENDBRANCH   5  20
TORSDOF 3
ENDMDL
MODEL 8
REMARK VINA RESULT:      -7.9      6.354      7.962
REMARK  Name = 
REMARK  3 active torsions:
REMARK  status: ('A' for Active; 'I' for Inactive)
REMARK    1  A    between atoms: O_1  and  C_2
REMARK    2  A    between atoms: C_9  and  N_10
REMARK    3  A    between atoms: C_14  and  C_15
REMARK                            x       y       z     vdW  Elec       q    Type
REMARK                         _______ _______ _______ _____ _____    ______ ____
ROOT
ATOM      1  N   UNL     1       7.853   6.371  18.607  0.00  0.00    +0.000 N 
ATOM      2  C   UNL     1       7.948   7.680  18.289  0.00  0.00    +0.000 A 
ATOM      3  N   UNL     1       7.225   8.399  17.457  0.00  0.00    +0.000 NA
ATOM      4  C   UNL     1       7.728   9.658  17.558  0.00  0.00    +0.000 A 
ATOM      5  C   UNL     1       8.776   9.684  18.449  0.00  0.00    +0.000 A 
ATOM      6  O   UNL     1       8.938   8.399  18.918  0.00  0.00    +0.000 OA
ATOM      7  H   UNL     1       8.578   5.988  19.193  0.00  0.00    +0.000 HD
ENDROOT
BRANCH   1  15
ATOM      8  C   UNL     1       7.063   4.682  14.561  0.00  0.00    +0.000 C 
ATOM      9  C   UNL     1       5.574   4.638  14.259  0.00  0.00    +0.000 C 
ATOM     10  C   UNL     1       4.848   3.909  15.378  0.00  0.00    +0.000 C 
ATOM     11  C   UNL     1       5.257   4.363  16.759  0.00  0.00    +0.000 A 
ATOM     12  C   UNL     1       4.430   3.978  17.822  0.00  0.00    +0.000 A 
ATOM     13  C   UNL     1       4.741   4.346  19.116  0.00  0.00    +0.000 A 
ATOM     14  C   UNL     1       5.880   5.112  19.355  0.00  0.00    +0.000 A 
ATOM     15  C   UNL     1       6.753   5.517  18.329  0.00  0.00    +0.000 A 
ATOM     16  C   UNL     1       6.442   5.110  17.005  0.00  0.00    +0.000 A 
ATOM     17  C   UNL     1       7.322   5.500  15.833  0.00  0.00    +0.000 C 
BRANCH   8  18
ATOM     18  O   UNL     1       7.756   5.276  13.465  0.00  0.00    +0.000 OA
ATOM     19  H   UNL     1       7.912   6.209  13.692  0.00  0.00    +0.000 HD
ENDBRANCH   8  18
ENDBRANCH   1  15
BRANCH   5  20
ATOM     20  C   UNL     1       9.680  10.730  18.905  0.00  0.00    +0.000 A 
ATOM     21  C   UNL     1      10.524  11.369  17.978  0.00  0.00    +0.000 A 
ATOM     22  C   UNL     1      11.466  12.317  18.386  0.00  0.00    +0.000 A 
ATOM     23  C   UNL     1      11.569  12.650  19.734  0.00  0.00    +0.000 A 
ATOM     24  C   UNL     1      10.716  12.054  20.662  0.00  0.00    +0.000 A 
ATOM     25  C   UNL     1       9.774  11.103  20.251  0.00  0.00    +0.000 A 
ENDBRANCH   5  20
TORSDOF 3
ENDMDL
MODEL 9
REMARK VINA RESULT:      -7.9      4.881      7.124
REMARK  Name = 
REMARK  3 active torsions:
REMARK  status: ('A' for Active; 'I' for Inactive)
REMARK    1  A    between atoms: O_1  and  C_2
REMARK    2  A    between atoms: C_9  and  N_10
REMARK    3  A    between atoms: C_14  and  C_15
REMARK                            x       y       z     vdW  Elec       q    Type
REMARK                         _______ _______ _______ _____ _____    ______ ____
ROOT
ATOM      1  N   UNL     1       6.312   7.367  16.591  0.00  0.00    +0.000 N 
ATOM      2  C   UNL     1       7.227   7.683  17.532  0.00  0.00    +0.000 A 
ATOM      3  N   UNL     1       7.773   6.931  18.463  0.00  0.00    +0.000 NA
ATOM      4  C   UNL     1       8.654   7.748  19.099  0.00  0.00    +0.000 A 
ATOM      5  C   UNL     1       8.618   9.009  18.551  0.00  0.00    +0.000 A 
ATOM      6  O   UNL     1       7.682   8.982  17.541  0.00  0.00    +0.000 OA
ATOM      7  H   UNL     1       5.944   8.123  16.036  0.00  0.00    +0.000 HD
ENDROOT
BRANCH   1  15
ATOM      8  C   UNL     1       2.706   5.307  18.204  0.00  0.00    +0.000 C 
ATOM      9  C   UNL     1       2.964   3.824  18.419  0.00  0.00    +0.000 C 
ATOM     10  C   UNL     1       3.498   3.208  17.136  0.00  0.00    +0.000 C 
ATOM     11  C   UNL     1       4.603   4.012  16.494  0.00  0.00    +0.000 A 
ATOM     12  C   UNL     1       5.355   3.372  15.500  0.00  0.00    +0.000 A 
ATOM     13  C   UNL     1       6.377   4.044  14.859  0.00  0.00    +0.000 A 
ATOM     14  C   UNL     1       6.660   5.361  15.216  0.00  0.00    +0.000 A 
ATOM     15  C   UNL     1       5.932   6.056  16.197  0.00  0.00    +0.000 A 
ATOM     16  C   UNL     1       4.864   5.369  16.831  0.00  0.00    +0.000 A 
ATOM     17  C   UNL     1       4.023   6.035  17.902  0.00  0.00    +0.000 C 
BRANCH   8  18
ATOM     18  O   UNL     1       2.111   5.864  19.373  0.00  0.00    +0.000 OA
ATOM     19  H   UNL     1       1.147   5.769  19.282  0.00  0.00    +0.000 HD
ENDBRANCH   8  18
ENDBRANCH   1  15
BRANCH   5  20
ATOM     20  C   UNL     1       9.306  10.256  18.854  0.00  0.00    +0.000 A 
ATOM     21  C   UNL     1       9.811  11.041  17.801  0.00  0.00    +0.000 A 
ATOM     22  C   UNL     1      10.551  12.200  18.049  0.00  0.00    +0.000 A 
ATOM     23  C   UNL     1      10.787  12.598  19.361  0.00  0.00    +0.000 A 
ATOM     24  C   UNL     1      10.263  11.854  20.417  0.00  0.00    +0.000 A 
ATOM     25  C   UNL     1       9.523  10.692  20.166  0.00  0.00    +0.000 A 
ENDBRANCH   5  20
TORSDOF 3
ENDMDL
