MODEL 1
REMARK VINA RESULT:      -6.5      0.000      0.000
REMARK  Name = 
REMARK  6 active torsions:
REMARK  status: ('A' for Active; 'I' for Inactive)
REMARK    1  A    between atoms: C_6  and  S_7
REMARK    2  A    between atoms: S_7  and  C_8
REMARK    3  A    between atoms: C_8  and  C_9
REMARK    4  A    between atoms: C_9  and  C_10
REMARK    5  A    between atoms: C_10  and  C_11
REMARK    6  A    between atoms: C_11  and  N_12
REMARK                            x       y       z     vdW  Elec       q    Type
REMARK                         _______ _______ _______ _____ _____    ______ ____
ROOT
ATOM      1  S   UNL     1       5.905   5.277  17.937  0.00  0.00    +0.000 S 
ENDROOT
BRANCH   1   7
ATOM      2  C   UNL     1       6.411   3.637  11.983  0.00  0.00    +0.000 A 
ATOM      3  C   UNL     1       7.485   4.537  11.993  0.00  0.00    +0.000 A 
ATOM      4  C   UNL     1       7.841   5.238  13.154  0.00  0.00    +0.000 A 
ATOM      5  C   UNL     1       7.065   4.977  14.277  0.00  0.00    +0.000 A 
ATOM      6  O   UNL     1       7.187   5.513  15.528  0.00  0.00    +0.000 OA
ATOM      7  C   UNL     1       6.178   4.919  16.250  0.00  0.00    +0.000 A 
ATOM      8  N   UNL     1       5.446   4.065  15.561  0.00  0.00    +0.000 NA
ATOM      9  C   UNL     1       5.998   4.093  14.307  0.00  0.00    +0.000 A 
ATOM     10  C   UNL     1       5.654   3.402  13.140  0.00  0.00    +0.000 A 
ENDBRANCH   1   7
BRANCH   1  11
ATOM     11  C   UNL     1       4.553   6.489  17.819  0.00  0.00    +0.000 C 
BRANCH  11  12
ATOM     12  C   UNL     1       3.380   6.049  18.701  0.00  0.00    +0.000 C 
BRANCH  12  13
ATOM     13  C   UNL     1       2.331   5.268  17.900  0.00  0.00    +0.000 C 
BRANCH  13  14
ATOM     14  C   UNL     1       2.490   3.755  18.081  0.00  0.00    +0.000 C 
BRANCH  14  15
ATOM     15  N   UNL     1       2.275   3.332  19.452  0.00  0.00    +0.000 N 
ATOM     16  C   UNL     1       3.218   2.848  20.314  0.00  0.00    +0.000 A 
ATOM     17  C   UNL     1       2.542   2.627  21.492  0.00  0.00    +0.000 A 
ATOM     18  N   UNL     1       1.221   2.970  21.366  0.00  0.00    +0.000 NA
ATOM     19  C   UNL     1       1.092   3.398  20.130  0.00  0.00    +0.000 A 
ENDBRANCH  14  15
ENDBRANCH  13  14
ENDBRANCH  12  13
ENDBRANCH  11  12
ENDBRANCH   1  11
TORSDOF 6
ENDMDL
MODEL 2
REMARK VINA RESULT:      -6.5      0.738      1.035
REMARK  Name = 
REMARK  6 active torsions:
REMARK  status: ('A' for Active; 'I' for Inactive)
REMARK    1  A    between atoms: C_6  and  S_7
REMARK    2  A    between atoms: S_7  and  C_8
REMARK    3  A    between atoms: C_8  and  C_9
REMARK    4  A    between atoms: C_9  and  C_10
REMARK    5  A    between atoms: C_10  and  C_11
REMARK    6  A    between atoms: C_11  and  N_12
REMARK                            x       y       z     vdW  Elec       q    Type
REMARK                         _______ _______ _______ _____ _____    ______ ____
ROOT
ATOM      1  S   UNL     1       6.470   4.750  18.130  0.00  0.00    +0.000 S 
ENDROOT
BRANCH   1   7
ATOM      2  C   UNL     1       6.511   3.757  12.015  0.00  0.00    +0.000 A 
ATOM      3  C   UNL     1       7.448   4.798  12.014  0.00  0.00    +0.000 A 
ATOM      4  C   UNL     1       7.836   5.433  13.202  0.00  0.00    +0.000 A 
ATOM      5  C   UNL     1       7.235   4.960  14.363  0.00  0.00    +0.000 A 
ATOM      6  O   UNL     1       7.426   5.390  15.645  0.00  0.00    +0.000 OA
ATOM      7  C   UNL     1       6.595   4.592  16.396  0.00  0.00    +0.000 A 
ATOM      8  N   UNL     1       5.910   3.709  15.697  0.00  0.00    +0.000 NA
ATOM      9  C   UNL     1       6.307   3.932  14.404  0.00  0.00    +0.000 A 
ATOM     10  C   UNL     1       5.928   3.309  13.210  0.00  0.00    +0.000 A 
ENDBRANCH   1   7
BRANCH   1  11
ATOM     11  C   UNL     1       4.966   5.764  18.278  0.00  0.00    +0.000 C 
BRANCH  11  12
ATOM     12  C   UNL     1       3.940   5.329  17.227  0.00  0.00    +0.000 C 
BRANCH  12  13
ATOM     13  C   UNL     1       2.667   4.771  17.875  0.00  0.00    +0.000 C 
BRANCH  13  14
ATOM     14  C   UNL     1       2.843   3.312  18.305  0.00  0.00    +0.000 C 
BRANCH  14  15
ATOM     15  N   UNL     1       2.468   3.088  19.688  0.00  0.00    +0.000 N 
ATOM     16  C   UNL     1       1.207   3.142  20.211  0.00  0.00    +0.000 A 
ATOM     17  C   UNL     1       1.361   2.823  21.542  0.00  0.00    +0.000 A 
ATOM     18  N   UNL     1       2.676   2.573  21.832  0.00  0.00    +0.000 NA
ATOM     19  C   UNL     1       3.318   2.733  20.697  0.00  0.00    +0.000 A 
ENDBRANCH  14  15
ENDBRANCH  13  14
ENDBRANCH  12  13
ENDBRANCH  11  12
ENDBRANCH   1  11
TORSDOF 6
ENDMDL
MODEL 3
REMARK VINA RESULT:      -6.5      1.136      1.463
REMARK  Name = 
REMARK  6 active torsions:
REMARK  status: ('A' for Active; 'I' for Inactive)
REMARK    1  A    between atoms: C_6  and  S_7
REMARK    2  A    between atoms: S_7  and  C_8
REMARK    3  A    between atoms: C_8  and  C_9
REMARK    4  A    between atoms: C_9  and  C_10
REMARK    5  A    between atoms: C_10  and  C_11
REMARK    6  A    between atoms: C_11  and  N_12
REMARK                            x       y       z     vdW  Elec       q    Type
REMARK                         _______ _______ _______ _____ _____    ______ ____
ROOT
ATOM      1  S   UNL     1       6.330   4.680  17.909  0.00  0.00    +0.000 S 
ENDROOT
BRANCH   1   7
ATOM      2  C   UNL     1       6.585   3.772  11.786  0.00  0.00    +0.000 A 
ATOM      3  C   UNL     1       7.532   4.804  11.835  0.00  0.00    +0.000 A 
ATOM      4  C   UNL     1       7.883   5.418  13.044  0.00  0.00    +0.000 A 
ATOM      5  C   UNL     1       7.235   4.935  14.175  0.00  0.00    +0.000 A 
ATOM      6  O   UNL     1       7.383   5.345  15.470  0.00  0.00    +0.000 OA
ATOM      7  C   UNL     1       6.516   4.545  16.178  0.00  0.00    +0.000 A 
ATOM      8  N   UNL     1       5.849   3.679  15.442  0.00  0.00    +0.000 NA
ATOM      9  C   UNL     1       6.296   3.916  14.168  0.00  0.00    +0.000 A 
ATOM     10  C   UNL     1       5.955   3.314  12.952  0.00  0.00    +0.000 A 
ENDBRANCH   1   7
BRANCH   1  11
ATOM     11  C   UNL     1       5.490   6.289  18.042  0.00  0.00    +0.000 C 
BRANCH  11  12
ATOM     12  C   UNL     1       4.184   6.262  17.242  0.00  0.00    +0.000 C 
BRANCH  12  13
ATOM     13  C   UNL     1       2.956   6.294  18.160  0.00  0.00    +0.000 C 
BRANCH  13  14
ATOM     14  C   UNL     1       2.068   5.063  17.962  0.00  0.00    +0.000 C 
BRANCH  14  15
ATOM     15  N   UNL     1       2.692   3.843  18.440  0.00  0.00    +0.000 N 
ATOM     16  C   UNL     1       2.980   2.730  17.701  0.00  0.00    +0.000 A 
ATOM     17  C   UNL     1       3.595   1.869  18.582  0.00  0.00    +0.000 A 
ATOM     18  N   UNL     1       3.690   2.434  19.827  0.00  0.00    +0.000 NA
ATOM     19  C   UNL     1       3.145   3.624  19.709  0.00  0.00    +0.000 A 
ENDBRANCH  14  15
ENDBRANCH  13  14
ENDBRANCH  12  13
ENDBRANCH  11  12
ENDBRANCH   1  11
TORSDOF 6
ENDMDL
MODEL 4
REMARK VINA RESULT:      -6.5      1.131      1.680
REMARK  Name = 
REMARK  6 active torsions:
REMARK  status: ('A' for Active; 'I' for Inactive)
REMARK    1  A    between atoms: C_6  and  S_7
REMARK    2  A    between atoms: S_7  and  C_8
REMARK    3  A    between atoms: C_8  and  C_9
REMARK    4  A    between atoms: C_9  and  C_10
REMARK    5  A    between atoms: C_10  and  C_11
REMARK    6  A    between atoms: C_11  and  N_12
REMARK                            x       y       z     vdW  Elec       q    Type
REMARK                         _______ _______ _______ _____ _____    ______ ____
ROOT
ATOM      1  S   UNL     1       6.805   4.902  17.921  0.00  0.00    +0.000 S 
ENDROOT
BRANCH   1   7
ATOM      2  C   UNL     1       7.296   4.622  11.751  0.00  0.00    +0.000 A 
ATOM      3  C   UNL     1       6.342   3.605  11.882  0.00  0.00    +0.000 A 
ATOM      4  C   UNL     1       5.843   3.228  13.136  0.00  0.00    +0.000 A 
ATOM      5  C   UNL     1       6.354   3.927  14.223  0.00  0.00    +0.000 A 
ATOM      6  O   UNL     1       6.048   3.769  15.545  0.00  0.00    +0.000 OA
ATOM      7  C   UNL     1       6.829   4.701  16.187  0.00  0.00    +0.000 A 
ATOM      8  N   UNL     1       7.587   5.421  15.384  0.00  0.00    +0.000 NA
ATOM      9  C   UNL     1       7.295   4.939  14.134  0.00  0.00    +0.000 A 
ATOM     10  C   UNL     1       7.786   5.304  12.875  0.00  0.00    +0.000 A 
ENDBRANCH   1   7
BRANCH   1  11
ATOM     11  C   UNL     1       5.025   4.740  18.263  0.00  0.00    +0.000 C 
BRANCH  11  12
ATOM     12  C   UNL     1       4.280   5.974  17.741  0.00  0.00    +0.000 C 
BRANCH  12  13
ATOM     13  C   UNL     1       2.925   6.153  18.436  0.00  0.00    +0.000 C 
BRANCH  13  14
ATOM     14  C   UNL     1       2.050   4.903  18.302  0.00  0.00    +0.000 C 
BRANCH  14  15
ATOM     15  N   UNL     1       1.965   4.146  19.536  0.00  0.00    +0.000 N 
ATOM     16  C   UNL     1       1.698   2.811  19.658  0.00  0.00    +0.000 A 
ATOM     17  C   UNL     1       1.764   2.558  21.010  0.00  0.00    +0.000 A 
ATOM     18  N   UNL     1       2.070   3.701  21.703  0.00  0.00    +0.000 NA
ATOM     19  C   UNL     1       2.192   4.637  20.790  0.00  0.00    +0.000 A 
ENDBRANCH  14  15
ENDBRANCH  13  14
ENDBRANCH  12  13
ENDBRANCH  11  12
ENDBRANCH   1  11
TORSDOF 6
ENDMDL
MODEL 5
REMARK VINA RESULT:      -6.4      5.114      8.492
REMARK  Name = 
REMARK  6 active torsions:
REMARK  status: ('A' for Active; 'I' for Inactive)
REMARK    1  A    between atoms: C_6  and  S_7
REMARK    2  A    between atoms: S_7  and  C_8
REMARK    3  A    between atoms: C_8  and  C_9
REMARK    4  A    between atoms: C_9  and  C_10
REMARK    5  A    between atoms: C_10  and  C_11
REMARK    6  A    between atoms: C_11  and  N_12
REMARK                            x       y       z     vdW  Elec       q    Type
REMARK                         _______ _______ _______ _____ _____    ______ ____
ROOT
ATOM      1  S   UNL     1       7.280   5.144  17.713  0.00  0.00    +0.000 S 
ENDROOT
BRANCH   1   7
ATOM      2  C   UNL     1       2.016   3.828  20.704  0.00  0.00    +0.000 A 
ATOM      3  C   UNL     1       1.723   5.174  20.449  0.00  0.00    +0.000 A 
ATOM      4  C   UNL     1       2.622   6.000  19.761  0.00  0.00    +0.000 A 
ATOM      5  C   UNL     1       3.806   5.396  19.354  0.00  0.00    +0.000 A 
ATOM      6  O   UNL     1       4.848   5.958  18.673  0.00  0.00    +0.000 OA
ATOM      7  C   UNL     1       5.752   4.932  18.530  0.00  0.00    +0.000 A 
ATOM      8  N   UNL     1       5.364   3.788  19.058  0.00  0.00    +0.000 NA
ATOM      9  C   UNL     1       4.130   4.069  19.585  0.00  0.00    +0.000 A 
ATOM     10  C   UNL     1       3.223   3.257  20.275  0.00  0.00    +0.000 A 
ENDBRANCH   1   7
BRANCH   1  11
ATOM     11  C   UNL     1       7.245   6.931  17.373  0.00  0.00    +0.000 C 
BRANCH  11  12
ATOM     12  C   UNL     1       8.154   7.667  18.363  0.00  0.00    +0.000 C 
BRANCH  12  13
ATOM     13  C   UNL     1       8.255   9.162  18.036  0.00  0.00    +0.000 C 
BRANCH  13  14
ATOM     14  C   UNL     1       9.113   9.910  19.060  0.00  0.00    +0.000 C 
BRANCH  14  15
ATOM     15  N   UNL     1       9.617  11.171  18.551  0.00  0.00    +0.000 N 
ATOM     16  C   UNL     1      10.901  11.631  18.635  0.00  0.00    +0.000 A 
ATOM     17  C   UNL     1      10.889  12.841  17.979  0.00  0.00    +0.000 A 
ATOM     18  N   UNL     1       9.636  13.119  17.498  0.00  0.00    +0.000 NA
ATOM     19  C   UNL     1       8.894  12.094  17.850  0.00  0.00    +0.000 A 
ENDBRANCH  14  15
ENDBRANCH  13  14
ENDBRANCH  12  13
ENDBRANCH  11  12
ENDBRANCH   1  11
TORSDOF 6
ENDMDL
MODEL 6
REMARK VINA RESULT:      -6.3      2.156      6.887
REMARK  Name = 
REMARK  6 active torsions:
REMARK  status: ('A' for Active; 'I' for Inactive)
REMARK    1  A    between atoms: C_6  and  S_7
REMARK    2  A    between atoms: S_7  and  C_8
REMARK    3  A    between atoms: C_8  and  C_9
REMARK    4  A    between atoms: C_9  and  C_10
REMARK    5  A    between atoms: C_10  and  C_11
REMARK    6  A    between atoms: C_11  and  N_12
REMARK                            x       y       z     vdW  Elec       q    Type
REMARK                         _______ _______ _______ _____ _____    ______ ____
ROOT
ATOM      1  S   UNL     1       6.571   5.373  19.259  0.00  0.00    +0.000 S 
ENDROOT
BRANCH   1   7
ATOM      2  C   UNL     1       1.217   2.270  18.942  0.00  0.00    +0.000 A 
ATOM      3  C   UNL     1       0.726   3.363  19.668  0.00  0.00    +0.000 A 
ATOM      4  C   UNL     1       1.558   4.429  20.038  0.00  0.00    +0.000 A 
ATOM      5  C   UNL     1       2.885   4.325  19.637  0.00  0.00    +0.000 A 
ATOM      6  O   UNL     1       3.903   5.208  19.857  0.00  0.00    +0.000 OA
ATOM      7  C   UNL     1       4.993   4.625  19.255  0.00  0.00    +0.000 A 
ATOM      8  N   UNL     1       4.742   3.464  18.681  0.00  0.00    +0.000 NA
ATOM      9  C   UNL     1       3.407   3.263  18.917  0.00  0.00    +0.000 A 
ATOM     10  C   UNL     1       2.564   2.205  18.556  0.00  0.00    +0.000 A 
ENDBRANCH   1   7
BRANCH   1  11
ATOM     11  C   UNL     1       6.852   5.595  17.475  0.00  0.00    +0.000 C 
BRANCH  11  12
ATOM     12  C   UNL     1       5.853   6.611  16.912  0.00  0.00    +0.000 C 
BRANCH  12  13
ATOM     13  C   UNL     1       5.221   6.119  15.604  0.00  0.00    +0.000 C 
BRANCH  13  14
ATOM     14  C   UNL     1       5.492   4.631  15.369  0.00  0.00    +0.000 C 
BRANCH  14  15
ATOM     15  N   UNL     1       6.135   4.375  14.093  0.00  0.00    +0.000 N 
ATOM     16  C   UNL     1       5.736   3.478  13.143  0.00  0.00    +0.000 A 
ATOM     17  C   UNL     1       6.633   3.631  12.111  0.00  0.00    +0.000 A 
ATOM     18  N   UNL     1       7.556   4.599  12.410  0.00  0.00    +0.000 NA
ATOM     19  C   UNL     1       7.227   5.034  13.605  0.00  0.00    +0.000 A 
ENDBRANCH  14  15
ENDBRANCH  13  14
ENDBRANCH  12  13
ENDBRANCH  11  12
ENDBRANCH   1  11
TORSDOF 6
ENDMDL
MODEL 7
REMARK VINA RESULT:      -6.3      1.436      2.069
REMARK  Name = 
REMARK  6 active torsions:
REMARK  status: ('A' for Active; 'I' for Inactive)
REMARK    1  A    between atoms: C_6  and  S_7
REMARK    2  A    between atoms: S_7  and  C_8
REMARK    3  A    between atoms: C_8  and  C_9
REMARK    4  A    between atoms: C_9  and  C_10
REMARK    5  A    between atoms: C_10  and  C_11
REMARK    6  A    between atoms: C_11  and  N_12
REMARK                            x       y       z     vdW  Elec       q    Type
REMARK                         _______ _______ _______ _____ _____    ______ ____
ROOT
ATOM      1  S   UNL     1       6.245   5.361  17.747  0.00  0.00    +0.000 S 
ENDROOT
BRANCH   1   7
ATOM      2  C   UNL     1       7.340   4.333  11.736  0.00  0.00    +0.000 A 
ATOM      3  C   UNL     1       6.249   3.461  11.852  0.00  0.00    +0.000 A 
ATOM      4  C   UNL     1       5.575   3.291  13.068  0.00  0.00    +0.000 A 
ATOM      5  C   UNL     1       6.058   4.040  14.135  0.00  0.00    +0.000 A 
ATOM      6  O   UNL     1       5.597   4.070  15.420  0.00  0.00    +0.000 OA
ATOM      7  C   UNL     1       6.424   4.966  16.056  0.00  0.00    +0.000 A 
ATOM      8  N   UNL     1       7.352   5.493  15.282  0.00  0.00    +0.000 NA
ATOM      9  C   UNL     1       7.131   4.913  14.059  0.00  0.00    +0.000 A 
ATOM     10  C   UNL     1       7.795   5.071  12.838  0.00  0.00    +0.000 A 
ENDBRANCH   1   7
BRANCH   1  11
ATOM     11  C   UNL     1       5.560   7.043  17.638  0.00  0.00    +0.000 C 
BRANCH  11  12
ATOM     12  C   UNL     1       4.043   6.975  17.436  0.00  0.00    +0.000 C 
BRANCH  12  13
ATOM     13  C   UNL     1       3.340   6.324  18.633  0.00  0.00    +0.000 C 
BRANCH  13  14
ATOM     14  C   UNL     1       2.354   5.240  18.191  0.00  0.00    +0.000 C 
BRANCH  14  15
ATOM     15  N   UNL     1       2.868   3.899  18.398  0.00  0.00    +0.000 N 
ATOM     16  C   UNL     1       3.423   3.406  19.545  0.00  0.00    +0.000 A 
ATOM     17  C   UNL     1       3.717   2.092  19.261  0.00  0.00    +0.000 A 
ATOM     18  N   UNL     1       3.349   1.778  17.979  0.00  0.00    +0.000 NA
ATOM     19  C   UNL     1       2.835   2.883  17.487  0.00  0.00    +0.000 A 
ENDBRANCH  14  15
ENDBRANCH  13  14
ENDBRANCH  12  13
ENDBRANCH  11  12
ENDBRANCH   1  11
TORSDOF 6
ENDMDL
MODEL 8
REMARK VINA RESULT:      -6.3      4.716      8.118
REMARK  Name = 
REMARK  6 active torsions:
REMARK  status: ('A' for Active; 'I' for Inactive)
REMARK    1  A    between atoms: C_6  and  S_7
REMARK    2  A    between atoms: S_7  and  C_8
REMARK    3  A    between atoms: C_8  and  C_9
REMARK    4  A    between atoms: C_9  and  C_10
REMARK    5  A    between atoms: C_10  and  C_11
REMARK    6  A    between atoms: C_11  and  N_12
REMARK                            x       y       z     vdW  Elec       q    Type
REMARK                         _______ _______ _______ _____ _____    ______ ____
ROOT
ATOM      1  S   UNL     1       6.499   4.608  17.704  0.00  0.00    +0.000 S 
ENDROOT
BRANCH   1   7
ATOM      2  C   UNL     1       1.014   3.720  20.445  0.00  0.00    +0.000 A 
ATOM      3  C   UNL     1       0.841   2.770  19.430  0.00  0.00    +0.000 A 
ATOM      4  C   UNL     1       1.833   2.541  18.467  0.00  0.00    +0.000 A 
ATOM      5  C   UNL     1       2.984   3.311  18.591  0.00  0.00    +0.000 A 
ATOM      6  O   UNL     1       4.097   3.295  17.800  0.00  0.00    +0.000 OA
ATOM      7  C   UNL     1       4.923   4.242  18.360  0.00  0.00    +0.000 A 
ATOM      8  N   UNL     1       4.424   4.839  19.424  0.00  0.00    +0.000 NA
ATOM      9  C   UNL     1       3.192   4.257  19.582  0.00  0.00    +0.000 A 
ATOM     10  C   UNL     1       2.192   4.476  20.535  0.00  0.00    +0.000 A 
ENDBRANCH   1   7
BRANCH   1  11
ATOM     11  C   UNL     1       6.878   6.166  18.565  0.00  0.00    +0.000 C 
BRANCH  11  12
ATOM     12  C   UNL     1       7.500   7.165  17.584  0.00  0.00    +0.000 C 
BRANCH  12  13
ATOM     13  C   UNL     1       8.422   8.160  18.297  0.00  0.00    +0.000 C 
BRANCH  13  14
ATOM     14  C   UNL     1       8.151   9.601  17.856  0.00  0.00    +0.000 C 
BRANCH  14  15
ATOM     15  N   UNL     1       9.007  10.561  18.527  0.00  0.00    +0.000 N 
ATOM     16  C   UNL     1       9.501  11.722  18.002  0.00  0.00    +0.000 A 
ATOM     17  C   UNL     1      10.216  12.299  19.026  0.00  0.00    +0.000 A 
ATOM     18  N   UNL     1      10.162  11.522  20.154  0.00  0.00    +0.000 NA
ATOM     19  C   UNL     1       9.421  10.487  19.826  0.00  0.00    +0.000 A 
ENDBRANCH  14  15
ENDBRANCH  13  14
ENDBRANCH  12  13
ENDBRANCH  11  12
ENDBRANCH   1  11
TORSDOF 6
ENDMDL
MODEL 9
REMARK VINA RESULT:      -6.2      1.046      1.237
REMARK  Name = 
REMARK  6 active torsions:
REMARK  status: ('A' for Active; 'I' for Inactive)
REMARK    1  A    between atoms: C_6  and  S_7
REMARK    2  A    between atoms: S_7  and  C_8
REMARK    3  A    between atoms: C_8  and  C_9
REMARK    4  A    between atoms: C_9  and  C_10
REMARK    5  A    between atoms: C_10  and  C_11
REMARK    6  A    between atoms: C_11  and  N_12
REMARK                            x       y       z     vdW  Elec       q    Type
REMARK                         _______ _______ _______ _____ _____    ______ ____
ROOT
ATOM      1  S   UNL     1       7.175   5.939  17.719  0.00  0.00    +0.000 S 
ENDROOT
BRANCH   1   7
ATOM      2  C   UNL     1       5.930   3.433  12.191  0.00  0.00    +0.000 A 
ATOM      3  C   UNL     1       7.027   4.200  11.776  0.00  0.00    +0.000 A 
ATOM      4  C   UNL     1       7.733   5.012  12.674  0.00  0.00    +0.000 A 
ATOM      5  C   UNL     1       7.274   5.001  13.986  0.00  0.00    +0.000 A 
ATOM      6  O   UNL     1       7.769   5.689  15.057  0.00  0.00    +0.000 OA
ATOM      7  C   UNL     1       6.954   5.320  16.101  0.00  0.00    +0.000 A 
ATOM      8  N   UNL     1       6.004   4.465  15.775  0.00  0.00    +0.000 NA
ATOM      9  C   UNL     1       6.196   4.255  14.434  0.00  0.00    +0.000 A 
ATOM     10  C   UNL     1       5.500   3.450  13.526  0.00  0.00    +0.000 A 
ENDBRANCH   1   7
BRANCH   1  11
ATOM     11  C   UNL     1       5.530   5.632  18.434  0.00  0.00    +0.000 C 
BRANCH  11  12
ATOM     12  C   UNL     1       4.489   6.523  17.749  0.00  0.00    +0.000 C 
BRANCH  12  13
ATOM     13  C   UNL     1       3.069   6.214  18.239  0.00  0.00    +0.000 C 
BRANCH  13  14
ATOM     14  C   UNL     1       3.081   5.441  19.560  0.00  0.00    +0.000 C 
BRANCH  14  15
ATOM     15  N   UNL     1       2.356   4.187  19.480  0.00  0.00    +0.000 N 
ATOM     16  C   UNL     1       2.813   3.013  18.950  0.00  0.00    +0.000 A 
ATOM     17  C   UNL     1       1.787   2.115  19.140  0.00  0.00    +0.000 A 
ATOM     18  N   UNL     1       0.729   2.714  19.774  0.00  0.00    +0.000 NA
ATOM     19  C   UNL     1       1.103   3.958  19.972  0.00  0.00    +0.000 A 
ENDBRANCH  14  15
ENDBRANCH  13  14
ENDBRANCH  12  13
ENDBRANCH  11  12
ENDBRANCH   1  11
TORSDOF 6
ENDMDL
