MODEL 1
REMARK VINA RESULT:      -9.2      0.000      0.000
REMARK  Name = 
REMARK  6 active torsions:
REMARK  status: ('A' for Active; 'I' for Inactive)
REMARK    1  A    between atoms: C_2  and  C_21
REMARK    2  A    between atoms: N_3  and  C_4
REMARK    3  A    between atoms: C_4  and  C_5
REMARK    4  A    between atoms: C_5  and  C_6
REMARK    5  A    between atoms: C_6  and  N_7
REMARK    6  A    between atoms: C_23  and  C_24
REMARK                            x       y       z     vdW  Elec       q    Type
REMARK                         _______ _______ _______ _____ _____    ______ ____
ROOT
ATOM      1  C   UNL     1       8.180   7.883  18.063  0.00  0.00    +0.000 C 
ENDROOT
BRANCH   1   2
ATOM      2  C   UNL     1       8.363   9.380  17.833  0.00  0.00    +0.000 C 
BRANCH   2   5
ATOM      3  O   UNL     1      10.404  11.369  17.986  0.00  0.00    +0.000 OA
ATOM      4  C   UNL     1       9.827  11.000  19.000  0.00  0.00    +0.000 C 
ATOM      5  N   UNL     1       8.841  10.042  19.033  0.00  0.00    +0.000 N 
ATOM      6  H   UNL     1       8.366   9.854  19.904  0.00  0.00    +0.000 HD
BRANCH   4   7
ATOM      7  C   UNL     1      10.128  11.599  20.328  0.00  0.00    +0.000 C 
ATOM      8  C   UNL     1      10.781  12.950  20.444  0.00  0.00    +0.000 C 
ATOM      9  C   UNL     1       9.323  12.800  20.800  0.00  0.00    +0.000 C 
BRANCH   9  10
ATOM     10  C   UNL     1       8.833  12.806  22.230  0.00  0.00    +0.000 A 
ATOM     11  C   UNL     1       8.913  13.941  23.053  0.00  0.00    +0.000 A 
ATOM     12  C   UNL     1       8.474  13.914  24.380  0.00  0.00    +0.000 A 
ATOM     13  C   UNL     1       7.924  12.750  24.907  0.00  0.00    +0.000 A 
ATOM     14  C   UNL     1       7.808  11.617  24.106  0.00  0.00    +0.000 A 
ATOM     15  C   UNL     1       8.259  11.649  22.784  0.00  0.00    +0.000 A 
ENDBRANCH   9  10
ENDBRANCH   4   7
ENDBRANCH   2   5
ENDBRANCH   1   2
BRANCH   1  16
ATOM     16  C   UNL     1       6.778   7.389  17.685  0.00  0.00    +0.000 C 
BRANCH  16  17
ATOM     17  N   UNL     1       6.746   6.117  16.939  0.00  0.00    +0.000 NA
ATOM     18  C   UNL     1       6.907   4.922  17.780  0.00  0.00    +0.000 C 
ATOM     19  C   UNL     1       5.723   4.664  18.716  0.00  0.00    +0.000 C 
ATOM     20  C   UNL     1       4.384   4.591  17.952  0.00  0.00    +0.000 C 
ATOM     21  C   UNL     1       4.254   3.230  17.194  0.00  0.00    +0.000 C 
ATOM     22  C   UNL     1       2.963   2.524  17.633  0.00  0.00    +0.000 C 
ATOM     23  C   UNL     1       2.433   3.398  18.716  0.00  0.00    +0.000 A 
ATOM     24  C   UNL     1       1.289   3.176  19.471  0.00  0.00    +0.000 A 
ATOM     25  C   UNL     1       0.922   4.120  20.429  0.00  0.00    +0.000 A 
ATOM     26  C   UNL     1       1.699   5.270  20.623  0.00  0.00    +0.000 A 
ATOM     27  C   UNL     1       2.848   5.483  19.859  0.00  0.00    +0.000 A 
ATOM     28  C   UNL     1       3.209   4.540  18.902  0.00  0.00    +0.000 A 
ATOM     29  C   UNL     1       4.250   5.781  16.980  0.00  0.00    +0.000 C 
ATOM     30  C   UNL     1       5.514   5.992  16.139  0.00  0.00    +0.000 C 
ENDBRANCH  16  17
ENDBRANCH   1  16
TORSDOF 6
ENDMDL
MODEL 2
REMARK VINA RESULT:      -9.1      0.671      1.089
REMARK  Name = 
REMARK  6 active torsions:
REMARK  status: ('A' for Active; 'I' for Inactive)
REMARK    1  A    between atoms: C_2  and  C_21
REMARK    2  A    between atoms: N_3  and  C_4
REMARK    3  A    between atoms: C_4  and  C_5
REMARK    4  A    between atoms: C_5  and  C_6
REMARK    5  A    between atoms: C_6  and  N_7
REMARK    6  A    between atoms: C_23  and  C_24
REMARK                            x       y       z     vdW  Elec       q    Type
REMARK                         _______ _______ _______ _____ _____    ______ ____
ROOT
ATOM      1  C   UNL     1       8.117   7.812  18.232  0.00  0.00    +0.000 C 
ENDROOT
BRANCH   1   2
ATOM      2  C   UNL     1       8.600   9.252  18.103  0.00  0.00    +0.000 C 
BRANCH   2   5
ATOM      3  O   UNL     1       9.452  11.924  18.639  0.00  0.00    +0.000 OA
ATOM      4  C   UNL     1       9.324  11.123  19.555  0.00  0.00    +0.000 C 
ATOM      5  N   UNL     1       8.932   9.814  19.400  0.00  0.00    +0.000 N 
ATOM      6  H   UNL     1       8.778   9.245  20.220  0.00  0.00    +0.000 HD
BRANCH   4   7
ATOM      7  C   UNL     1       9.557  11.517  20.971  0.00  0.00    +0.000 C 
ATOM      8  C   UNL     1      10.160  12.850  21.320  0.00  0.00    +0.000 C 
ATOM      9  C   UNL     1       8.696  12.608  21.588  0.00  0.00    +0.000 C 
BRANCH   9  10
ATOM     10  C   UNL     1       8.155  12.379  22.981  0.00  0.00    +0.000 A 
ATOM     11  C   UNL     1       6.949  11.702  23.223  0.00  0.00    +0.000 A 
ATOM     12  C   UNL     1       6.458  11.524  24.520  0.00  0.00    +0.000 A 
ATOM     13  C   UNL     1       7.179  12.005  25.609  0.00  0.00    +0.000 A 
ATOM     14  C   UNL     1       8.391  12.657  25.400  0.00  0.00    +0.000 A 
ATOM     15  C   UNL     1       8.869  12.841  24.101  0.00  0.00    +0.000 A 
ENDBRANCH   9  10
ENDBRANCH   4   7
ENDBRANCH   2   5
ENDBRANCH   1   2
BRANCH   1  16
ATOM     16  C   UNL     1       6.822   7.545  17.454  0.00  0.00    +0.000 C 
BRANCH  16  17
ATOM     17  N   UNL     1       6.778   6.255  16.741  0.00  0.00    +0.000 NA
ATOM     18  C   UNL     1       6.974   5.082  17.606  0.00  0.00    +0.000 C 
ATOM     19  C   UNL     1       5.821   4.839  18.584  0.00  0.00    +0.000 C 
ATOM     20  C   UNL     1       4.461   4.737  17.863  0.00  0.00    +0.000 C 
ATOM     21  C   UNL     1       4.318   3.357  17.143  0.00  0.00    +0.000 C 
ATOM     22  C   UNL     1       3.046   2.653  17.638  0.00  0.00    +0.000 C 
ATOM     23  C   UNL     1       2.542   3.550  18.715  0.00  0.00    +0.000 A 
ATOM     24  C   UNL     1       1.424   3.338  19.510  0.00  0.00    +0.000 A 
ATOM     25  C   UNL     1       1.079   4.303  20.455  0.00  0.00    +0.000 A 
ATOM     26  C   UNL     1       1.851   5.463  20.596  0.00  0.00    +0.000 A 
ATOM     27  C   UNL     1       2.975   5.666  19.793  0.00  0.00    +0.000 A 
ATOM     28  C   UNL     1       3.315   4.701  18.850  0.00  0.00    +0.000 A 
ATOM     29  C   UNL     1       4.287   5.902  16.867  0.00  0.00    +0.000 C 
ATOM     30  C   UNL     1       5.524   6.101  15.982  0.00  0.00    +0.000 C 
ENDBRANCH  16  17
ENDBRANCH   1  16
TORSDOF 6
ENDMDL
MODEL 3
REMARK VINA RESULT:      -9.0      1.798     10.394
REMARK  Name = 
REMARK  6 active torsions:
REMARK  status: ('A' for Active; 'I' for Inactive)
REMARK    1  A    between atoms: C_2  and  C_21
REMARK    2  A    between atoms: N_3  and  C_4
REMARK    3  A    between atoms: C_4  and  C_5
REMARK    4  A    between atoms: C_5  and  C_6
REMARK    5  A    between atoms: C_6  and  N_7
REMARK    6  A    between atoms: C_23  and  C_24
REMARK                            x       y       z     vdW  Elec       q    Type
REMARK                         _______ _______ _______ _____ _____    ______ ____
ROOT
ATOM      1  C   UNL     1       8.163   9.184  17.872  0.00  0.00    +0.000 C 
ENDROOT
BRANCH   1   2
ATOM      2  C   UNL     1       8.166   7.707  18.254  0.00  0.00    +0.000 C 
BRANCH   2   5
ATOM      3  O   UNL     1       7.581   6.176  15.916  0.00  0.00    +0.000 OA
ATOM      4  C   UNL     1       6.723   6.348  16.770  0.00  0.00    +0.000 C 
ATOM      5  N   UNL     1       6.901   7.077  17.923  0.00  0.00    +0.000 N 
ATOM      6  H   UNL     1       6.161   7.102  18.610  0.00  0.00    +0.000 HD
BRANCH   4   7
ATOM      7  C   UNL     1       5.373   5.733  16.651  0.00  0.00    +0.000 C 
ATOM      8  C   UNL     1       5.153   4.488  15.835  0.00  0.00    +0.000 C 
ATOM      9  C   UNL     1       5.099   4.405  17.340  0.00  0.00    +0.000 C 
BRANCH   9  10
ATOM     10  C   UNL     1       3.798   4.256  18.097  0.00  0.00    +0.000 A 
ATOM     11  C   UNL     1       2.617   3.800  17.490  0.00  0.00    +0.000 A 
ATOM     12  C   UNL     1       1.422   3.693  18.207  0.00  0.00    +0.000 A 
ATOM     13  C   UNL     1       1.388   4.024  19.558  0.00  0.00    +0.000 A 
ATOM     14  C   UNL     1       2.550   4.454  20.192  0.00  0.00    +0.000 A 
ATOM     15  C   UNL     1       3.739   4.568  19.467  0.00  0.00    +0.000 A 
ENDBRANCH   9  10
ENDBRANCH   4   7
ENDBRANCH   2   5
ENDBRANCH   1   2
BRANCH   1  16
ATOM     16  C   UNL     1       8.989  10.049  18.833  0.00  0.00    +0.000 C 
BRANCH  16  17
ATOM     17  N   UNL     1       9.882  11.026  18.181  0.00  0.00    +0.000 NA
ATOM     18  C   UNL     1       9.249  12.322  17.893  0.00  0.00    +0.000 C 
ATOM     19  C   UNL     1       8.906  13.131  19.147  0.00  0.00    +0.000 C 
ATOM     20  C   UNL     1      10.134  13.339  20.058  0.00  0.00    +0.000 C 
ATOM     21  C   UNL     1      11.091  14.419  19.458  0.00  0.00    +0.000 C 
ATOM     22  C   UNL     1      11.313  15.533  20.492  0.00  0.00    +0.000 C 
ATOM     23  C   UNL     1      10.399  15.166  21.609  0.00  0.00    +0.000 A 
ATOM     24  C   UNL     1      10.198  15.882  22.781  0.00  0.00    +0.000 A 
ATOM     25  C   UNL     1       9.322  15.372  23.738  0.00  0.00    +0.000 A 
ATOM     26  C   UNL     1       8.657  14.159  23.515  0.00  0.00    +0.000 A 
ATOM     27  C   UNL     1       8.865  13.447  22.332  0.00  0.00    +0.000 A 
ATOM     28  C   UNL     1       9.742  13.959  21.380  0.00  0.00    +0.000 A 
ATOM     29  C   UNL     1      10.876  12.004  20.279  0.00  0.00    +0.000 C 
ATOM     30  C   UNL     1      11.109  11.243  18.968  0.00  0.00    +0.000 C 
ENDBRANCH  16  17
ENDBRANCH   1  16
TORSDOF 6
ENDMDL
MODEL 4
REMARK VINA RESULT:      -8.8      0.845      1.245
REMARK  Name = 
REMARK  6 active torsions:
REMARK  status: ('A' for Active; 'I' for Inactive)
REMARK    1  A    between atoms: C_2  and  C_21
REMARK    2  A    between atoms: N_3  and  C_4
REMARK    3  A    between atoms: C_4  and  C_5
REMARK    4  A    between atoms: C_5  and  C_6
REMARK    5  A    between atoms: C_6  and  N_7
REMARK    6  A    between atoms: C_23  and  C_24
REMARK                            x       y       z     vdW  Elec       q    Type
REMARK                         _______ _______ _______ _____ _____    ______ ____
ROOT
ATOM      1  C   UNL     1       8.166   7.856  18.129  0.00  0.00    +0.000 C 
ENDROOT
BRANCH   1   2
ATOM      2  C   UNL     1       8.242   9.357  17.867  0.00  0.00    +0.000 C 
BRANCH   2   5
ATOM      3  O   UNL     1      10.429  11.181  17.678  0.00  0.00    +0.000 OA
ATOM      4  C   UNL     1       9.937  10.922  18.767  0.00  0.00    +0.000 C 
ATOM      5  N   UNL     1       8.892  10.049  18.965  0.00  0.00    +0.000 N 
ATOM      6  H   UNL     1       8.498   9.954  19.890  0.00  0.00    +0.000 HD
BRANCH   4   7
ATOM      7  C   UNL     1      10.419  11.574  20.015  0.00  0.00    +0.000 C 
ATOM      8  C   UNL     1      11.803  12.160  20.102  0.00  0.00    +0.000 C 
ATOM      9  C   UNL     1      10.612  13.083  20.036  0.00  0.00    +0.000 C 
BRANCH   9  10
ATOM     10  C   UNL     1      10.108  13.843  21.242  0.00  0.00    +0.000 A 
ATOM     11  C   UNL     1      10.475  15.172  21.507  0.00  0.00    +0.000 A 
ATOM     12  C   UNL     1      10.013  15.845  22.641  0.00  0.00    +0.000 A 
ATOM     13  C   UNL     1       9.154  15.205  23.529  0.00  0.00    +0.000 A 
ATOM     14  C   UNL     1       8.752  13.896  23.277  0.00  0.00    +0.000 A 
ATOM     15  C   UNL     1       9.226  13.226  22.147  0.00  0.00    +0.000 A 
ENDBRANCH   9  10
ENDBRANCH   4   7
ENDBRANCH   2   5
ENDBRANCH   1   2
BRANCH   1  16
ATOM     16  C   UNL     1       6.756   7.286  17.923  0.00  0.00    +0.000 C 
BRANCH  16  17
ATOM     17  N   UNL     1       6.677   6.139  17.001  0.00  0.00    +0.000 NA
ATOM     18  C   UNL     1       6.816   4.829  17.656  0.00  0.00    +0.000 C 
ATOM     19  C   UNL     1       5.639   4.468  18.566  0.00  0.00    +0.000 C 
ATOM     20  C   UNL     1       4.288   4.542  17.825  0.00  0.00    +0.000 C 
ATOM     21  C   UNL     1       4.107   3.312  16.879  0.00  0.00    +0.000 C 
ATOM     22  C   UNL     1       2.803   2.583  17.234  0.00  0.00    +0.000 C 
ATOM     23  C   UNL     1       2.314   3.303  18.443  0.00  0.00    +0.000 A 
ATOM     24  C   UNL     1       1.176   3.002  19.179  0.00  0.00    +0.000 A 
ATOM     25  C   UNL     1       0.851   3.805  20.271  0.00  0.00    +0.000 A 
ATOM     26  C   UNL     1       1.662   4.893  20.616  0.00  0.00    +0.000 A 
ATOM     27  C   UNL     1       2.806   5.187  19.870  0.00  0.00    +0.000 A 
ATOM     28  C   UNL     1       3.126   4.384  18.780  0.00  0.00    +0.000 A 
ATOM     29  C   UNL     1       4.173   5.865  17.040  0.00  0.00    +0.000 C 
ATOM     30  C   UNL     1       5.430   6.164  16.215  0.00  0.00    +0.000 C 
ENDBRANCH  16  17
ENDBRANCH   1  16
TORSDOF 6
ENDMDL
MODEL 5
REMARK VINA RESULT:      -8.7      2.494      3.404
REMARK  Name = 
REMARK  6 active torsions:
REMARK  status: ('A' for Active; 'I' for Inactive)
REMARK    1  A    between atoms: C_2  and  C_21
REMARK    2  A    between atoms: N_3  and  C_4
REMARK    3  A    between atoms: C_4  and  C_5
REMARK    4  A    between atoms: C_5  and  C_6
REMARK    5  A    between atoms: C_6  and  N_7
REMARK    6  A    between atoms: C_23  and  C_24
REMARK                            x       y       z     vdW  Elec       q    Type
REMARK                         _______ _______ _______ _____ _____    ______ ____
ROOT
ATOM      1  C   UNL     1       8.045   8.276  17.414  0.00  0.00    +0.000 C 
ENDROOT
BRANCH   1   2
ATOM      2  C   UNL     1       8.566   9.158  18.544  0.00  0.00    +0.000 C 
BRANCH   2   5
ATOM      3  O   UNL     1      10.701  10.984  19.051  0.00  0.00    +0.000 OA
ATOM      4  C   UNL     1       9.717  11.347  18.422  0.00  0.00    +0.000 C 
ATOM      5  N   UNL     1       8.634  10.549  18.136  0.00  0.00    +0.000 N 
ATOM      6  H   UNL     1       7.899  10.909  17.544  0.00  0.00    +0.000 HD
BRANCH   4   7
ATOM      7  C   UNL     1       9.616  12.722  17.860  0.00  0.00    +0.000 C 
ATOM      8  C   UNL     1       8.305  13.459  17.837  0.00  0.00    +0.000 C 
ATOM      9  C   UNL     1       9.380  13.892  18.803  0.00  0.00    +0.000 C 
BRANCH   9  10
ATOM     10  C   UNL     1      10.199  15.145  18.594  0.00  0.00    +0.000 A 
ATOM     11  C   UNL     1      10.359  15.744  17.334  0.00  0.00    +0.000 A 
ATOM     12  C   UNL     1      11.141  16.890  17.163  0.00  0.00    +0.000 A 
ATOM     13  C   UNL     1      11.768  17.475  18.260  0.00  0.00    +0.000 A 
ATOM     14  C   UNL     1      11.605  16.917  19.525  0.00  0.00    +0.000 A 
ATOM     15  C   UNL     1      10.830  15.766  19.686  0.00  0.00    +0.000 A 
ENDBRANCH   9  10
ENDBRANCH   4   7
ENDBRANCH   2   5
ENDBRANCH   1   2
BRANCH   1  16
ATOM     16  C   UNL     1       7.056   7.208  17.899  0.00  0.00    +0.000 C 
BRANCH  16  17
ATOM     17  N   UNL     1       6.827   6.097  16.957  0.00  0.00    +0.000 NA
ATOM     18  C   UNL     1       6.877   4.764  17.575  0.00  0.00    +0.000 C 
ATOM     19  C   UNL     1       5.717   4.487  18.536  0.00  0.00    +0.000 C 
ATOM     20  C   UNL     1       4.344   4.703  17.866  0.00  0.00    +0.000 C 
ATOM     21  C   UNL     1       4.006   3.519  16.903  0.00  0.00    +0.000 C 
ATOM     22  C   UNL     1       2.659   2.903  17.308  0.00  0.00    +0.000 C 
ATOM     23  C   UNL     1       2.297   3.632  18.555  0.00  0.00    +0.000 A 
ATOM     24  C   UNL     1       1.173   3.416  19.341  0.00  0.00    +0.000 A 
ATOM     25  C   UNL     1       0.976   4.217  20.465  0.00  0.00    +0.000 A 
ATOM     26  C   UNL     1       1.900   5.218  20.792  0.00  0.00    +0.000 A 
ATOM     27  C   UNL     1       3.028   5.425  19.996  0.00  0.00    +0.000 A 
ATOM     28  C   UNL     1       3.220   4.626  18.874  0.00  0.00    +0.000 A 
ATOM     29  C   UNL     1       4.314   6.051  17.116  0.00  0.00    +0.000 C 
ATOM     30  C   UNL     1       5.552   6.256  16.235  0.00  0.00    +0.000 C 
ENDBRANCH  16  17
ENDBRANCH   1  16
TORSDOF 6
ENDMDL
MODEL 6
REMARK VINA RESULT:      -8.6      2.442      3.471
REMARK  Name = 
REMARK  6 active torsions:
REMARK  status: ('A' for Active; 'I' for Inactive)
REMARK    1  A    between atoms: C_2  and  C_21
REMARK    2  A    between atoms: N_3  and  C_4
REMARK    3  A    between atoms: C_4  and  C_5
REMARK    4  A    between atoms: C_5  and  C_6
REMARK    5  A    between atoms: C_6  and  N_7
REMARK    6  A    between atoms: C_23  and  C_24
REMARK                            x       y       z     vdW  Elec       q    Type
REMARK                         _______ _______ _______ _____ _____    ______ ____
ROOT
ATOM      1  C   UNL     1       8.225   8.542  17.635  0.00  0.00    +0.000 C 
ENDROOT
BRANCH   1   2
ATOM      2  C   UNL     1       8.729   9.373  18.810  0.00  0.00    +0.000 C 
BRANCH   2   5
ATOM      3  O   UNL     1      10.044  11.312  20.442  0.00  0.00    +0.000 OA
ATOM      4  C   UNL     1      10.088  11.402  19.223  0.00  0.00    +0.000 C 
ATOM      5  N   UNL     1       9.480  10.528  18.352  0.00  0.00    +0.000 N 
ATOM      6  H   UNL     1       9.633  10.635  17.360  0.00  0.00    +0.000 HD
BRANCH   4   7
ATOM      7  C   UNL     1      10.859  12.482  18.550  0.00  0.00    +0.000 C 
ATOM      8  C   UNL     1      10.805  12.664  17.058  0.00  0.00    +0.000 C 
ATOM      9  C   UNL     1      10.112  13.664  17.951  0.00  0.00    +0.000 C 
BRANCH   9  10
ATOM     10  C   UNL     1      10.665  15.049  18.197  0.00  0.00    +0.000 A 
ATOM     11  C   UNL     1      10.365  15.789  19.352  0.00  0.00    +0.000 A 
ATOM     12  C   UNL     1      10.870  17.078  19.546  0.00  0.00    +0.000 A 
ATOM     13  C   UNL     1      11.707  17.648  18.592  0.00  0.00    +0.000 A 
ATOM     14  C   UNL     1      12.042  16.927  17.449  0.00  0.00    +0.000 A 
ATOM     15  C   UNL     1      11.525  15.643  17.258  0.00  0.00    +0.000 A 
ENDBRANCH   9  10
ENDBRANCH   4   7
ENDBRANCH   2   5
ENDBRANCH   1   2
BRANCH   1  16
ATOM     16  C   UNL     1       7.413   7.317  18.078  0.00  0.00    +0.000 C 
BRANCH  16  17
ATOM     17  N   UNL     1       7.142   6.332  17.014  0.00  0.00    +0.000 NA
ATOM     18  C   UNL     1       7.126   4.936  17.475  0.00  0.00    +0.000 C 
ATOM     19  C   UNL     1       5.948   4.605  18.395  0.00  0.00    +0.000 C 
ATOM     20  C   UNL     1       4.591   4.959  17.750  0.00  0.00    +0.000 C 
ATOM     21  C   UNL     1       4.207   3.909  16.657  0.00  0.00    +0.000 C 
ATOM     22  C   UNL     1       2.830   3.313  16.985  0.00  0.00    +0.000 C 
ATOM     23  C   UNL     1       2.492   3.910  18.307  0.00  0.00    +0.000 A 
ATOM     24  C   UNL     1       1.353   3.658  19.060  0.00  0.00    +0.000 A 
ATOM     25  C   UNL     1       1.184   4.333  20.268  0.00  0.00    +0.000 A 
ATOM     26  C   UNL     1       2.150   5.246  20.710  0.00  0.00    +0.000 A 
ATOM     27  C   UNL     1       3.292   5.492  19.946  0.00  0.00    +0.000 A 
ATOM     28  C   UNL     1       3.457   4.818  18.740  0.00  0.00    +0.000 A 
ATOM     29  C   UNL     1       4.627   6.384  17.160  0.00  0.00    +0.000 C 
ATOM     30  C   UNL     1       5.881   6.631  16.312  0.00  0.00    +0.000 C 
ENDBRANCH  16  17
ENDBRANCH   1  16
TORSDOF 6
ENDMDL
MODEL 7
REMARK VINA RESULT:      -8.4      1.455      2.332
REMARK  Name = 
REMARK  6 active torsions:
REMARK  status: ('A' for Active; 'I' for Inactive)
REMARK    1  A    between atoms: C_2  and  C_21
REMARK    2  A    between atoms: N_3  and  C_4
REMARK    3  A    between atoms: C_4  and  C_5
REMARK    4  A    between atoms: C_5  and  C_6
REMARK    5  A    between atoms: C_6  and  N_7
REMARK    6  A    between atoms: C_23  and  C_24
REMARK                            x       y       z     vdW  Elec       q    Type
REMARK                         _______ _______ _______ _____ _____    ______ ____
ROOT
ATOM      1  C   UNL     1       8.172   7.567  18.216  0.00  0.00    +0.000 C 
ENDROOT
BRANCH   1   2
ATOM      2  C   UNL     1       8.343   8.952  17.602  0.00  0.00    +0.000 C 
BRANCH   2   5
ATOM      3  O   UNL     1      10.186  11.132  17.584  0.00  0.00    +0.000 OA
ATOM      4  C   UNL     1       9.413  10.988  18.520  0.00  0.00    +0.000 C 
ATOM      5  N   UNL     1       8.498   9.966  18.629  0.00  0.00    +0.000 N 
ATOM      6  H   UNL     1       7.846   9.968  19.400  0.00  0.00    +0.000 HD
BRANCH   4   7
ATOM      7  C   UNL     1       9.369  11.956  19.649  0.00  0.00    +0.000 C 
ATOM      8  C   UNL     1       9.654  11.521  21.061  0.00  0.00    +0.000 C 
ATOM      9  C   UNL     1      10.668  12.364  20.329  0.00  0.00    +0.000 C 
BRANCH   9  10
ATOM     10  C   UNL     1      10.876  13.830  20.635  0.00  0.00    +0.000 A 
ATOM     11  C   UNL     1      10.162  14.502  21.640  0.00  0.00    +0.000 A 
ATOM     12  C   UNL     1      10.356  15.863  21.888  0.00  0.00    +0.000 A 
ATOM     13  C   UNL     1      11.290  16.580  21.145  0.00  0.00    +0.000 A 
ATOM     14  C   UNL     1      12.031  15.933  20.161  0.00  0.00    +0.000 A 
ATOM     15  C   UNL     1      11.824  14.574  19.911  0.00  0.00    +0.000 A 
ENDBRANCH   9  10
ENDBRANCH   4   7
ENDBRANCH   2   5
ENDBRANCH   1   2
BRANCH   1  16
ATOM     16  C   UNL     1       6.745   7.022  18.068  0.00  0.00    +0.000 C 
BRANCH  16  17
ATOM     17  N   UNL     1       6.603   5.894  17.128  0.00  0.00    +0.000 NA
ATOM     18  C   UNL     1       6.707   4.569  17.758  0.00  0.00    +0.000 C 
ATOM     19  C   UNL     1       5.538   4.236  18.688  0.00  0.00    +0.000 C 
ATOM     20  C   UNL     1       4.174   4.373  17.978  0.00  0.00    +0.000 C 
ATOM     21  C   UNL     1       3.928   3.167  17.016  0.00  0.00    +0.000 C 
ATOM     22  C   UNL     1       2.605   2.480  17.388  0.00  0.00    +0.000 C 
ATOM     23  C   UNL     1       2.169   3.196  18.618  0.00  0.00    +0.000 A 
ATOM     24  C   UNL     1       1.037   2.925  19.374  0.00  0.00    +0.000 A 
ATOM     25  C   UNL     1       0.765   3.721  20.486  0.00  0.00    +0.000 A 
ATOM     26  C   UNL     1       1.624   4.772  20.831  0.00  0.00    +0.000 A 
ATOM     27  C   UNL     1       2.761   5.036  20.065  0.00  0.00    +0.000 A 
ATOM     28  C   UNL     1       3.028   4.241  18.955  0.00  0.00    +0.000 A 
ATOM     29  C   UNL     1       4.092   5.713  17.218  0.00  0.00    +0.000 C 
ATOM     30  C   UNL     1       5.342   5.979  16.370  0.00  0.00    +0.000 C 
ENDBRANCH  16  17
ENDBRANCH   1  16
TORSDOF 6
ENDMDL
MODEL 8
REMARK VINA RESULT:      -8.4      2.361      3.123
REMARK  Name = 
REMARK  6 active torsions:
REMARK  status: ('A' for Active; 'I' for Inactive)
REMARK    1  A    between atoms: C_2  and  C_21
REMARK    2  A    between atoms: N_3  and  C_4
REMARK    3  A    between atoms: C_4  and  C_5
REMARK    4  A    between atoms: C_5  and  C_6
REMARK    5  A    between atoms: C_6  and  N_7
REMARK    6  A    between atoms: C_23  and  C_24
REMARK                            x       y       z     vdW  Elec       q    Type
REMARK                         _______ _______ _______ _____ _____    ______ ____
ROOT
ATOM      1  C   UNL     1       7.719   8.501  17.673  0.00  0.00    +0.000 C 
ENDROOT
BRANCH   1   2
ATOM      2  C   UNL     1       8.926   9.125  18.366  0.00  0.00    +0.000 C 
BRANCH   2   5
ATOM      3  O   UNL     1      10.841  11.209  18.734  0.00  0.00    +0.000 OA
ATOM      4  C   UNL     1       9.650  11.431  18.903  0.00  0.00    +0.000 C 
ATOM      5  N   UNL     1       8.653  10.494  18.763  0.00  0.00    +0.000 N 
ATOM      6  H   UNL     1       7.689  10.784  18.847  0.00  0.00    +0.000 HD
BRANCH   4   7
ATOM      7  C   UNL     1       9.154  12.789  19.255  0.00  0.00    +0.000 C 
ATOM      8  C   UNL     1      10.024  14.005  19.083  0.00  0.00    +0.000 C 
ATOM      9  C   UNL     1       8.866  13.785  18.142  0.00  0.00    +0.000 C 
BRANCH   9  10
ATOM     10  C   UNL     1       7.589  14.590  18.227  0.00  0.00    +0.000 A 
ATOM     11  C   UNL     1       6.355  14.103  17.767  0.00  0.00    +0.000 A 
ATOM     12  C   UNL     1       5.193  14.876  17.836  0.00  0.00    +0.000 A 
ATOM     13  C   UNL     1       5.238  16.153  18.387  0.00  0.00    +0.000 A 
ATOM     14  C   UNL     1       6.442  16.652  18.875  0.00  0.00    +0.000 A 
ATOM     15  C   UNL     1       7.602  15.877  18.793  0.00  0.00    +0.000 A 
ENDBRANCH   9  10
ENDBRANCH   4   7
ENDBRANCH   2   5
ENDBRANCH   1   2
BRANCH   1  16
ATOM     16  C   UNL     1       7.439   7.066  18.140  0.00  0.00    +0.000 C 
BRANCH  16  17
ATOM     17  N   UNL     1       7.121   6.111  17.063  0.00  0.00    +0.000 NA
ATOM     18  C   UNL     1       7.058   4.709  17.500  0.00  0.00    +0.000 C 
ATOM     19  C   UNL     1       5.878   4.405  18.427  0.00  0.00    +0.000 C 
ATOM     20  C   UNL     1       4.529   4.820  17.804  0.00  0.00    +0.000 C 
ATOM     21  C   UNL     1       4.095   3.805  16.698  0.00  0.00    +0.000 C 
ATOM     22  C   UNL     1       2.700   3.254  17.031  0.00  0.00    +0.000 C 
ATOM     23  C   UNL     1       2.398   3.840  18.366  0.00  0.00    +0.000 A 
ATOM     24  C   UNL     1       1.259   3.617  19.127  0.00  0.00    +0.000 A 
ATOM     25  C   UNL     1       1.127   4.276  20.349  0.00  0.00    +0.000 A 
ATOM     26  C   UNL     1       2.131   5.145  20.795  0.00  0.00    +0.000 A 
ATOM     27  C   UNL     1       3.273   5.362  20.023  0.00  0.00    +0.000 A 
ATOM     28  C   UNL     1       3.400   4.704  18.804  0.00  0.00    +0.000 A 
ATOM     29  C   UNL     1       4.612   6.253  17.238  0.00  0.00    +0.000 C 
ATOM     30  C   UNL     1       5.864   6.468  16.380  0.00  0.00    +0.000 C 
ENDBRANCH  16  17
ENDBRANCH   1  16
TORSDOF 6
ENDMDL
MODEL 9
REMARK VINA RESULT:      -8.3      1.923     10.390
REMARK  Name = 
REMARK  6 active torsions:
REMARK  status: ('A' for Active; 'I' for Inactive)
REMARK    1  A    between atoms: C_2  and  C_21
REMARK    2  A    between atoms: N_3  and  C_4
REMARK    3  A    between atoms: C_4  and  C_5
REMARK    4  A    between atoms: C_5  and  C_6
REMARK    5  A    between atoms: C_6  and  N_7
REMARK    6  A    between atoms: C_23  and  C_24
REMARK                            x       y       z     vdW  Elec       q    Type
REMARK                         _______ _______ _______ _____ _____    ______ ____
ROOT
ATOM      1  C   UNL     1       7.842   9.461  18.024  0.00  0.00    +0.000 C 
ENDROOT
BRANCH   1   2
ATOM      2  C   UNL     1       8.215   8.147  17.344  0.00  0.00    +0.000 C 
BRANCH   2   5
ATOM      3  O   UNL     1       5.918   6.928  16.168  0.00  0.00    +0.000 OA
ATOM      4  C   UNL     1       6.357   6.514  17.232  0.00  0.00    +0.000 C 
ATOM      5  N   UNL     1       7.447   7.040  17.885  0.00  0.00    +0.000 N 
ATOM      6  H   UNL     1       7.787   6.587  18.722  0.00  0.00    +0.000 HD
BRANCH   4   7
ATOM      7  C   UNL     1       5.749   5.345  17.923  0.00  0.00    +0.000 C 
ATOM      8  C   UNL     1       5.974   5.104  19.391  0.00  0.00    +0.000 C 
ATOM      9  C   UNL     1       4.622   5.574  18.918  0.00  0.00    +0.000 C 
BRANCH   9  10
ATOM     10  C   UNL     1       3.422   4.656  18.852  0.00  0.00    +0.000 A 
ATOM     11  C   UNL     1       2.422   4.787  17.876  0.00  0.00    +0.000 A 
ATOM     12  C   UNL     1       1.311   3.939  17.850  0.00  0.00    +0.000 A 
ATOM     13  C   UNL     1       1.187   2.924  18.795  0.00  0.00    +0.000 A 
ATOM     14  C   UNL     1       2.177   2.755  19.758  0.00  0.00    +0.000 A 
ATOM     15  C   UNL     1       3.280   3.613  19.783  0.00  0.00    +0.000 A 
ENDBRANCH   9  10
ENDBRANCH   4   7
ENDBRANCH   2   5
ENDBRANCH   1   2
BRANCH   1  16
ATOM     16  C   UNL     1       8.979  10.032  18.882  0.00  0.00    +0.000 C 
BRANCH  16  17
ATOM     17  N   UNL     1       9.856  10.996  18.192  0.00  0.00    +0.000 NA
ATOM     18  C   UNL     1       9.215  12.285  17.892  0.00  0.00    +0.000 C 
ATOM     19  C   UNL     1       8.897  13.119  19.136  0.00  0.00    +0.000 C 
ATOM     20  C   UNL     1      10.144  13.346  20.016  0.00  0.00    +0.000 C 
ATOM     21  C   UNL     1      11.086  14.416  19.375  0.00  0.00    +0.000 C 
ATOM     22  C   UNL     1      11.328  15.550  20.382  0.00  0.00    +0.000 C 
ATOM     23  C   UNL     1      10.438  15.204  21.525  0.00  0.00    +0.000 A 
ATOM     24  C   UNL     1      10.261  15.943  22.687  0.00  0.00    +0.000 A 
ATOM     25  C   UNL     1       9.406  15.451  23.672  0.00  0.00    +0.000 A 
ATOM     26  C   UNL     1       8.739  14.234  23.487  0.00  0.00    +0.000 A 
ATOM     27  C   UNL     1       8.923  13.499  22.314  0.00  0.00    +0.000 A 
ATOM     28  C   UNL     1       9.778  13.992  21.334  0.00  0.00    +0.000 A 
ATOM     29  C   UNL     1      10.892  12.017  20.249  0.00  0.00    +0.000 C 
ATOM     30  C   UNL     1      11.099  11.231  18.949  0.00  0.00    +0.000 C 
ENDBRANCH  16  17
ENDBRANCH   1  16
TORSDOF 6
ENDMDL
