MODEL 1
REMARK VINA RESULT:      -8.0      0.000      0.000
REMARK  Name = 
REMARK  11 active torsions:
REMARK  status: ('A' for Active; 'I' for Inactive)
REMARK    1  A    between atoms: C_1  and  C_2
REMARK    2  A    between atoms: C_2  and  O_3
REMARK    3  A    between atoms: O_3  and  C_4
REMARK    4  A    between atoms: C_9  and  C_10
REMARK    5  A    between atoms: C_13  and  C_14
REMARK    6  A    between atoms: C_14  and  S_15
REMARK    7  A    between atoms: S_15  and  C_16
REMARK    8  A    between atoms: C_19  and  C_20
REMARK    9  A    between atoms: N_26  and  C_27
REMARK   10  A    between atoms: C_30  and  O_31
REMARK   11  A    between atoms: O_31  and  C_32
REMARK                            x       y       z     vdW  Elec       q    Type
REMARK                         _______ _______ _______ _____ _____    ______ ____
ROOT
ATOM      1  C   UNL     1      -0.099  10.662  21.105  0.00  0.00    +0.000 A 
ATOM      2  N   UNL     1       0.662  11.307  21.953  0.00  0.00    +0.000 NA
ATOM      3  N   UNL     1       0.552  12.648  21.687  0.00  0.00    +0.000 NA
ATOM      4  C   UNL     1      -0.251  12.816  20.652  0.00  0.00    +0.000 A 
ATOM      5  N   UNL     1      -0.739  11.558  20.248  0.00  0.00    +0.000 N 
ENDROOT
BRANCH   4   6
ATOM      6  C   UNL     1      -0.552  14.137  20.064  0.00  0.00    +0.000 A 
ATOM      7  C   UNL     1      -1.531  14.993  20.598  0.00  0.00    +0.000 A 
ATOM      8  C   UNL     1      -1.634  16.321  20.165  0.00  0.00    +0.000 A 
ATOM      9  C   UNL     1      -0.826  16.782  19.131  0.00  0.00    +0.000 A 
ATOM     10  C   UNL     1       0.064  15.909  18.508  0.00  0.00    +0.000 A 
ATOM     11  C   UNL     1       0.199  14.595  18.973  0.00  0.00    +0.000 A 
ENDBRANCH   4   6
BRANCH   5  12
ATOM     12  C   UNL     1      -1.657  11.280  19.183  0.00  0.00    +0.000 A 
ATOM     13  C   UNL     1      -1.274  10.542  18.059  0.00  0.00    +0.000 A 
ATOM     14  C   UNL     1      -2.132  10.419  16.961  0.00  0.00    +0.000 A 
ATOM     15  C   UNL     1      -3.374  11.051  16.953  0.00  0.00    +0.000 A 
ATOM     16  C   UNL     1      -3.779  11.763  18.077  0.00  0.00    +0.000 A 
ATOM     17  C   UNL     1      -2.952  11.831  19.202  0.00  0.00    +0.000 A 
BRANCH  15  18
ATOM     18  O   UNL     1      -4.082  10.933  15.791  0.00  0.00    +0.000 OA
ATOM     19  C   UNL     1      -3.400  10.295  14.718  0.00  0.00    +0.000 C 
ENDBRANCH  15  18
ENDBRANCH   5  12
BRANCH   1  20
ATOM     20  S   UNL     1      -0.408   8.952  21.183  0.00  0.00    +0.000 S 
BRANCH  20  21
ATOM     21  C   UNL     1       1.253   8.251  21.402  0.00  0.00    +0.000 C 
BRANCH  21  25
ATOM     22  C   UNL     1       2.849   7.033  18.415  0.00  0.00    +0.000 A 
ATOM     23  N   UNL     1       2.256   8.133  17.924  0.00  0.00    +0.000 NA
ATOM     24  O   UNL     1       1.614   8.699  19.023  0.00  0.00    +0.000 OA
ATOM     25  C   UNL     1       1.902   7.912  20.100  0.00  0.00    +0.000 A 
ATOM     26  N   UNL     1       2.673   6.893  19.788  0.00  0.00    +0.000 NA
BRANCH  22  32
ATOM     27  C   UNL     1       3.214   4.644  17.579  0.00  0.00    +0.000 A 
ATOM     28  C   UNL     1       4.035   3.754  16.858  0.00  0.00    +0.000 A 
ATOM     29  C   UNL     1       5.186   4.193  16.202  0.00  0.00    +0.000 A 
ATOM     30  C   UNL     1       5.528   5.534  16.235  0.00  0.00    +0.000 A 
ATOM     31  C   UNL     1       4.723   6.434  16.935  0.00  0.00    +0.000 A 
ATOM     32  C   UNL     1       3.565   6.013  17.631  0.00  0.00    +0.000 A 
BRANCH  27  33
ATOM     33  O   UNL     1       2.090   4.221  18.252  0.00  0.00    +0.000 OA
BRANCH  33  35
ATOM     34  C   UNL     1       2.924   3.337  20.339  0.00  0.00    +0.000 C 
ATOM     35  C   UNL     1       2.210   3.030  19.037  0.00  0.00    +0.000 C 
ENDBRANCH  33  35
ENDBRANCH  27  33
ENDBRANCH  22  32
ENDBRANCH  21  25
ENDBRANCH  20  21
ENDBRANCH   1  20
TORSDOF 9
ENDMDL
MODEL 2
REMARK VINA RESULT:      -7.9      0.895      1.128
REMARK  Name = 
REMARK  11 active torsions:
REMARK  status: ('A' for Active; 'I' for Inactive)
REMARK    1  A    between atoms: C_1  and  C_2
REMARK    2  A    between atoms: C_2  and  O_3
REMARK    3  A    between atoms: O_3  and  C_4
REMARK    4  A    between atoms: C_9  and  C_10
REMARK    5  A    between atoms: C_13  and  C_14
REMARK    6  A    between atoms: C_14  and  S_15
REMARK    7  A    between atoms: S_15  and  C_16
REMARK    8  A    between atoms: C_19  and  C_20
REMARK    9  A    between atoms: N_26  and  C_27
REMARK   10  A    between atoms: C_30  and  O_31
REMARK   11  A    between atoms: O_31  and  C_32
REMARK                            x       y       z     vdW  Elec       q    Type
REMARK                         _______ _______ _______ _____ _____    ______ ____
ROOT
ATOM      1  C   UNL     1       0.015  11.076  20.927  0.00  0.00    +0.000 A 
ATOM      2  N   UNL     1       1.028  11.665  21.510  0.00  0.00    +0.000 NA
ATOM      3  N   UNL     1       0.950  13.008  21.241  0.00  0.00    +0.000 NA
ATOM      4  C   UNL     1      -0.095  13.230  20.464  0.00  0.00    +0.000 A 
ATOM      5  N   UNL     1      -0.770  12.012  20.252  0.00  0.00    +0.000 N 
ENDROOT
BRANCH   4   6
ATOM      6  C   UNL     1      -0.447  14.566  19.940  0.00  0.00    +0.000 A 
ATOM      7  C   UNL     1      -1.256  15.466  20.656  0.00  0.00    +0.000 A 
ATOM      8  C   UNL     1      -1.382  16.798  20.243  0.00  0.00    +0.000 A 
ATOM      9  C   UNL     1      -0.782  17.222  19.062  0.00  0.00    +0.000 A 
ATOM     10  C   UNL     1      -0.081  16.309  18.277  0.00  0.00    +0.000 A 
ATOM     11  C   UNL     1       0.085  14.989  18.715  0.00  0.00    +0.000 A 
ENDBRANCH   4   6
BRANCH   5  12
ATOM     12  C   UNL     1      -1.966  11.799  19.493  0.00  0.00    +0.000 A 
ATOM     13  C   UNL     1      -1.933  11.231  18.215  0.00  0.00    +0.000 A 
ATOM     14  C   UNL     1      -3.088  11.180  17.429  0.00  0.00    +0.000 A 
ATOM     15  C   UNL     1      -4.289  11.717  17.889  0.00  0.00    +0.000 A 
ATOM     16  C   UNL     1      -4.343  12.256  19.169  0.00  0.00    +0.000 A 
ATOM     17  C   UNL     1      -3.207  12.248  19.984  0.00  0.00    +0.000 A 
BRANCH  15  18
ATOM     18  O   UNL     1      -5.322  11.689  16.997  0.00  0.00    +0.000 OA
ATOM     19  C   UNL     1      -6.541  12.266  17.449  0.00  0.00    +0.000 C 
ENDBRANCH  15  18
ENDBRANCH   5  12
BRANCH   1  20
ATOM     20  S   UNL     1      -0.388   9.398  21.144  0.00  0.00    +0.000 S 
BRANCH  20  21
ATOM     21  C   UNL     1       1.232   8.625  21.419  0.00  0.00    +0.000 C 
BRANCH  21  25
ATOM     22  C   UNL     1       2.664   6.961  18.567  0.00  0.00    +0.000 A 
ATOM     23  N   UNL     1       2.185   8.065  17.971  0.00  0.00    +0.000 NA
ATOM     24  O   UNL     1       1.616   8.799  19.008  0.00  0.00    +0.000 OA
ATOM     25  C   UNL     1       1.830   8.095  20.157  0.00  0.00    +0.000 A 
ATOM     26  N   UNL     1       2.487   6.975  19.947  0.00  0.00    +0.000 NA
BRANCH  22  32
ATOM     27  C   UNL     1       2.635   4.541  17.742  0.00  0.00    +0.000 A 
ATOM     28  C   UNL     1       3.351   3.484  17.145  0.00  0.00    +0.000 A 
ATOM     29  C   UNL     1       4.663   3.652  16.702  0.00  0.00    +0.000 A 
ATOM     30  C   UNL     1       5.279   4.886  16.826  0.00  0.00    +0.000 A 
ATOM     31  C   UNL     1       4.583   5.949  17.405  0.00  0.00    +0.000 A 
ATOM     32  C   UNL     1       3.262   5.800  17.888  0.00  0.00    +0.000 A 
BRANCH  27  33
ATOM     33  O   UNL     1       1.349   4.382  18.207  0.00  0.00    +0.000 OA
BRANCH  33  35
ATOM     34  C   UNL     1       1.206   3.592  20.485  0.00  0.00    +0.000 C 
ATOM     35  C   UNL     1       1.085   3.232  19.017  0.00  0.00    +0.000 C 
ENDBRANCH  33  35
ENDBRANCH  27  33
ENDBRANCH  22  32
ENDBRANCH  21  25
ENDBRANCH  20  21
ENDBRANCH   1  20
TORSDOF 9
ENDMDL
MODEL 3
REMARK VINA RESULT:      -7.9      1.205      2.490
REMARK  Name = 
REMARK  11 active torsions:
REMARK  status: ('A' for Active; 'I' for Inactive)
REMARK    1  A    between atoms: C_1  and  C_2
REMARK    2  A    between atoms: C_2  and  O_3
REMARK    3  A    between atoms: O_3  and  C_4
REMARK    4  A    between atoms: C_9  and  C_10
REMARK    5  A    between atoms: C_13  and  C_14
REMARK    6  A    between atoms: C_14  and  S_15
REMARK    7  A    between atoms: S_15  and  C_16
REMARK    8  A    between atoms: C_19  and  C_20
REMARK    9  A    between atoms: N_26  and  C_27
REMARK   10  A    between atoms: C_30  and  O_31
REMARK   11  A    between atoms: O_31  and  C_32
REMARK                            x       y       z     vdW  Elec       q    Type
REMARK                         _______ _______ _______ _____ _____    ______ ____
ROOT
ATOM      1  C   UNL     1       0.147  11.216  20.670  0.00  0.00    +0.000 A 
ATOM      2  N   UNL     1       1.164  11.732  21.312  0.00  0.00    +0.000 NA
ATOM      3  N   UNL     1       1.108  13.095  21.170  0.00  0.00    +0.000 NA
ATOM      4  C   UNL     1       0.072  13.406  20.411  0.00  0.00    +0.000 A 
ATOM      5  N   UNL     1      -0.618  12.223  20.081  0.00  0.00    +0.000 N 
ENDROOT
BRANCH   4   6
ATOM      6  C   UNL     1      -0.256  14.790  20.013  0.00  0.00    +0.000 A 
ATOM      7  C   UNL     1       0.259  15.380  18.846  0.00  0.00    +0.000 A 
ATOM      8  C   UNL     1      -0.245  16.599  18.378  0.00  0.00    +0.000 A 
ATOM      9  C   UNL     1      -1.201  17.289  19.117  0.00  0.00    +0.000 A 
ATOM     10  C   UNL     1      -1.630  16.776  20.339  0.00  0.00    +0.000 A 
ATOM     11  C   UNL     1      -1.160  15.534  20.783  0.00  0.00    +0.000 A 
ENDBRANCH   4   6
BRANCH   5  12
ATOM     12  C   UNL     1      -1.811  12.101  19.297  0.00  0.00    +0.000 A 
ATOM     13  C   UNL     1      -3.075  12.356  19.840  0.00  0.00    +0.000 A 
ATOM     14  C   UNL     1      -4.234  12.077  19.109  0.00  0.00    +0.000 A 
ATOM     15  C   UNL     1      -4.156  11.514  17.836  0.00  0.00    +0.000 A 
ATOM     16  C   UNL     1      -2.906  11.284  17.273  0.00  0.00    +0.000 A 
ATOM     17  C   UNL     1      -1.745  11.625  17.974  0.00  0.00    +0.000 A 
BRANCH  15  18
ATOM     18  O   UNL     1      -5.354  11.203  17.260  0.00  0.00    +0.000 OA
ATOM     19  C   UNL     1      -6.509  11.586  17.999  0.00  0.00    +0.000 C 
ENDBRANCH  15  18
ENDBRANCH   5  12
BRANCH   1  20
ATOM     20  S   UNL     1      -0.282   9.531  20.724  0.00  0.00    +0.000 S 
BRANCH  20  21
ATOM     21  C   UNL     1       1.247   8.743  21.306  0.00  0.00    +0.000 C 
BRANCH  21  25
ATOM     22  C   UNL     1       2.425   6.174  19.078  0.00  0.00    +0.000 A 
ATOM     23  N   UNL     1       2.594   7.252  18.294  0.00  0.00    +0.000 NA
ATOM     24  O   UNL     1       2.177   8.321  19.082  0.00  0.00    +0.000 OA
ATOM     25  C   UNL     1       1.823   7.807  20.295  0.00  0.00    +0.000 A 
ATOM     26  N   UNL     1       1.978   6.502  20.354  0.00  0.00    +0.000 NA
BRANCH  22  32
ATOM     27  C   UNL     1       3.800   4.247  18.112  0.00  0.00    +0.000 A 
ATOM     28  C   UNL     1       3.821   2.904  17.687  0.00  0.00    +0.000 A 
ATOM     29  C   UNL     1       2.697   2.085  17.802  0.00  0.00    +0.000 A 
ATOM     30  C   UNL     1       1.536   2.586  18.365  0.00  0.00    +0.000 A 
ATOM     31  C   UNL     1       1.497   3.911  18.802  0.00  0.00    +0.000 A 
ATOM     32  C   UNL     1       2.612   4.771  18.673  0.00  0.00    +0.000 A 
BRANCH  27  33
ATOM     33  O   UNL     1       4.893   5.074  17.981  0.00  0.00    +0.000 OA
BRANCH  33  35
ATOM     34  C   UNL     1       6.890   4.772  16.655  0.00  0.00    +0.000 C 
ATOM     35  C   UNL     1       5.442   5.225  16.668  0.00  0.00    +0.000 C 
ENDBRANCH  33  35
ENDBRANCH  27  33
ENDBRANCH  22  32
ENDBRANCH  21  25
ENDBRANCH  20  21
ENDBRANCH   1  20
TORSDOF 9
ENDMDL
MODEL 4
REMARK VINA RESULT:      -7.8      5.590      9.505
REMARK  Name = 
REMARK  11 active torsions:
REMARK  status: ('A' for Active; 'I' for Inactive)
REMARK    1  A    between atoms: C_1  and  C_2
REMARK    2  A    between atoms: C_2  and  O_3
REMARK    3  A    between atoms: O_3  and  C_4
REMARK    4  A    between atoms: C_9  and  C_10
REMARK    5  A    between atoms: C_13  and  C_14
REMARK    6  A    between atoms: C_14  and  S_15
REMARK    7  A    between atoms: S_15  and  C_16
REMARK    8  A    between atoms: C_19  and  C_20
REMARK    9  A    between atoms: N_26  and  C_27
REMARK   10  A    between atoms: C_30  and  O_31
REMARK   11  A    between atoms: O_31  and  C_32
REMARK                            x       y       z     vdW  Elec       q    Type
REMARK                         _______ _______ _______ _____ _____    ______ ____
ROOT
ATOM      1  C   UNL     1       5.918   5.441  18.054  0.00  0.00    +0.000 A 
ATOM      2  N   UNL     1       6.408   4.229  18.128  0.00  0.00    +0.000 NA
ATOM      3  N   UNL     1       5.446   3.414  18.669  0.00  0.00    +0.000 NA
ATOM      4  C   UNL     1       4.380   4.140  18.955  0.00  0.00    +0.000 A 
ATOM      5  N   UNL     1       4.611   5.467  18.544  0.00  0.00    +0.000 N 
ENDROOT
BRANCH   4   6
ATOM      6  C   UNL     1       3.171   3.587  19.598  0.00  0.00    +0.000 A 
ATOM      7  C   UNL     1       3.096   3.348  20.981  0.00  0.00    +0.000 A 
ATOM      8  C   UNL     1       1.873   3.043  21.590  0.00  0.00    +0.000 A 
ATOM      9  C   UNL     1       0.729   2.880  20.815  0.00  0.00    +0.000 A 
ATOM     10  C   UNL     1       0.813   2.992  19.428  0.00  0.00    +0.000 A 
ATOM     11  C   UNL     1       2.027   3.344  18.825  0.00  0.00    +0.000 A 
ENDBRANCH   4   6
BRANCH   5  12
ATOM     12  C   UNL     1       3.712   6.579  18.640  0.00  0.00    +0.000 A 
ATOM     13  C   UNL     1       2.907   6.775  19.767  0.00  0.00    +0.000 A 
ATOM     14  C   UNL     1       1.924   7.769  19.775  0.00  0.00    +0.000 A 
ATOM     15  C   UNL     1       1.707   8.567  18.653  0.00  0.00    +0.000 A 
ATOM     16  C   UNL     1       2.521   8.403  17.538  0.00  0.00    +0.000 A 
ATOM     17  C   UNL     1       3.549   7.456  17.551  0.00  0.00    +0.000 A 
BRANCH  15  18
ATOM     18  O   UNL     1       0.661   9.439  18.749  0.00  0.00    +0.000 OA
ATOM     19  C   UNL     1       0.920  10.632  19.480  0.00  0.00    +0.000 C 
ENDBRANCH  15  18
ENDBRANCH   5  12
BRANCH   1  20
ATOM     20  S   UNL     1       6.723   6.768  17.270  0.00  0.00    +0.000 S 
BRANCH  20  21
ATOM     21  C   UNL     1       8.009   7.225  18.469  0.00  0.00    +0.000 C 
BRANCH  21  25
ATOM     22  C   UNL     1       9.217  10.615  18.454  0.00  0.00    +0.000 A 
ATOM     23  N   UNL     1       8.150  10.749  17.649  0.00  0.00    +0.000 NA
ATOM     24  O   UNL     1       7.591   9.475  17.602  0.00  0.00    +0.000 OA
ATOM     25  C   UNL     1       8.346   8.679  18.413  0.00  0.00    +0.000 A 
ATOM     26  N   UNL     1       9.338   9.332  18.978  0.00  0.00    +0.000 NA
BRANCH  22  32
ATOM     27  C   UNL     1      10.477  12.193  20.022  0.00  0.00    +0.000 A 
ATOM     28  C   UNL     1      11.406  13.244  20.149  0.00  0.00    +0.000 A 
ATOM     29  C   UNL     1      12.071  13.767  19.039  0.00  0.00    +0.000 A 
ATOM     30  C   UNL     1      11.838  13.233  17.783  0.00  0.00    +0.000 A 
ATOM     31  C   UNL     1      10.929  12.184  17.637  0.00  0.00    +0.000 A 
ATOM     32  C   UNL     1      10.221  11.653  18.741  0.00  0.00    +0.000 A 
BRANCH  27  33
ATOM     33  O   UNL     1       9.795  11.685  21.105  0.00  0.00    +0.000 OA
BRANCH  33  35
ATOM     34  C   UNL     1       8.110  11.786  22.834  0.00  0.00    +0.000 C 
ATOM     35  C   UNL     1       8.788  12.517  21.690  0.00  0.00    +0.000 C 
ENDBRANCH  33  35
ENDBRANCH  27  33
ENDBRANCH  22  32
ENDBRANCH  21  25
ENDBRANCH  20  21
ENDBRANCH   1  20
TORSDOF 9
ENDMDL
MODEL 5
REMARK VINA RESULT:      -7.5      1.290      2.002
REMARK  Name = 
REMARK  11 active torsions:
REMARK  status: ('A' for Active; 'I' for Inactive)
REMARK    1  A    between atoms: C_1  and  C_2
REMARK    2  A    between atoms: C_2  and  O_3
REMARK    3  A    between atoms: O_3  and  C_4
REMARK    4  A    between atoms: C_9  and  C_10
REMARK    5  A    between atoms: C_13  and  C_14
REMARK    6  A    between atoms: C_14  and  S_15
REMARK    7  A    between atoms: S_15  and  C_16
REMARK    8  A    between atoms: C_19  and  C_20
REMARK    9  A    between atoms: N_26  and  C_27
REMARK   10  A    between atoms: C_30  and  O_31
REMARK   11  A    between atoms: O_31  and  C_32
REMARK                            x       y       z     vdW  Elec       q    Type
REMARK                         _______ _______ _______ _____ _____    ______ ____
ROOT
ATOM      1  C   UNL     1       0.789  12.226  20.485  0.00  0.00    +0.000 A 
ATOM      2  N   UNL     1       1.707  12.974  21.042  0.00  0.00    +0.000 NA
ATOM      3  N   UNL     1       1.335  14.286  20.890  0.00  0.00    +0.000 NA
ATOM      4  C   UNL     1       0.205  14.335  20.208  0.00  0.00    +0.000 A 
ATOM      5  N   UNL     1      -0.223  13.020  19.944  0.00  0.00    +0.000 N 
ENDROOT
BRANCH   4   6
ATOM      6  C   UNL     1      -0.454  15.599  19.820  0.00  0.00    +0.000 A 
ATOM      7  C   UNL     1      -0.099  16.309  18.661  0.00  0.00    +0.000 A 
ATOM      8  C   UNL     1      -0.888  17.370  18.201  0.00  0.00    +0.000 A 
ATOM      9  C   UNL     1      -1.985  17.796  18.942  0.00  0.00    +0.000 A 
ATOM     10  C   UNL     1      -2.277  17.182  20.159  0.00  0.00    +0.000 A 
ATOM     11  C   UNL     1      -1.515  16.090  20.593  0.00  0.00    +0.000 A 
ENDBRANCH   4   6
BRANCH   5  12
ATOM     12  C   UNL     1      -1.411  12.612  19.254  0.00  0.00    +0.000 A 
ATOM     13  C   UNL     1      -2.650  12.551  19.900  0.00  0.00    +0.000 A 
ATOM     14  C   UNL     1      -3.762  11.999  19.257  0.00  0.00    +0.000 A 
ATOM     15  C   UNL     1      -3.654  11.473  17.971  0.00  0.00    +0.000 A 
ATOM     16  C   UNL     1      -2.435  11.554  17.306  0.00  0.00    +0.000 A 
ATOM     17  C   UNL     1      -1.339  12.167  17.920  0.00  0.00    +0.000 A 
BRANCH  15  18
ATOM     18  O   UNL     1      -4.784  10.880  17.485  0.00  0.00    +0.000 OA
ATOM     19  C   UNL     1      -5.947  11.020  18.292  0.00  0.00    +0.000 C 
ENDBRANCH  15  18
ENDBRANCH   5  12
BRANCH   1  20
ATOM     20  S   UNL     1       0.756  10.490  20.590  0.00  0.00    +0.000 S 
BRANCH  20  21
ATOM     21  C   UNL     1       1.066   9.975  18.877  0.00  0.00    +0.000 C 
BRANCH  21  25
ATOM     22  C   UNL     1       2.916   6.936  18.337  0.00  0.00    +0.000 A 
ATOM     23  N   UNL     1       2.622   6.796  19.640  0.00  0.00    +0.000 NA
ATOM     24  O   UNL     1       1.879   7.931  19.950  0.00  0.00    +0.000 OA
ATOM     25  C   UNL     1       1.752   8.650  18.797  0.00  0.00    +0.000 A 
ATOM     26  N   UNL     1       2.347   8.075  17.775  0.00  0.00    +0.000 NA
BRANCH  22  32
ATOM     27  C   UNL     1       3.593   4.663  17.382  0.00  0.00    +0.000 A 
ATOM     28  C   UNL     1       4.551   3.915  16.670  0.00  0.00    +0.000 A 
ATOM     29  C   UNL     1       5.691   4.514  16.132  0.00  0.00    +0.000 A 
ATOM     30  C   UNL     1       5.884   5.877  16.276  0.00  0.00    +0.000 A 
ATOM     31  C   UNL     1       4.941   6.638  16.969  0.00  0.00    +0.000 A 
ATOM     32  C   UNL     1       3.790   6.053  17.547  0.00  0.00    +0.000 A 
BRANCH  27  33
ATOM     33  O   UNL     1       2.476   4.080  17.939  0.00  0.00    +0.000 OA
BRANCH  33  35
ATOM     34  C   UNL     1       2.230   1.829  18.780  0.00  0.00    +0.000 C 
ATOM     35  C   UNL     1       2.680   3.246  19.084  0.00  0.00    +0.000 C 
ENDBRANCH  33  35
ENDBRANCH  27  33
ENDBRANCH  22  32
ENDBRANCH  21  25
ENDBRANCH  20  21
ENDBRANCH   1  20
TORSDOF 9
ENDMDL
MODEL 6
REMARK VINA RESULT:      -7.4      2.042      2.665
REMARK  Name = 
REMARK  11 active torsions:
REMARK  status: ('A' for Active; 'I' for Inactive)
REMARK    1  A    between atoms: C_1  and  C_2
REMARK    2  A    between atoms: C_2  and  O_3
REMARK    3  A    between atoms: O_3  and  C_4
REMARK    4  A    between atoms: C_9  and  C_10
REMARK    5  A    between atoms: C_13  and  C_14
REMARK    6  A    between atoms: C_14  and  S_15
REMARK    7  A    between atoms: S_15  and  C_16
REMARK    8  A    between atoms: C_19  and  C_20
REMARK    9  A    between atoms: N_26  and  C_27
REMARK   10  A    between atoms: C_30  and  O_31
REMARK   11  A    between atoms: O_31  and  C_32
REMARK                            x       y       z     vdW  Elec       q    Type
REMARK                         _______ _______ _______ _____ _____    ______ ____
ROOT
ATOM      1  C   UNL     1       0.962  11.654  19.788  0.00  0.00    +0.000 A 
ATOM      2  N   UNL     1       1.458  12.058  20.930  0.00  0.00    +0.000 NA
ATOM      3  N   UNL     1       0.413  12.317  21.780  0.00  0.00    +0.000 NA
ATOM      4  C   UNL     1      -0.723  12.102  21.141  0.00  0.00    +0.000 A 
ATOM      5  N   UNL     1      -0.433  11.631  19.846  0.00  0.00    +0.000 N 
ENDROOT
BRANCH   4   6
ATOM      6  C   UNL     1      -2.050  12.332  21.747  0.00  0.00    +0.000 A 
ATOM      7  C   UNL     1      -2.344  11.975  23.074  0.00  0.00    +0.000 A 
ATOM      8  C   UNL     1      -3.525  12.410  23.688  0.00  0.00    +0.000 A 
ATOM      9  C   UNL     1      -4.469  13.123  22.957  0.00  0.00    +0.000 A 
ATOM     10  C   UNL     1      -4.248  13.377  21.605  0.00  0.00    +0.000 A 
ATOM     11  C   UNL     1      -3.045  12.983  21.005  0.00  0.00    +0.000 A 
ENDBRANCH   4   6
BRANCH   5  12
ATOM     12  C   UNL     1      -1.366  11.250  18.828  0.00  0.00    +0.000 A 
ATOM     13  C   UNL     1      -2.087  10.054  18.904  0.00  0.00    +0.000 A 
ATOM     14  C   UNL     1      -2.869   9.624  17.828  0.00  0.00    +0.000 A 
ATOM     15  C   UNL     1      -2.926  10.363  16.647  0.00  0.00    +0.000 A 
ATOM     16  C   UNL     1      -2.239  11.568  16.570  0.00  0.00    +0.000 A 
ATOM     17  C   UNL     1      -1.511  12.035  17.668  0.00  0.00    +0.000 A 
BRANCH  15  18
ATOM     18  O   UNL     1      -3.649   9.795  15.637  0.00  0.00    +0.000 OA
ATOM     19  C   UNL     1      -3.365  10.281  14.331  0.00  0.00    +0.000 C 
ENDBRANCH  15  18
ENDBRANCH   5  12
BRANCH   1  20
ATOM     20  S   UNL     1       1.922  11.046  18.472  0.00  0.00    +0.000 S 
BRANCH  20  21
ATOM     21  C   UNL     1       1.115   9.468  18.077  0.00  0.00    +0.000 C 
BRANCH  21  25
ATOM     22  C   UNL     1       3.576   6.843  18.048  0.00  0.00    +0.000 A 
ATOM     23  N   UNL     1       3.116   6.711  19.303  0.00  0.00    +0.000 NA
ATOM     24  O   UNL     1       2.129   7.686  19.413  0.00  0.00    +0.000 OA
ATOM     25  C   UNL     1       2.046   8.307  18.201  0.00  0.00    +0.000 A 
ATOM     26  N   UNL     1       2.892   7.814  17.323  0.00  0.00    +0.000 NA
BRANCH  22  32
ATOM     27  C   UNL     1       4.690   4.759  17.071  0.00  0.00    +0.000 A 
ATOM     28  C   UNL     1       5.876   4.159  16.603  0.00  0.00    +0.000 A 
ATOM     29  C   UNL     1       7.072   4.873  16.524  0.00  0.00    +0.000 A 
ATOM     30  C   UNL     1       7.102   6.208  16.891  0.00  0.00    +0.000 A 
ATOM     31  C   UNL     1       5.936   6.824  17.347  0.00  0.00    +0.000 A 
ATOM     32  C   UNL     1       4.716   6.118  17.463  0.00  0.00    +0.000 A 
BRANCH  27  33
ATOM     33  O   UNL     1       3.509   4.060  17.178  0.00  0.00    +0.000 OA
BRANCH  33  35
ATOM     34  C   UNL     1       3.411   1.784  17.980  0.00  0.00    +0.000 C 
ATOM     35  C   UNL     1       3.332   3.253  18.347  0.00  0.00    +0.000 C 
ENDBRANCH  33  35
ENDBRANCH  27  33
ENDBRANCH  22  32
ENDBRANCH  21  25
ENDBRANCH  20  21
ENDBRANCH   1  20
TORSDOF 9
ENDMDL
MODEL 7
REMARK VINA RESULT:      -7.4      2.424      4.697
REMARK  Name = 
REMARK  11 active torsions:
REMARK  status: ('A' for Active; 'I' for Inactive)
REMARK    1  A    between atoms: C_1  and  C_2
REMARK    2  A    between atoms: C_2  and  O_3
REMARK    3  A    between atoms: O_3  and  C_4
REMARK    4  A    between atoms: C_9  and  C_10
REMARK    5  A    between atoms: C_13  and  C_14
REMARK    6  A    between atoms: C_14  and  S_15
REMARK    7  A    between atoms: S_15  and  C_16
REMARK    8  A    between atoms: C_19  and  C_20
REMARK    9  A    between atoms: N_26  and  C_27
REMARK   10  A    between atoms: C_30  and  O_31
REMARK   11  A    between atoms: O_31  and  C_32
REMARK                            x       y       z     vdW  Elec       q    Type
REMARK                         _______ _______ _______ _____ _____    ______ ____
ROOT
ATOM      1  C   UNL     1      -0.550  10.713  18.610  0.00  0.00    +0.000 A 
ATOM      2  N   UNL     1      -0.982  10.014  17.592  0.00  0.00    +0.000 NA
ATOM      3  N   UNL     1      -2.298  10.338  17.382  0.00  0.00    +0.000 NA
ATOM      4  C   UNL     1      -2.676  11.211  18.299  0.00  0.00    +0.000 A 
ATOM      5  N   UNL     1      -1.569  11.525  19.110  0.00  0.00    +0.000 N 
ENDROOT
BRANCH   4   6
ATOM      6  C   UNL     1      -4.053  11.738  18.398  0.00  0.00    +0.000 A 
ATOM      7  C   UNL     1      -4.597  12.199  19.609  0.00  0.00    +0.000 A 
ATOM      8  C   UNL     1      -5.809  12.899  19.629  0.00  0.00    +0.000 A 
ATOM      9  C   UNL     1      -6.539  13.064  18.456  0.00  0.00    +0.000 A 
ATOM     10  C   UNL     1      -6.072  12.503  17.268  0.00  0.00    +0.000 A 
ATOM     11  C   UNL     1      -4.837  11.845  17.241  0.00  0.00    +0.000 A 
ENDBRANCH   4   6
BRANCH   5  12
ATOM     12  C   UNL     1      -1.526  12.446  20.207  0.00  0.00    +0.000 A 
ATOM     13  C   UNL     1      -1.346  13.818  20.006  0.00  0.00    +0.000 A 
ATOM     14  C   UNL     1      -1.145  14.677  21.091  0.00  0.00    +0.000 A 
ATOM     15  C   UNL     1      -1.094  14.181  22.393  0.00  0.00    +0.000 A 
ATOM     16  C   UNL     1      -1.301  12.823  22.609  0.00  0.00    +0.000 A 
ATOM     17  C   UNL     1      -1.569  11.973  21.532  0.00  0.00    +0.000 A 
BRANCH  15  18
ATOM     18  O   UNL     1      -0.802  15.102  23.358  0.00  0.00    +0.000 OA
ATOM     19  C   UNL     1       0.167  16.081  23.000  0.00  0.00    +0.000 C 
ENDBRANCH  15  18
ENDBRANCH   5  12
BRANCH   1  20
ATOM     20  S   UNL     1       1.111  10.757  19.123  0.00  0.00    +0.000 S 
BRANCH  20  21
ATOM     21  C   UNL     1       1.928   9.643  17.944  0.00  0.00    +0.000 C 
BRANCH  21  25
ATOM     22  C   UNL     1       2.341   6.174  18.804  0.00  0.00    +0.000 A 
ATOM     23  N   UNL     1       2.225   6.701  20.034  0.00  0.00    +0.000 NA
ATOM     24  O   UNL     1       2.040   8.063  19.809  0.00  0.00    +0.000 OA
ATOM     25  C   UNL     1       2.023   8.244  18.457  0.00  0.00    +0.000 A 
ATOM     26  N   UNL     1       2.178   7.118  17.795  0.00  0.00    +0.000 NA
BRANCH  22  32
ATOM     27  C   UNL     1       3.926   4.322  18.033  0.00  0.00    +0.000 A 
ATOM     28  C   UNL     1       4.083   2.965  17.686  0.00  0.00    +0.000 A 
ATOM     29  C   UNL     1       3.024   2.062  17.778  0.00  0.00    +0.000 A 
ATOM     30  C   UNL     1       1.792   2.492  18.241  0.00  0.00    +0.000 A 
ATOM     31  C   UNL     1       1.618   3.829  18.599  0.00  0.00    +0.000 A 
ATOM     32  C   UNL     1       2.666   4.772  18.491  0.00  0.00    +0.000 A 
BRANCH  27  33
ATOM     33  O   UNL     1       4.956   5.230  17.922  0.00  0.00    +0.000 OA
BRANCH  33  35
ATOM     34  C   UNL     1       7.356   5.007  18.069  0.00  0.00    +0.000 C 
ATOM     35  C   UNL     1       6.049   5.089  18.834  0.00  0.00    +0.000 C 
ENDBRANCH  33  35
ENDBRANCH  27  33
ENDBRANCH  22  32
ENDBRANCH  21  25
ENDBRANCH  20  21
ENDBRANCH   1  20
TORSDOF 9
ENDMDL
MODEL 8
REMARK VINA RESULT:      -7.4      2.465      3.386
REMARK  Name = 
REMARK  11 active torsions:
REMARK  status: ('A' for Active; 'I' for Inactive)
REMARK    1  A    between atoms: C_1  and  C_2
REMARK    2  A    between atoms: C_2  and  O_3
REMARK    3  A    between atoms: O_3  and  C_4
REMARK    4  A    between atoms: C_9  and  C_10
REMARK    5  A    between atoms: C_13  and  C_14
REMARK    6  A    between atoms: C_14  and  S_15
REMARK    7  A    between atoms: S_15  and  C_16
REMARK    8  A    between atoms: C_19  and  C_20
REMARK    9  A    between atoms: N_26  and  C_27
REMARK   10  A    between atoms: C_30  and  O_31
REMARK   11  A    between atoms: O_31  and  C_32
REMARK                            x       y       z     vdW  Elec       q    Type
REMARK                         _______ _______ _______ _____ _____    ______ ____
ROOT
ATOM      1  C   UNL     1       1.161  12.071  19.194  0.00  0.00    +0.000 A 
ATOM      2  N   UNL     1       2.152  12.547  18.483  0.00  0.00    +0.000 NA
ATOM      3  N   UNL     1       2.066  13.916  18.498  0.00  0.00    +0.000 NA
ATOM      4  C   UNL     1       1.000  14.272  19.192  0.00  0.00    +0.000 A 
ATOM      5  N   UNL     1       0.385  13.113  19.704  0.00  0.00    +0.000 N 
ENDROOT
BRANCH   4   6
ATOM      6  C   UNL     1       0.578  15.676  19.368  0.00  0.00    +0.000 A 
ATOM      7  C   UNL     1      -0.350  16.297  18.514  0.00  0.00    +0.000 A 
ATOM      8  C   UNL     1      -0.899  17.543  18.838  0.00  0.00    +0.000 A 
ATOM      9  C   UNL     1      -0.460  18.227  19.967  0.00  0.00    +0.000 A 
ATOM     10  C   UNL     1       0.550  17.680  20.756  0.00  0.00    +0.000 A 
ATOM     11  C   UNL     1       1.064  16.412  20.458  0.00  0.00    +0.000 A 
ENDBRANCH   4   6
BRANCH   5  12
ATOM     12  C   UNL     1      -0.782  13.039  20.532  0.00  0.00    +0.000 A 
ATOM     13  C   UNL     1      -0.688  12.902  21.921  0.00  0.00    +0.000 A 
ATOM     14  C   UNL     1      -1.831  12.670  22.692  0.00  0.00    +0.000 A 
ATOM     15  C   UNL     1      -3.083  12.544  22.093  0.00  0.00    +0.000 A 
ATOM     16  C   UNL     1      -3.194  12.708  20.717  0.00  0.00    +0.000 A 
ATOM     17  C   UNL     1      -2.064  13.007  19.951  0.00  0.00    +0.000 A 
BRANCH  15  18
ATOM     18  O   UNL     1      -4.107  12.228  22.939  0.00  0.00    +0.000 OA
ATOM     19  C   UNL     1      -3.897  12.555  24.307  0.00  0.00    +0.000 C 
ENDBRANCH  15  18
ENDBRANCH   5  12
BRANCH   1  20
ATOM     20  S   UNL     1       0.975  10.390  19.596  0.00  0.00    +0.000 S 
BRANCH  20  21
ATOM     21  C   UNL     1       1.189   9.564  17.993  0.00  0.00    +0.000 C 
BRANCH  21  25
ATOM     22  C   UNL     1       3.543   6.843  17.923  0.00  0.00    +0.000 A 
ATOM     23  N   UNL     1       2.993   6.638  19.131  0.00  0.00    +0.000 NA
ATOM     24  O   UNL     1       2.039   7.645  19.251  0.00  0.00    +0.000 OA
ATOM     25  C   UNL     1       2.064   8.357  18.088  0.00  0.00    +0.000 A 
ATOM     26  N   UNL     1       2.949   7.895  17.232  0.00  0.00    +0.000 NA
BRANCH  22  32
ATOM     27  C   UNL     1       4.658   4.766  16.932  0.00  0.00    +0.000 A 
ATOM     28  C   UNL     1       5.850   4.158  16.491  0.00  0.00    +0.000 A 
ATOM     29  C   UNL     1       7.060   4.853  16.474  0.00  0.00    +0.000 A 
ATOM     30  C   UNL     1       7.098   6.178  16.876  0.00  0.00    +0.000 A 
ATOM     31  C   UNL     1       5.926   6.802  17.307  0.00  0.00    +0.000 A 
ATOM     32  C   UNL     1       4.691   6.114  17.360  0.00  0.00    +0.000 A 
BRANCH  27  33
ATOM     33  O   UNL     1       3.462   4.085  16.979  0.00  0.00    +0.000 OA
BRANCH  33  35
ATOM     34  C   UNL     1       1.958   2.601  18.149  0.00  0.00    +0.000 C 
ATOM     35  C   UNL     1       3.402   2.932  17.824  0.00  0.00    +0.000 C 
ENDBRANCH  33  35
ENDBRANCH  27  33
ENDBRANCH  22  32
ENDBRANCH  21  25
ENDBRANCH  20  21
ENDBRANCH   1  20
TORSDOF 9
ENDMDL
MODEL 9
REMARK VINA RESULT:      -7.3      1.171      2.392
REMARK  Name = 
REMARK  11 active torsions:
REMARK  status: ('A' for Active; 'I' for Inactive)
REMARK    1  A    between atoms: C_1  and  C_2
REMARK    2  A    between atoms: C_2  and  O_3
REMARK    3  A    between atoms: O_3  and  C_4
REMARK    4  A    between atoms: C_9  and  C_10
REMARK    5  A    between atoms: C_13  and  C_14
REMARK    6  A    between atoms: C_14  and  S_15
REMARK    7  A    between atoms: S_15  and  C_16
REMARK    8  A    between atoms: C_19  and  C_20
REMARK    9  A    between atoms: N_26  and  C_27
REMARK   10  A    between atoms: C_30  and  O_31
REMARK   11  A    between atoms: O_31  and  C_32
REMARK                            x       y       z     vdW  Elec       q    Type
REMARK                         _______ _______ _______ _____ _____    ______ ____
ROOT
ATOM      1  C   UNL     1      -0.497  10.701  21.921  0.00  0.00    +0.000 A 
ATOM      2  N   UNL     1      -0.128  11.281  23.035  0.00  0.00    +0.000 NA
ATOM      3  N   UNL     1      -0.457  12.610  22.951  0.00  0.00    +0.000 NA
ATOM      4  C   UNL     1      -0.998  12.845  21.769  0.00  0.00    +0.000 A 
ATOM      5  N   UNL     1      -1.086  11.630  21.062  0.00  0.00    +0.000 N 
ENDROOT
BRANCH   4   6
ATOM      6  C   UNL     1      -1.425  14.187  21.324  0.00  0.00    +0.000 A 
ATOM      7  C   UNL     1      -0.664  14.962  20.432  0.00  0.00    +0.000 A 
ATOM      8  C   UNL     1      -1.199  16.120  19.854  0.00  0.00    +0.000 A 
ATOM      9  C   UNL     1      -2.459  16.570  20.232  0.00  0.00    +0.000 A 
ATOM     10  C   UNL     1      -3.174  15.880  21.209  0.00  0.00    +0.000 A 
ATOM     11  C   UNL     1      -2.659  14.696  21.751  0.00  0.00    +0.000 A 
ENDBRANCH   4   6
BRANCH   5  12
ATOM     12  C   UNL     1      -1.631  11.421  19.753  0.00  0.00    +0.000 A 
ATOM     13  C   UNL     1      -2.869  11.954  19.381  0.00  0.00    +0.000 A 
ATOM     14  C   UNL     1      -3.456  11.606  18.160  0.00  0.00    +0.000 A 
ATOM     15  C   UNL     1      -2.833  10.703  17.301  0.00  0.00    +0.000 A 
ATOM     16  C   UNL     1      -1.587  10.190  17.645  0.00  0.00    +0.000 A 
ATOM     17  C   UNL     1      -0.967  10.587  18.833  0.00  0.00    +0.000 A 
BRANCH  15  18
ATOM     18  O   UNL     1      -3.545  10.373  16.183  0.00  0.00    +0.000 OA
ATOM     19  C   UNL     1      -2.833  10.459  14.954  0.00  0.00    +0.000 C 
ENDBRANCH  15  18
ENDBRANCH   5  12
BRANCH   1  20
ATOM     20  S   UNL     1      -0.437   8.984  21.654  0.00  0.00    +0.000 S 
BRANCH  20  21
ATOM     21  C   UNL     1       1.345   8.632  21.685  0.00  0.00    +0.000 C 
BRANCH  21  25
ATOM     22  C   UNL     1       2.219   6.211  19.171  0.00  0.00    +0.000 A 
ATOM     23  N   UNL     1       2.196   7.323  18.418  0.00  0.00    +0.000 NA
ATOM     24  O   UNL     1       1.879   8.340  19.315  0.00  0.00    +0.000 OA
ATOM     25  C   UNL     1       1.772   7.764  20.547  0.00  0.00    +0.000 A 
ATOM     26  N   UNL     1       1.994   6.468  20.519  0.00  0.00    +0.000 NA
BRANCH  22  32
ATOM     27  C   UNL     1       3.465   4.403  17.861  0.00  0.00    +0.000 A 
ATOM     28  C   UNL     1       3.471   3.077  17.384  0.00  0.00    +0.000 A 
ATOM     29  C   UNL     1       2.443   2.186  17.694  0.00  0.00    +0.000 A 
ATOM     30  C   UNL     1       1.399   2.597  18.505  0.00  0.00    +0.000 A 
ATOM     31  C   UNL     1       1.379   3.903  18.996  0.00  0.00    +0.000 A 
ATOM     32  C   UNL     1       2.394   4.835  18.677  0.00  0.00    +0.000 A 
BRANCH  27  33
ATOM     33  O   UNL     1       4.460   5.300  17.542  0.00  0.00    +0.000 OA
BRANCH  33  35
ATOM     34  C   UNL     1       6.781   4.763  17.943  0.00  0.00    +0.000 C 
ATOM     35  C   UNL     1       5.645   4.771  16.938  0.00  0.00    +0.000 C 
ENDBRANCH  33  35
ENDBRANCH  27  33
ENDBRANCH  22  32
ENDBRANCH  21  25
ENDBRANCH  20  21
ENDBRANCH   1  20
TORSDOF 9
ENDMDL
