MODEL 1
REMARK VINA RESULT:      -8.8      0.000      0.000
REMARK  Name = 
REMARK  9 active torsions:
REMARK  status: ('A' for Active; 'I' for Inactive)
REMARK    1  A    between atoms: C_1  and  C_2
REMARK    2  A    between atoms: C_4  and  C_5
REMARK    3  A    between atoms: C_4  and  C_6
REMARK    4  A    between atoms: N_13  and  C_14
REMARK    5  A    between atoms: C_14  and  C_15
REMARK    6  A    between atoms: N_17  and  C_18
REMARK    7  A    between atoms: N_17  and  C_19
REMARK    8  A    between atoms: C_19  and  C_20
REMARK    9  A    between atoms: C_22  and  O_23
REMARK                            x       y       z     vdW  Elec       q    Type
REMARK                         _______ _______ _______ _____ _____    ______ ____
ROOT
ATOM      1  C   UNL     1       2.383   5.490  20.010  0.00  0.00    +0.000 C 
ENDROOT
BRANCH   1  14
ATOM      2  C   UNL     1       7.640   6.838  18.048  0.00  0.00    +0.000 C 
ATOM      3  C   UNL     1       7.664   5.401  17.529  0.00  0.00    +0.000 C 
ATOM      4  C   UNL     1       7.116   5.284  16.095  0.00  0.00    +0.000 C 
ATOM      5  C   UNL     1       5.584   5.147  15.943  0.00  0.00    +0.000 C 
ATOM      6  C   UNL     1       4.839   6.482  16.115  0.00  0.00    +0.000 C 
ATOM      7  C   UNL     1       5.281   4.686  14.497  0.00  0.00    +0.000 C 
ATOM      8  C   UNL     1       5.053   4.082  16.924  0.00  0.00    +0.000 C 
ATOM      9  C   UNL     1       5.518   4.243  18.390  0.00  0.00    +0.000 C 
ATOM     10  C   UNL     1       7.033   4.375  18.493  0.00  0.00    +0.000 C 
ATOM     11  N   UNL     1       4.984   3.120  19.151  0.00  0.00    +0.000 N 
ATOM     12  C   UNL     1       3.732   3.412  19.668  0.00  0.00    +0.000 C 
ATOM     13  O   UNL     1       3.026   2.602  20.244  0.00  0.00    +0.000 OA
ATOM     14  N   UNL     1       3.505   4.738  19.489  0.00  0.00    +0.000 N 
ATOM     15  C   UNL     1       4.703   5.299  19.164  0.00  0.00    +0.000 C 
ATOM     16  O   UNL     1       5.064   6.422  19.479  0.00  0.00    +0.000 OA
ATOM     17  H   UNL     1       5.330   2.169  19.139  0.00  0.00    +0.000 HD
ENDBRANCH   1  14
BRANCH   1  18
ATOM     18  C   UNL     1       2.140   6.717  19.113  0.00  0.00    +0.000 C 
ATOM     19  O   UNL     1       2.183   6.592  17.884  0.00  0.00    +0.000 OA
ATOM     20  N   UNL     1       1.798   7.933  19.688  0.00  0.00    +0.000 N 
ATOM     21  C   UNL     1       1.606   8.166  21.110  0.00  0.00    +0.000 C 
BRANCH  20  22
ATOM     22  C   UNL     1       1.722   9.122  18.823  0.00  0.00    +0.000 C 
BRANCH  22  23
ATOM     23  C   UNL     1       0.346   9.772  18.732  0.00  0.00    +0.000 A 
ATOM     24  N   UNL     1      -0.006  10.613  19.723  0.00  0.00    +0.000 NA
ATOM     25  C   UNL     1      -1.198  11.199  19.582  0.00  0.00    +0.000 A 
ATOM     26  C   UNL     1      -2.068  11.029  18.521  0.00  0.00    +0.000 A 
ATOM     27  C   UNL     1      -3.324  11.671  18.395  0.00  0.00    +0.000 A 
ATOM     28  C   UNL     1      -4.123  11.439  17.282  0.00  0.00    +0.000 A 
ATOM     29  C   UNL     1      -3.665  10.577  16.290  0.00  0.00    +0.000 A 
ATOM     30  C   UNL     1      -2.419   9.949  16.427  0.00  0.00    +0.000 A 
ATOM     31  C   UNL     1      -1.602  10.157  17.536  0.00  0.00    +0.000 A 
ATOM     32  N   UNL     1      -0.408   9.528  17.633  0.00  0.00    +0.000 NA
BRANCH  25  33
ATOM     33  O   UNL     1      -1.501  12.036  20.612  0.00  0.00    +0.000 OA
ATOM     34  H   UNL     1      -1.088  11.557  21.352  0.00  0.00    +0.000 HD
ENDBRANCH  25  33
ENDBRANCH  22  23
ENDBRANCH  20  22
ENDBRANCH   1  18
TORSDOF 5
ENDMDL
MODEL 2
REMARK VINA RESULT:      -8.6      1.355      1.869
REMARK  Name = 
REMARK  9 active torsions:
REMARK  status: ('A' for Active; 'I' for Inactive)
REMARK    1  A    between atoms: C_1  and  C_2
REMARK    2  A    between atoms: C_4  and  C_5
REMARK    3  A    between atoms: C_4  and  C_6
REMARK    4  A    between atoms: N_13  and  C_14
REMARK    5  A    between atoms: C_14  and  C_15
REMARK    6  A    between atoms: N_17  and  C_18
REMARK    7  A    between atoms: N_17  and  C_19
REMARK    8  A    between atoms: C_19  and  C_20
REMARK    9  A    between atoms: C_22  and  O_23
REMARK                            x       y       z     vdW  Elec       q    Type
REMARK                         _______ _______ _______ _____ _____    ______ ____
ROOT
ATOM      1  C   UNL     1       1.917   5.453  18.447  0.00  0.00    +0.000 C 
ENDROOT
BRANCH   1  14
ATOM      2  C   UNL     1       7.429   6.888  17.514  0.00  0.00    +0.000 C 
ATOM      3  C   UNL     1       7.641   5.388  17.317  0.00  0.00    +0.000 C 
ATOM      4  C   UNL     1       7.465   4.955  15.851  0.00  0.00    +0.000 C 
ATOM      5  C   UNL     1       6.023   4.653  15.381  0.00  0.00    +0.000 C 
ATOM      6  C   UNL     1       5.201   5.923  15.103  0.00  0.00    +0.000 C 
ATOM      7  C   UNL     1       6.103   3.905  14.029  0.00  0.00    +0.000 C 
ATOM      8  C   UNL     1       5.317   3.745  16.409  0.00  0.00    +0.000 C 
ATOM      9  C   UNL     1       5.404   4.219  17.878  0.00  0.00    +0.000 C 
ATOM     10  C   UNL     1       6.841   4.507  18.298  0.00  0.00    +0.000 C 
ATOM     11  N   UNL     1       4.752   3.214  18.709  0.00  0.00    +0.000 N 
ATOM     12  C   UNL     1       3.399   3.481  18.853  0.00  0.00    +0.000 C 
ATOM     13  O   UNL     1       2.611   2.731  19.403  0.00  0.00    +0.000 OA
ATOM     14  N   UNL     1       3.164   4.724  18.361  0.00  0.00    +0.000 N 
ATOM     15  C   UNL     1       4.380   5.321  18.214  0.00  0.00    +0.000 C 
ATOM     16  O   UNL     1       4.602   6.512  18.369  0.00  0.00    +0.000 OA
ATOM     17  H   UNL     1       5.131   2.313  18.970  0.00  0.00    +0.000 HD
ENDBRANCH   1  14
BRANCH   1  18
ATOM     18  C   UNL     1       1.880   6.232  19.775  0.00  0.00    +0.000 C 
ATOM     19  O   UNL     1       1.860   5.613  20.844  0.00  0.00    +0.000 OA
ATOM     20  N   UNL     1       1.949   7.619  19.761  0.00  0.00    +0.000 N 
ATOM     21  C   UNL     1       2.092   8.442  18.572  0.00  0.00    +0.000 C 
BRANCH  20  22
ATOM     22  C   UNL     1       1.758   8.343  21.029  0.00  0.00    +0.000 C 
BRANCH  22  23
ATOM     23  C   UNL     1       0.665   9.405  21.012  0.00  0.00    +0.000 A 
ATOM     24  N   UNL     1       0.514  10.153  22.122  0.00  0.00    +0.000 NA
ATOM     25  C   UNL     1      -0.421  11.104  22.050  0.00  0.00    +0.000 A 
ATOM     26  C   UNL     1      -1.212  11.386  20.951  0.00  0.00    +0.000 A 
ATOM     27  C   UNL     1      -2.191  12.408  20.902  0.00  0.00    +0.000 A 
ATOM     28  C   UNL     1      -2.930  12.618  19.744  0.00  0.00    +0.000 A 
ATOM     29  C   UNL     1      -2.685  11.817  18.633  0.00  0.00    +0.000 A 
ATOM     30  C   UNL     1      -1.712  10.810  18.695  0.00  0.00    +0.000 A 
ATOM     31  C   UNL     1      -0.963  10.573  19.846  0.00  0.00    +0.000 A 
ATOM     32  N   UNL     1      -0.036   9.588  19.867  0.00  0.00    +0.000 NA
BRANCH  25  33
ATOM     33  O   UNL     1      -0.531  11.826  23.199  0.00  0.00    +0.000 OA
ATOM     34  H   UNL     1      -1.398  11.516  23.517  0.00  0.00    +0.000 HD
ENDBRANCH  25  33
ENDBRANCH  22  23
ENDBRANCH  20  22
ENDBRANCH   1  18
TORSDOF 5
ENDMDL
MODEL 3
REMARK VINA RESULT:      -8.4      1.019      1.760
REMARK  Name = 
REMARK  9 active torsions:
REMARK  status: ('A' for Active; 'I' for Inactive)
REMARK    1  A    between atoms: C_1  and  C_2
REMARK    2  A    between atoms: C_4  and  C_5
REMARK    3  A    between atoms: C_4  and  C_6
REMARK    4  A    between atoms: N_13  and  C_14
REMARK    5  A    between atoms: C_14  and  C_15
REMARK    6  A    between atoms: N_17  and  C_18
REMARK    7  A    between atoms: N_17  and  C_19
REMARK    8  A    between atoms: C_19  and  C_20
REMARK    9  A    between atoms: C_22  and  O_23
REMARK                            x       y       z     vdW  Elec       q    Type
REMARK                         _______ _______ _______ _____ _____    ______ ____
ROOT
ATOM      1  C   UNL     1       2.336   5.479  19.897  0.00  0.00    +0.000 C 
ENDROOT
BRANCH   1  14
ATOM      2  C   UNL     1       7.612   6.876  18.022  0.00  0.00    +0.000 C 
ATOM      3  C   UNL     1       7.671   5.428  17.535  0.00  0.00    +0.000 C 
ATOM      4  C   UNL     1       7.158   5.270  16.093  0.00  0.00    +0.000 C 
ATOM      5  C   UNL     1       5.632   5.103  15.910  0.00  0.00    +0.000 C 
ATOM      6  C   UNL     1       4.861   6.429  16.036  0.00  0.00    +0.000 C 
ATOM      7  C   UNL     1       5.369   4.605  14.469  0.00  0.00    +0.000 C 
ATOM      8  C   UNL     1       5.097   4.050  16.903  0.00  0.00    +0.000 C 
ATOM      9  C   UNL     1       5.527   4.252  18.374  0.00  0.00    +0.000 C 
ATOM     10  C   UNL     1       7.037   4.413  18.508  0.00  0.00    +0.000 C 
ATOM     11  N   UNL     1       4.995   3.137  19.149  0.00  0.00    +0.000 N 
ATOM     12  C   UNL     1       3.727   3.418  19.632  0.00  0.00    +0.000 C 
ATOM     13  O   UNL     1       3.022   2.609  20.209  0.00  0.00    +0.000 OA
ATOM     14  N   UNL     1       3.481   4.736  19.418  0.00  0.00    +0.000 N 
ATOM     15  C   UNL     1       4.677   5.310  19.107  0.00  0.00    +0.000 C 
ATOM     16  O   UNL     1       5.012   6.446  19.405  0.00  0.00    +0.000 OA
ATOM     17  H   UNL     1       5.357   2.192  19.166  0.00  0.00    +0.000 HD
ENDBRANCH   1  14
BRANCH   1  18
ATOM     18  C   UNL     1       2.124   6.711  18.999  0.00  0.00    +0.000 C 
ATOM     19  O   UNL     1       2.165   6.584  17.770  0.00  0.00    +0.000 OA
ATOM     20  N   UNL     1       1.811   7.936  19.573  0.00  0.00    +0.000 N 
ATOM     21  C   UNL     1       1.624   8.175  20.994  0.00  0.00    +0.000 C 
BRANCH  20  22
ATOM     22  C   UNL     1       1.765   9.126  18.706  0.00  0.00    +0.000 C 
BRANCH  22  23
ATOM     23  C   UNL     1       0.418   9.836  18.650  0.00  0.00    +0.000 A 
ATOM     24  N   UNL     1      -0.382   9.559  17.602  0.00  0.00    +0.000 NA
ATOM     25  C   UNL     1      -1.573  10.165  17.615  0.00  0.00    +0.000 A 
ATOM     26  C   UNL     1      -2.044  11.016  18.598  0.00  0.00    +0.000 A 
ATOM     27  C   UNL     1      -3.316  11.637  18.587  0.00  0.00    +0.000 A 
ATOM     28  C   UNL     1      -3.700  12.471  19.630  0.00  0.00    +0.000 A 
ATOM     29  C   UNL     1      -2.819  12.676  20.688  0.00  0.00    +0.000 A 
ATOM     30  C   UNL     1      -1.563  12.054  20.687  0.00  0.00    +0.000 A 
ATOM     31  C   UNL     1      -1.150  11.220  19.650  0.00  0.00    +0.000 A 
ATOM     32  N   UNL     1       0.072  10.641  19.684  0.00  0.00    +0.000 NA
BRANCH  25  33
ATOM     33  O   UNL     1      -2.338   9.849  16.534  0.00  0.00    +0.000 OA
ATOM     34  H   UNL     1      -2.494  10.738  16.166  0.00  0.00    +0.000 HD
ENDBRANCH  25  33
ENDBRANCH  22  23
ENDBRANCH  20  22
ENDBRANCH   1  18
TORSDOF 5
ENDMDL
MODEL 4
REMARK VINA RESULT:      -8.3      1.828      2.637
REMARK  Name = 
REMARK  9 active torsions:
REMARK  status: ('A' for Active; 'I' for Inactive)
REMARK    1  A    between atoms: C_1  and  C_2
REMARK    2  A    between atoms: C_4  and  C_5
REMARK    3  A    between atoms: C_4  and  C_6
REMARK    4  A    between atoms: N_13  and  C_14
REMARK    5  A    between atoms: C_14  and  C_15
REMARK    6  A    between atoms: N_17  and  C_18
REMARK    7  A    between atoms: N_17  and  C_19
REMARK    8  A    between atoms: C_19  and  C_20
REMARK    9  A    between atoms: C_22  and  O_23
REMARK                            x       y       z     vdW  Elec       q    Type
REMARK                         _______ _______ _______ _____ _____    ______ ____
ROOT
ATOM      1  C   UNL     1       1.914   5.358  18.415  0.00  0.00    +0.000 C 
ENDROOT
BRANCH   1  14
ATOM      2  C   UNL     1       7.387   6.913  17.452  0.00  0.00    +0.000 C 
ATOM      3  C   UNL     1       7.632   5.418  17.253  0.00  0.00    +0.000 C 
ATOM      4  C   UNL     1       7.458   4.982  15.788  0.00  0.00    +0.000 C 
ATOM      5  C   UNL     1       6.020   4.648  15.327  0.00  0.00    +0.000 C 
ATOM      6  C   UNL     1       5.168   5.900  15.053  0.00  0.00    +0.000 C 
ATOM      7  C   UNL     1       6.109   3.902  13.974  0.00  0.00    +0.000 C 
ATOM      8  C   UNL     1       5.340   3.725  16.358  0.00  0.00    +0.000 C 
ATOM      9  C   UNL     1       5.424   4.200  17.827  0.00  0.00    +0.000 C 
ATOM     10  C   UNL     1       6.857   4.519  18.239  0.00  0.00    +0.000 C 
ATOM     11  N   UNL     1       4.798   3.181  18.661  0.00  0.00    +0.000 N 
ATOM     12  C   UNL     1       3.441   3.418  18.813  0.00  0.00    +0.000 C 
ATOM     13  O   UNL     1       2.673   2.651  19.367  0.00  0.00    +0.000 OA
ATOM     14  N   UNL     1       3.176   4.656  18.322  0.00  0.00    +0.000 N 
ATOM     15  C   UNL     1       4.377   5.280  18.168  0.00  0.00    +0.000 C 
ATOM     16  O   UNL     1       4.575   6.475  18.322  0.00  0.00    +0.000 OA
ATOM     17  H   UNL     1       5.199   2.289  18.919  0.00  0.00    +0.000 HD
ENDBRANCH   1  14
BRANCH   1  18
ATOM     18  C   UNL     1       1.884   6.168  19.724  0.00  0.00    +0.000 C 
ATOM     19  O   UNL     1       1.881   5.574  20.808  0.00  0.00    +0.000 OA
ATOM     20  N   UNL     1       1.940   7.554  19.676  0.00  0.00    +0.000 N 
ATOM     21  C   UNL     1       2.062   8.350  18.466  0.00  0.00    +0.000 C 
BRANCH  20  22
ATOM     22  C   UNL     1       1.755   8.307  20.928  0.00  0.00    +0.000 C 
BRANCH  22  23
ATOM     23  C   UNL     1       0.767   9.465  20.851  0.00  0.00    +0.000 A 
ATOM     24  N   UNL     1       0.524   9.988  19.634  0.00  0.00    +0.000 NA
ATOM     25  C   UNL     1      -0.384  10.968  19.602  0.00  0.00    +0.000 A 
ATOM     26  C   UNL     1      -1.086  11.463  20.686  0.00  0.00    +0.000 A 
ATOM     27  C   UNL     1      -2.049  12.498  20.619  0.00  0.00    +0.000 A 
ATOM     28  C   UNL     1      -2.708  12.920  21.767  0.00  0.00    +0.000 A 
ATOM     29  C   UNL     1      -2.416  12.301  22.978  0.00  0.00    +0.000 A 
ATOM     30  C   UNL     1      -1.461  11.276  23.030  0.00  0.00    +0.000 A 
ATOM     31  C   UNL     1      -0.779  10.840  21.896  0.00  0.00    +0.000 A 
ATOM     32  N   UNL     1       0.139   9.851  21.988  0.00  0.00    +0.000 NA
BRANCH  25  33
ATOM     33  O   UNL     1      -0.588  11.459  18.349  0.00  0.00    +0.000 OA
ATOM     34  H   UNL     1      -0.677  12.408  18.546  0.00  0.00    +0.000 HD
ENDBRANCH  25  33
ENDBRANCH  22  23
ENDBRANCH  20  22
ENDBRANCH   1  18
TORSDOF 5
ENDMDL
MODEL 5
REMARK VINA RESULT:      -8.2      2.469      4.180
REMARK  Name = 
REMARK  9 active torsions:
REMARK  status: ('A' for Active; 'I' for Inactive)
REMARK    1  A    between atoms: C_1  and  C_2
REMARK    2  A    between atoms: C_4  and  C_5
REMARK    3  A    between atoms: C_4  and  C_6
REMARK    4  A    between atoms: N_13  and  C_14
REMARK    5  A    between atoms: C_14  and  C_15
REMARK    6  A    between atoms: N_17  and  C_18
REMARK    7  A    between atoms: N_17  and  C_19
REMARK    8  A    between atoms: C_19  and  C_20
REMARK    9  A    between atoms: C_22  and  O_23
REMARK                            x       y       z     vdW  Elec       q    Type
REMARK                         _______ _______ _______ _____ _____    ______ ____
ROOT
ATOM      1  C   UNL     1       1.488   8.418  17.474  0.00  0.00    +0.000 C 
ENDROOT
BRANCH   1  14
ATOM      2  C   UNL     1       5.712   4.486  17.487  0.00  0.00    +0.000 C 
ATOM      3  C   UNL     1       5.105   4.041  18.817  0.00  0.00    +0.000 C 
ATOM      4  C   UNL     1       4.036   2.948  18.640  0.00  0.00    +0.000 C 
ATOM      5  C   UNL     1       2.599   3.424  18.324  0.00  0.00    +0.000 C 
ATOM      6  C   UNL     1       2.412   3.841  16.855  0.00  0.00    +0.000 C 
ATOM      7  C   UNL     1       1.637   2.232  18.543  0.00  0.00    +0.000 C 
ATOM      8  C   UNL     1       2.202   4.564  19.283  0.00  0.00    +0.000 C 
ATOM      9  C   UNL     1       3.225   5.718  19.398  0.00  0.00    +0.000 C 
ATOM     10  C   UNL     1       4.626   5.205  19.708  0.00  0.00    +0.000 C 
ATOM     11  N   UNL     1       2.723   6.660  20.390  0.00  0.00    +0.000 N 
ATOM     12  C   UNL     1       1.917   7.625  19.806  0.00  0.00    +0.000 C 
ATOM     13  O   UNL     1       1.285   8.457  20.434  0.00  0.00    +0.000 OA
ATOM     14  N   UNL     1       2.042   7.514  18.459  0.00  0.00    +0.000 N 
ATOM     15  C   UNL     1       3.127   6.723  18.232  0.00  0.00    +0.000 C 
ATOM     16  O   UNL     1       3.897   6.837  17.291  0.00  0.00    +0.000 OA
ATOM     17  H   UNL     1       2.738   6.538  21.394  0.00  0.00    +0.000 HD
ENDBRANCH   1  14
BRANCH   1  18
ATOM     18  C   UNL     1       1.456   9.842  18.059  0.00  0.00    +0.000 C 
ATOM     19  O   UNL     1       2.519  10.427  18.296  0.00  0.00    +0.000 OA
ATOM     20  N   UNL     1       0.239  10.484  18.243  0.00  0.00    +0.000 N 
ATOM     21  C   UNL     1      -1.061   9.936  17.893  0.00  0.00    +0.000 C 
BRANCH  20  22
ATOM     22  C   UNL     1       0.227  11.779  18.944  0.00  0.00    +0.000 C 
BRANCH  22  23
ATOM     23  C   UNL     1      -0.647  11.834  20.191  0.00  0.00    +0.000 A 
ATOM     24  N   UNL     1      -0.183  11.222  21.298  0.00  0.00    +0.000 NA
ATOM     25  C   UNL     1      -0.955  11.335  22.382  0.00  0.00    +0.000 A 
ATOM     26  C   UNL     1      -2.151  12.025  22.462  0.00  0.00    +0.000 A 
ATOM     27  C   UNL     1      -2.944  12.134  23.629  0.00  0.00    +0.000 A 
ATOM     28  C   UNL     1      -4.129  12.860  23.609  0.00  0.00    +0.000 A 
ATOM     29  C   UNL     1      -4.515  13.487  22.429  0.00  0.00    +0.000 A 
ATOM     30  C   UNL     1      -3.719  13.372  21.280  0.00  0.00    +0.000 A 
ATOM     31  C   UNL     1      -2.532  12.643  21.271  0.00  0.00    +0.000 A 
ATOM     32  N   UNL     1      -1.795  12.553  20.140  0.00  0.00    +0.000 NA
BRANCH  25  33
ATOM     33  O   UNL     1      -0.438  10.697  23.468  0.00  0.00    +0.000 OA
ATOM     34  H   UNL     1      -0.395  11.436  24.100  0.00  0.00    +0.000 HD
ENDBRANCH  25  33
ENDBRANCH  22  23
ENDBRANCH  20  22
ENDBRANCH   1  18
TORSDOF 5
ENDMDL
MODEL 6
REMARK VINA RESULT:      -8.1      1.793      2.283
REMARK  Name = 
REMARK  9 active torsions:
REMARK  status: ('A' for Active; 'I' for Inactive)
REMARK    1  A    between atoms: C_1  and  C_2
REMARK    2  A    between atoms: C_4  and  C_5
REMARK    3  A    between atoms: C_4  and  C_6
REMARK    4  A    between atoms: N_13  and  C_14
REMARK    5  A    between atoms: C_14  and  C_15
REMARK    6  A    between atoms: N_17  and  C_18
REMARK    7  A    between atoms: N_17  and  C_19
REMARK    8  A    between atoms: C_19  and  C_20
REMARK    9  A    between atoms: C_22  and  O_23
REMARK                            x       y       z     vdW  Elec       q    Type
REMARK                         _______ _______ _______ _____ _____    ______ ____
ROOT
ATOM      1  C   UNL     1       2.424   5.233  19.778  0.00  0.00    +0.000 C 
ENDROOT
BRANCH   1  14
ATOM      2  C   UNL     1       7.553   7.034  17.840  0.00  0.00    +0.000 C 
ATOM      3  C   UNL     1       7.758   5.574  17.436  0.00  0.00    +0.000 C 
ATOM      4  C   UNL     1       7.275   5.285  16.004  0.00  0.00    +0.000 C 
ATOM      5  C   UNL     1       5.773   4.959  15.828  0.00  0.00    +0.000 C 
ATOM      6  C   UNL     1       4.875   6.207  15.876  0.00  0.00    +0.000 C 
ATOM      7  C   UNL     1       5.573   4.357  14.416  0.00  0.00    +0.000 C 
ATOM      8  C   UNL     1       5.337   3.916  16.877  0.00  0.00    +0.000 C 
ATOM      9  C   UNL     1       5.732   4.242  18.336  0.00  0.00    +0.000 C 
ATOM     10  C   UNL     1       7.218   4.558  18.464  0.00  0.00    +0.000 C 
ATOM     11  N   UNL     1       5.307   3.126  19.172  0.00  0.00    +0.000 N 
ATOM     12  C   UNL     1       4.013   3.307  19.634  0.00  0.00    +0.000 C 
ATOM     13  O   UNL     1       3.386   2.466  20.256  0.00  0.00    +0.000 OA
ATOM     14  N   UNL     1       3.641   4.580  19.345  0.00  0.00    +0.000 N 
ATOM     15  C   UNL     1       4.777   5.251  19.005  0.00  0.00    +0.000 C 
ATOM     16  O   UNL     1       4.996   6.430  19.238  0.00  0.00    +0.000 OA
ATOM     17  H   UNL     1       5.759   2.223  19.243  0.00  0.00    +0.000 HD
ENDBRANCH   1  14
BRANCH   1  18
ATOM     18  C   UNL     1       1.951   6.198  18.676  0.00  0.00    +0.000 C 
ATOM     19  O   UNL     1       1.666   5.754  17.558  0.00  0.00    +0.000 OA
ATOM     20  N   UNL     1       1.775   7.544  18.968  0.00  0.00    +0.000 N 
ATOM     21  C   UNL     1       1.968   8.152  20.274  0.00  0.00    +0.000 C 
BRANCH  20  22
ATOM     22  C   UNL     1       1.471   8.468  17.863  0.00  0.00    +0.000 C 
BRANCH  22  23
ATOM     23  C   UNL     1       1.264   9.922  18.271  0.00  0.00    +0.000 A 
ATOM     24  N   UNL     1       2.250  10.791  17.979  0.00  0.00    +0.000 NA
ATOM     25  C   UNL     1       2.010  12.063  18.308  0.00  0.00    +0.000 A 
ATOM     26  C   UNL     1       0.855  12.548  18.894  0.00  0.00    +0.000 A 
ATOM     27  C   UNL     1       0.626  13.906  19.224  0.00  0.00    +0.000 A 
ATOM     28  C   UNL     1      -0.576  14.295  19.804  0.00  0.00    +0.000 A 
ATOM     29  C   UNL     1      -1.552  13.332  20.042  0.00  0.00    +0.000 A 
ATOM     30  C   UNL     1      -1.313  11.992  19.708  0.00  0.00    +0.000 A 
ATOM     31  C   UNL     1      -0.114  11.574  19.134  0.00  0.00    +0.000 A 
ATOM     32  N   UNL     1       0.080  10.270  18.831  0.00  0.00    +0.000 NA
BRANCH  25  33
ATOM     33  O   UNL     1       3.040  12.895  17.992  0.00  0.00    +0.000 OA
ATOM     34  H   UNL     1       3.696  12.247  17.677  0.00  0.00    +0.000 HD
ENDBRANCH  25  33
ENDBRANCH  22  23
ENDBRANCH  20  22
ENDBRANCH   1  18
TORSDOF 5
ENDMDL
MODEL 7
REMARK VINA RESULT:      -8.0      6.192     11.418
REMARK  Name = 
REMARK  9 active torsions:
REMARK  status: ('A' for Active; 'I' for Inactive)
REMARK    1  A    between atoms: C_1  and  C_2
REMARK    2  A    between atoms: C_4  and  C_5
REMARK    3  A    between atoms: C_4  and  C_6
REMARK    4  A    between atoms: N_13  and  C_14
REMARK    5  A    between atoms: C_14  and  C_15
REMARK    6  A    between atoms: N_17  and  C_18
REMARK    7  A    between atoms: N_17  and  C_19
REMARK    8  A    between atoms: C_19  and  C_20
REMARK    9  A    between atoms: C_22  and  O_23
REMARK                            x       y       z     vdW  Elec       q    Type
REMARK                         _______ _______ _______ _____ _____    ______ ____
ROOT
ATOM      1  C   UNL     1      -2.239  13.754  24.134  0.00  0.00    +0.000 C 
ENDROOT
BRANCH   1  14
ATOM      2  C   UNL     1      -7.541  11.687  23.176  0.00  0.00    +0.000 C 
ATOM      3  C   UNL     1      -7.914  13.147  22.922  0.00  0.00    +0.000 C 
ATOM      4  C   UNL     1      -7.761  13.547  21.444  0.00  0.00    +0.000 C 
ATOM      5  C   UNL     1      -6.353  13.991  20.985  0.00  0.00    +0.000 C 
ATOM      6  C   UNL     1      -5.390  12.811  20.763  0.00  0.00    +0.000 C 
ATOM      7  C   UNL     1      -6.490  14.680  19.606  0.00  0.00    +0.000 C 
ATOM      8  C   UNL     1      -5.770  15.006  21.990  0.00  0.00    +0.000 C 
ATOM      9  C   UNL     1      -5.830  14.575  23.474  0.00  0.00    +0.000 C 
ATOM     10  C   UNL     1      -7.234  14.144  23.883  0.00  0.00    +0.000 C 
ATOM     11  N   UNL     1      -5.307  15.673  24.277  0.00  0.00    +0.000 N 
ATOM     12  C   UNL     1      -3.936  15.563  24.450  0.00  0.00    +0.000 C 
ATOM     13  O   UNL     1      -3.245  16.413  24.984  0.00  0.00    +0.000 OA
ATOM     14  N   UNL     1      -3.557  14.338  24.005  0.00  0.00    +0.000 N 
ATOM     15  C   UNL     1      -4.696  13.605  23.862  0.00  0.00    +0.000 C 
ATOM     16  O   UNL     1      -4.789  12.402  24.056  0.00  0.00    +0.000 OA
ATOM     17  H   UNL     1      -5.788  16.535  24.500  0.00  0.00    +0.000 HD
ENDBRANCH   1  14
BRANCH   1  18
ATOM     18  C   UNL     1      -1.437  14.033  22.849  0.00  0.00    +0.000 C 
ATOM     19  O   UNL     1      -1.303  15.197  22.456  0.00  0.00    +0.000 OA
ATOM     20  N   UNL     1      -0.810  12.986  22.188  0.00  0.00    +0.000 N 
ATOM     21  C   UNL     1      -0.805  11.600  22.624  0.00  0.00    +0.000 C 
BRANCH  20  22
ATOM     22  C   UNL     1      -0.181  13.255  20.884  0.00  0.00    +0.000 C 
BRANCH  22  23
ATOM     23  C   UNL     1      -0.679  12.391  19.732  0.00  0.00    +0.000 A 
ATOM     24  N   UNL     1       0.193  11.515  19.196  0.00  0.00    +0.000 NA
ATOM     25  C   UNL     1      -0.296  10.743  18.222  0.00  0.00    +0.000 A 
ATOM     26  C   UNL     1      -1.594  10.757  17.745  0.00  0.00    +0.000 A 
ATOM     27  C   UNL     1      -2.086   9.919  16.716  0.00  0.00    +0.000 A 
ATOM     28  C   UNL     1      -3.413  10.005  16.313  0.00  0.00    +0.000 A 
ATOM     29  C   UNL     1      -4.251  10.918  16.945  0.00  0.00    +0.000 A 
ATOM     30  C   UNL     1      -3.752  11.741  17.964  0.00  0.00    +0.000 A 
ATOM     31  C   UNL     1      -2.424  11.681  18.381  0.00  0.00    +0.000 A 
ATOM     32  N   UNL     1      -1.979  12.496  19.365  0.00  0.00    +0.000 NA
BRANCH  25  33
ATOM     33  O   UNL     1       0.628   9.880  17.718  0.00  0.00    +0.000 OA
ATOM     34  H   UNL     1       0.993  10.420  16.994  0.00  0.00    +0.000 HD
ENDBRANCH  25  33
ENDBRANCH  22  23
ENDBRANCH  20  22
ENDBRANCH   1  18
TORSDOF 5
ENDMDL
MODEL 8
REMARK VINA RESULT:      -8.0      1.723      2.517
REMARK  Name = 
REMARK  9 active torsions:
REMARK  status: ('A' for Active; 'I' for Inactive)
REMARK    1  A    between atoms: C_1  and  C_2
REMARK    2  A    between atoms: C_4  and  C_5
REMARK    3  A    between atoms: C_4  and  C_6
REMARK    4  A    between atoms: N_13  and  C_14
REMARK    5  A    between atoms: C_14  and  C_15
REMARK    6  A    between atoms: N_17  and  C_18
REMARK    7  A    between atoms: N_17  and  C_19
REMARK    8  A    between atoms: C_19  and  C_20
REMARK    9  A    between atoms: C_22  and  O_23
REMARK                            x       y       z     vdW  Elec       q    Type
REMARK                         _______ _______ _______ _____ _____    ______ ____
ROOT
ATOM      1  C   UNL     1       2.432   5.364  19.805  0.00  0.00    +0.000 C 
ENDROOT
BRANCH   1  14
ATOM      2  C   UNL     1       7.615   6.973  17.841  0.00  0.00    +0.000 C 
ATOM      3  C   UNL     1       7.767   5.504  17.445  0.00  0.00    +0.000 C 
ATOM      4  C   UNL     1       7.269   5.225  16.016  0.00  0.00    +0.000 C 
ATOM      5  C   UNL     1       5.757   4.951  15.846  0.00  0.00    +0.000 C 
ATOM      6  C   UNL     1       4.903   6.230  15.890  0.00  0.00    +0.000 C 
ATOM      7  C   UNL     1       5.531   4.348  14.438  0.00  0.00    +0.000 C 
ATOM      8  C   UNL     1       5.287   3.930  16.902  0.00  0.00    +0.000 C 
ATOM      9  C   UNL     1       5.698   4.249  18.358  0.00  0.00    +0.000 C 
ATOM     10  C   UNL     1       7.195   4.514  18.480  0.00  0.00    +0.000 C 
ATOM     11  N   UNL     1       5.236   3.154  19.201  0.00  0.00    +0.000 N 
ATOM     12  C   UNL     1       3.951   3.383  19.667  0.00  0.00    +0.000 C 
ATOM     13  O   UNL     1       3.298   2.568  20.294  0.00  0.00    +0.000 OA
ATOM     14  N   UNL     1       3.623   4.667  19.371  0.00  0.00    +0.000 N 
ATOM     15  C   UNL     1       4.782   5.295  19.024  0.00  0.00    +0.000 C 
ATOM     16  O   UNL     1       5.043   6.467  19.250  0.00  0.00    +0.000 OA
ATOM     17  H   UNL     1       5.657   2.236  19.277  0.00  0.00    +0.000 HD
ENDBRANCH   1  14
BRANCH   1  18
ATOM     18  C   UNL     1       1.981   6.328  18.692  0.00  0.00    +0.000 C 
ATOM     19  O   UNL     1       1.750   5.887  17.560  0.00  0.00    +0.000 OA
ATOM     20  N   UNL     1       1.762   7.667  18.988  0.00  0.00    +0.000 N 
ATOM     21  C   UNL     1       1.889   8.268  20.305  0.00  0.00    +0.000 C 
BRANCH  20  22
ATOM     22  C   UNL     1       1.481   8.594  17.879  0.00  0.00    +0.000 C 
BRANCH  22  23
ATOM     23  C   UNL     1       1.089  10.006  18.296  0.00  0.00    +0.000 A 
ATOM     24  N   UNL     1      -0.155  10.183  18.782  0.00  0.00    +0.000 NA
ATOM     25  C   UNL     1      -0.442  11.426  19.181  0.00  0.00    +0.000 A 
ATOM     26  C   UNL     1       0.416  12.509  19.153  0.00  0.00    +0.000 A 
ATOM     27  C   UNL     1       0.084  13.814  19.592  0.00  0.00    +0.000 A 
ATOM     28  C   UNL     1       1.023  14.836  19.530  0.00  0.00    +0.000 A 
ATOM     29  C   UNL     1       2.296  14.555  19.043  0.00  0.00    +0.000 A 
ATOM     30  C   UNL     1       2.611  13.258  18.613  0.00  0.00    +0.000 A 
ATOM     31  C   UNL     1       1.686  12.217  18.656  0.00  0.00    +0.000 A 
ATOM     32  N   UNL     1       2.028  10.980  18.227  0.00  0.00    +0.000 NA
BRANCH  25  33
ATOM     33  O   UNL     1      -1.711  11.546  19.660  0.00  0.00    +0.000 OA
ATOM     34  H   UNL     1      -2.010  12.330  19.165  0.00  0.00    +0.000 HD
ENDBRANCH  25  33
ENDBRANCH  22  23
ENDBRANCH  20  22
ENDBRANCH   1  18
TORSDOF 5
ENDMDL
MODEL 9
REMARK VINA RESULT:      -7.9      6.524      8.404
REMARK  Name = 
REMARK  9 active torsions:
REMARK  status: ('A' for Active; 'I' for Inactive)
REMARK    1  A    between atoms: C_1  and  C_2
REMARK    2  A    between atoms: C_4  and  C_5
REMARK    3  A    between atoms: C_4  and  C_6
REMARK    4  A    between atoms: N_13  and  C_14
REMARK    5  A    between atoms: C_14  and  C_15
REMARK    6  A    between atoms: N_17  and  C_18
REMARK    7  A    between atoms: N_17  and  C_19
REMARK    8  A    between atoms: C_19  and  C_20
REMARK    9  A    between atoms: C_22  and  O_23
REMARK                            x       y       z     vdW  Elec       q    Type
REMARK                         _______ _______ _______ _____ _____    ______ ____
ROOT
ATOM      1  C   UNL     1       7.069  16.110  18.884  0.00  0.00    +0.000 C 
ENDROOT
BRANCH   1  14
ATOM      2  C   UNL     1      12.187  13.609  17.958  0.00  0.00    +0.000 C 
ATOM      3  C   UNL     1      11.879  12.825  19.233  0.00  0.00    +0.000 C 
ATOM      4  C   UNL     1      11.140  11.506  18.949  0.00  0.00    +0.000 C 
ATOM      5  C   UNL     1       9.602  11.584  18.814  0.00  0.00    +0.000 C 
ATOM      6  C   UNL     1       9.144  12.131  17.451  0.00  0.00    +0.000 C 
ATOM      7  C   UNL     1       9.036  10.146  18.896  0.00  0.00    +0.000 C 
ATOM      8  C   UNL     1       9.015  12.414  19.974  0.00  0.00    +0.000 C 
ATOM      9  C   UNL     1       9.686  13.787  20.210  0.00  0.00    +0.000 C 
ATOM     10  C   UNL     1      11.201  13.663  20.336  0.00  0.00    +0.000 C 
ATOM     11  N   UNL     1       9.058  14.394  21.377  0.00  0.00    +0.000 N 
ATOM     12  C   UNL     1       7.958  15.156  21.018  0.00  0.00    +0.000 C 
ATOM     13  O   UNL     1       7.196  15.672  21.816  0.00  0.00    +0.000 OA
ATOM     14  N   UNL     1       7.957  15.276  19.665  0.00  0.00    +0.000 N 
ATOM     15  C   UNL     1       9.186  14.874  19.237  0.00  0.00    +0.000 C 
ATOM     16  O   UNL     1       9.785  15.337  18.279  0.00  0.00    +0.000 OA
ATOM     17  H   UNL     1       9.219  14.142  22.344  0.00  0.00    +0.000 HD
ENDBRANCH   1  14
BRANCH   1  18
ATOM     18  C   UNL     1       5.921  15.244  18.333  0.00  0.00    +0.000 C 
ATOM     19  O   UNL     1       6.177  14.151  17.816  0.00  0.00    +0.000 OA
ATOM     20  N   UNL     1       4.607  15.662  18.492  0.00  0.00    +0.000 N 
ATOM     21  C   UNL     1       4.186  16.868  19.185  0.00  0.00    +0.000 C 
BRANCH  20  22
ATOM     22  C   UNL     1       3.541  14.895  17.825  0.00  0.00    +0.000 C 
BRANCH  22  23
ATOM     23  C   UNL     1       2.816  13.887  18.708  0.00  0.00    +0.000 A 
ATOM     24  N   UNL     1       2.462  14.290  19.943  0.00  0.00    +0.000 NA
ATOM     25  C   UNL     1       1.786  13.394  20.667  0.00  0.00    +0.000 A 
ATOM     26  C   UNL     1       1.417  12.127  20.256  0.00  0.00    +0.000 A 
ATOM     27  C   UNL     1       0.692  11.201  21.044  0.00  0.00    +0.000 A 
ATOM     28  C   UNL     1       0.360   9.951  20.535  0.00  0.00    +0.000 A 
ATOM     29  C   UNL     1       0.740   9.631  19.235  0.00  0.00    +0.000 A 
ATOM     30  C   UNL     1       1.456  10.558  18.464  0.00  0.00    +0.000 A 
ATOM     31  C   UNL     1       1.809  11.814  18.954  0.00  0.00    +0.000 A 
ATOM     32  N   UNL     1       2.504  12.678  18.180  0.00  0.00    +0.000 NA
BRANCH  25  33
ATOM     33  O   UNL     1       1.457  13.855  21.905  0.00  0.00    +0.000 OA
ATOM     34  H   UNL     1       1.502  14.816  21.750  0.00  0.00    +0.000 HD
ENDBRANCH  25  33
ENDBRANCH  22  23
ENDBRANCH  20  22
ENDBRANCH   1  18
TORSDOF 5
ENDMDL
