MODEL 1
REMARK VINA RESULT:      -8.0      0.000      0.000
REMARK  Name = 
REMARK  14 active torsions:
REMARK  status: ('A' for Active; 'I' for Inactive)
REMARK    1  A    between atoms: C_1  and  O_2
REMARK    2  A    between atoms: O_2  and  C_3
REMARK    3  A    between atoms: C_5  and  N_6
REMARK    4  A    between atoms: N_6  and  C_7
REMARK    5  A    between atoms: C_7  and  C_8
REMARK    6  A    between atoms: C_7  and  C_9
REMARK    7  A    between atoms: C_9  and  C_10
REMARK    8  A    between atoms: C_10  and  C_11
REMARK    9  A    between atoms: C_11  and  N_12
REMARK   10  A    between atoms: C_15  and  C_16
REMARK   11  A    between atoms: C_16  and  C_17
REMARK   12  A    between atoms: C_16  and  C_18
REMARK   13  A    between atoms: C_20  and  C_21
REMARK   14  A    between atoms: C_20  and  C_22
REMARK                            x       y       z     vdW  Elec       q    Type
REMARK                         _______ _______ _______ _____ _____    ______ ____
ROOT
ATOM      1  C   UNL     1       7.465   7.438  17.802  0.00  0.00    +0.000 C 
ATOM      2  C   UNL     1       8.285   6.845  18.942  0.00  0.00    +0.000 C 
ENDROOT
BRANCH   1   3
ATOM      3  N   UNL     1       7.573   6.623  16.603  0.00  0.00    +0.000 N 
ATOM      4  H   UNL     1       8.491   6.508  16.169  0.00  0.00    +0.000 HD
BRANCH   3   7
ATOM      5  C   UNL     1       4.668   4.298  16.610  0.00  0.00    +0.000 A 
ATOM      6  C   UNL     1       5.602   5.243  17.022  0.00  0.00    +0.000 A 
ATOM      7  C   UNL     1       6.669   5.637  16.196  0.00  0.00    +0.000 A 
ATOM      8  C   UNL     1       6.773   5.105  14.892  0.00  0.00    +0.000 A 
ATOM      9  N   UNL     1       7.770   5.509  14.062  0.00  0.00    +0.000 NA
ATOM     10  C   UNL     1       7.832   4.979  12.819  0.00  0.00    +0.000 A 
ATOM     11  C   UNL     1       6.949   4.033  12.341  0.00  0.00    +0.000 A 
ATOM     12  C   UNL     1       5.931   3.609  13.186  0.00  0.00    +0.000 A 
ATOM     13  C   UNL     1       5.823   4.145  14.477  0.00  0.00    +0.000 A 
ATOM     14  C   UNL     1       4.787   3.745  15.339  0.00  0.00    +0.000 A 
BRANCH   5  16
ATOM     15  C   UNL     1       3.720   2.534  17.882  0.00  0.00    +0.000 C 
ATOM     16  O   UNL     1       3.615   3.857  17.361  0.00  0.00    +0.000 OA
ENDBRANCH   5  16
ENDBRANCH   3   7
ENDBRANCH   1   3
BRANCH   1  17
ATOM     17  C   UNL     1       7.904   8.874  17.465  0.00  0.00    +0.000 C 
BRANCH  17  18
ATOM     18  C   UNL     1       8.700   9.546  18.596  0.00  0.00    +0.000 C 
BRANCH  18  19
ATOM     19  C   UNL     1       9.592  10.678  18.100  0.00  0.00    +0.000 C 
BRANCH  19  20
ATOM     20  N   UNL     1       9.427  11.924  18.821  0.00  0.00    +0.000 N 
ATOM     21  C   UNL     1       8.681  12.964  18.311  0.00  0.00    +0.000 C 
ATOM     22  O   UNL     1       7.900  12.923  17.376  0.00  0.00    +0.000 OA
ATOM     23  C   UNL     1       9.170  14.196  19.042  0.00  0.00    +0.000 C 
ATOM     24  N   UNL     1       9.723  13.662  20.315  0.00  0.00    +0.000 NA
ATOM     25  C   UNL     1       9.941  12.206  20.140  0.00  0.00    +0.000 C 
ATOM     26  C   UNL     1       9.146  11.452  21.219  0.00  0.00    +0.000 C 
ATOM     27  C   UNL     1      11.435  11.921  20.311  0.00  0.00    +0.000 C 
ATOM     28  H   UNL     1       9.010  13.790  21.032  0.00  0.00    +0.000 HD
BRANCH  23  29
ATOM     29  C   UNL     1      10.282  14.872  18.200  0.00  0.00    +0.000 C 
ATOM     30  C   UNL     1       9.743  16.062  17.395  0.00  0.00    +0.000 C 
ATOM     31  C   UNL     1      11.458  15.344  19.059  0.00  0.00    +0.000 C 
ENDBRANCH  23  29
ENDBRANCH  19  20
ENDBRANCH  18  19
ENDBRANCH  17  18
ENDBRANCH   1  17
TORSDOF 8
ENDMDL
MODEL 2
REMARK VINA RESULT:      -7.7      6.327     10.144
REMARK  Name = 
REMARK  14 active torsions:
REMARK  status: ('A' for Active; 'I' for Inactive)
REMARK    1  A    between atoms: C_1  and  O_2
REMARK    2  A    between atoms: O_2  and  C_3
REMARK    3  A    between atoms: C_5  and  N_6
REMARK    4  A    between atoms: N_6  and  C_7
REMARK    5  A    between atoms: C_7  and  C_8
REMARK    6  A    between atoms: C_7  and  C_9
REMARK    7  A    between atoms: C_9  and  C_10
REMARK    8  A    between atoms: C_10  and  C_11
REMARK    9  A    between atoms: C_11  and  N_12
REMARK   10  A    between atoms: C_15  and  C_16
REMARK   11  A    between atoms: C_16  and  C_17
REMARK   12  A    between atoms: C_16  and  C_18
REMARK   13  A    between atoms: C_20  and  C_21
REMARK   14  A    between atoms: C_20  and  C_22
REMARK                            x       y       z     vdW  Elec       q    Type
REMARK                         _______ _______ _______ _____ _____    ______ ____
ROOT
ATOM      1  C   UNL     1       1.985   7.693  18.384  0.00  0.00    +0.000 C 
ATOM      2  C   UNL     1       3.244   7.624  17.527  0.00  0.00    +0.000 C 
ENDROOT
BRANCH   1   3
ATOM      3  N   UNL     1       1.994   8.877  19.228  0.00  0.00    +0.000 N 
ATOM      4  H   UNL     1       2.890   9.318  19.444  0.00  0.00    +0.000 HD
BRANCH   3   7
ATOM      5  C   UNL     1      -0.842  11.196  18.575  0.00  0.00    +0.000 A 
ATOM      6  C   UNL     1       0.263  10.374  18.375  0.00  0.00    +0.000 A 
ATOM      7  C   UNL     1       0.915   9.739  19.447  0.00  0.00    +0.000 A 
ATOM      8  C   UNL     1       0.410   9.889  20.756  0.00  0.00    +0.000 A 
ATOM      9  N   UNL     1       0.997   9.245  21.798  0.00  0.00    +0.000 NA
ATOM     10  C   UNL     1       0.481   9.412  23.037  0.00  0.00    +0.000 A 
ATOM     11  C   UNL     1      -0.606  10.215  23.316  0.00  0.00    +0.000 A 
ATOM     12  C   UNL     1      -1.208  10.883  22.257  0.00  0.00    +0.000 A 
ATOM     13  C   UNL     1      -0.712  10.725  20.955  0.00  0.00    +0.000 A 
ATOM     14  C   UNL     1      -1.321  11.375  19.868  0.00  0.00    +0.000 A 
BRANCH   5  16
ATOM     15  C   UNL     1      -2.381  11.064  16.775  0.00  0.00    +0.000 C 
ATOM     16  O   UNL     1      -1.517  11.856  17.586  0.00  0.00    +0.000 OA
ENDBRANCH   5  16
ENDBRANCH   3   7
ENDBRANCH   1   3
BRANCH   1  17
ATOM     17  C   UNL     1       1.827   6.450  19.276  0.00  0.00    +0.000 C 
BRANCH  17  18
ATOM     18  C   UNL     1       3.138   6.021  19.956  0.00  0.00    +0.000 C 
BRANCH  18  19
ATOM     19  C   UNL     1       3.354   4.512  19.925  0.00  0.00    +0.000 C 
BRANCH  19  20
ATOM     20  N   UNL     1       4.243   4.060  18.875  0.00  0.00    +0.000 N 
ATOM     21  C   UNL     1       5.579   4.394  18.862  0.00  0.00    +0.000 C 
ATOM     22  O   UNL     1       6.230   4.867  19.778  0.00  0.00    +0.000 OA
ATOM     23  C   UNL     1       6.017   4.214  17.425  0.00  0.00    +0.000 C 
ATOM     24  N   UNL     1       5.049   3.228  16.875  0.00  0.00    +0.000 NA
ATOM     25  C   UNL     1       3.881   3.182  17.788  0.00  0.00    +0.000 C 
ATOM     26  C   UNL     1       3.693   1.737  18.279  0.00  0.00    +0.000 C 
ATOM     27  C   UNL     1       2.642   3.623  17.004  0.00  0.00    +0.000 C 
ATOM     28  H   UNL     1       5.501   2.315  16.895  0.00  0.00    +0.000 HD
BRANCH  23  29
ATOM     29  C   UNL     1       5.898   5.572  16.688  0.00  0.00    +0.000 C 
ATOM     30  C   UNL     1       7.148   6.439  16.885  0.00  0.00    +0.000 C 
ATOM     31  C   UNL     1       5.641   5.402  15.188  0.00  0.00    +0.000 C 
ENDBRANCH  23  29
ENDBRANCH  19  20
ENDBRANCH  18  19
ENDBRANCH  17  18
ENDBRANCH   1  17
TORSDOF 8
ENDMDL
MODEL 3
REMARK VINA RESULT:      -7.6      6.163     10.025
REMARK  Name = 
REMARK  14 active torsions:
REMARK  status: ('A' for Active; 'I' for Inactive)
REMARK    1  A    between atoms: C_1  and  O_2
REMARK    2  A    between atoms: O_2  and  C_3
REMARK    3  A    between atoms: C_5  and  N_6
REMARK    4  A    between atoms: N_6  and  C_7
REMARK    5  A    between atoms: C_7  and  C_8
REMARK    6  A    between atoms: C_7  and  C_9
REMARK    7  A    between atoms: C_9  and  C_10
REMARK    8  A    between atoms: C_10  and  C_11
REMARK    9  A    between atoms: C_11  and  N_12
REMARK   10  A    between atoms: C_15  and  C_16
REMARK   11  A    between atoms: C_16  and  C_17
REMARK   12  A    between atoms: C_16  and  C_18
REMARK   13  A    between atoms: C_20  and  C_21
REMARK   14  A    between atoms: C_20  and  C_22
REMARK                            x       y       z     vdW  Elec       q    Type
REMARK                         _______ _______ _______ _____ _____    ______ ____
ROOT
ATOM      1  C   UNL     1       1.988   8.000  18.625  0.00  0.00    +0.000 C 
ATOM      2  C   UNL     1       3.178   7.948  17.674  0.00  0.00    +0.000 C 
ENDROOT
BRANCH   1   3
ATOM      3  N   UNL     1       1.713   9.365  19.040  0.00  0.00    +0.000 N 
ATOM      4  H   UNL     1       2.489   9.946  19.364  0.00  0.00    +0.000 HD
BRANCH   3   7
ATOM      5  C   UNL     1      -1.540  10.325  17.509  0.00  0.00    +0.000 A 
ATOM      6  C   UNL     1      -0.408   9.593  17.848  0.00  0.00    +0.000 A 
ATOM      7  C   UNL     1       0.602  10.130  18.666  0.00  0.00    +0.000 A 
ATOM      8  C   UNL     1       0.447  11.424  19.206  0.00  0.00    +0.000 A 
ATOM      9  N   UNL     1       1.389  11.942  20.036  0.00  0.00    +0.000 NA
ATOM     10  C   UNL     1       1.200  13.185  20.537  0.00  0.00    +0.000 A 
ATOM     11  C   UNL     1       0.108  13.975  20.240  0.00  0.00    +0.000 A 
ATOM     12  C   UNL     1      -0.857  13.456  19.386  0.00  0.00    +0.000 A 
ATOM     13  C   UNL     1      -0.705  12.166  18.858  0.00  0.00    +0.000 A 
ATOM     14  C   UNL     1      -1.681  11.615  18.010  0.00  0.00    +0.000 A 
BRANCH   5  16
ATOM     15  C   UNL     1      -2.809  10.631  15.528  0.00  0.00    +0.000 C 
ATOM     16  O   UNL     1      -2.554   9.876  16.710  0.00  0.00    +0.000 OA
ENDBRANCH   5  16
ENDBRANCH   3   7
ENDBRANCH   1   3
BRANCH   1  17
ATOM     17  C   UNL     1       2.217   7.138  19.879  0.00  0.00    +0.000 C 
BRANCH  17  18
ATOM     18  C   UNL     1       2.142   5.628  19.599  0.00  0.00    +0.000 C 
BRANCH  18  19
ATOM     19  C   UNL     1       3.364   4.870  20.106  0.00  0.00    +0.000 C 
BRANCH  19  20
ATOM     20  N   UNL     1       4.210   4.338  19.058  0.00  0.00    +0.000 N 
ATOM     21  C   UNL     1       5.554   4.631  18.993  0.00  0.00    +0.000 C 
ATOM     22  O   UNL     1       6.244   5.131  19.865  0.00  0.00    +0.000 OA
ATOM     23  C   UNL     1       5.947   4.364  17.556  0.00  0.00    +0.000 C 
ATOM     24  N   UNL     1       4.936   3.381  17.084  0.00  0.00    +0.000 NA
ATOM     25  C   UNL     1       3.793   3.417  18.028  0.00  0.00    +0.000 C 
ATOM     26  C   UNL     1       3.577   2.005  18.599  0.00  0.00    +0.000 C 
ATOM     27  C   UNL     1       2.546   3.854  17.255  0.00  0.00    +0.000 C 
ATOM     28  H   UNL     1       5.362   2.457  17.140  0.00  0.00    +0.000 HD
BRANCH  23  29
ATOM     29  C   UNL     1       5.846   5.685  16.752  0.00  0.00    +0.000 C 
ATOM     30  C   UNL     1       7.107   6.545  16.908  0.00  0.00    +0.000 C 
ATOM     31  C   UNL     1       5.589   5.445  15.263  0.00  0.00    +0.000 C 
ENDBRANCH  23  29
ENDBRANCH  19  20
ENDBRANCH  18  19
ENDBRANCH  17  18
ENDBRANCH   1  17
TORSDOF 8
ENDMDL
MODEL 4
REMARK VINA RESULT:      -7.5      7.249     11.083
REMARK  Name = 
REMARK  14 active torsions:
REMARK  status: ('A' for Active; 'I' for Inactive)
REMARK    1  A    between atoms: C_1  and  O_2
REMARK    2  A    between atoms: O_2  and  C_3
REMARK    3  A    between atoms: C_5  and  N_6
REMARK    4  A    between atoms: N_6  and  C_7
REMARK    5  A    between atoms: C_7  and  C_8
REMARK    6  A    between atoms: C_7  and  C_9
REMARK    7  A    between atoms: C_9  and  C_10
REMARK    8  A    between atoms: C_10  and  C_11
REMARK    9  A    between atoms: C_11  and  N_12
REMARK   10  A    between atoms: C_15  and  C_16
REMARK   11  A    between atoms: C_16  and  C_17
REMARK   12  A    between atoms: C_16  and  C_18
REMARK   13  A    between atoms: C_20  and  C_21
REMARK   14  A    between atoms: C_20  and  C_22
REMARK                            x       y       z     vdW  Elec       q    Type
REMARK                         _______ _______ _______ _____ _____    ______ ____
ROOT
ATOM      1  C   UNL     1       1.581   9.712  19.029  0.00  0.00    +0.000 C 
ATOM      2  C   UNL     1       0.758   9.118  20.167  0.00  0.00    +0.000 C 
ENDROOT
BRANCH   1   3
ATOM      3  N   UNL     1       0.885  10.829  18.411  0.00  0.00    +0.000 N 
ATOM      4  H   UNL     1       1.384  11.400  17.727  0.00  0.00    +0.000 HD
BRANCH   3   7
ATOM      5  C   UNL     1      -2.631  10.371  17.284  0.00  0.00    +0.000 A 
ATOM      6  C   UNL     1      -1.247  10.266  17.360  0.00  0.00    +0.000 A 
ATOM      7  C   UNL     1      -0.502  10.981  18.315  0.00  0.00    +0.000 A 
ATOM      8  C   UNL     1      -1.173  11.786  19.260  0.00  0.00    +0.000 A 
ATOM      9  N   UNL     1      -0.475  12.447  20.220  0.00  0.00    +0.000 NA
ATOM     10  C   UNL     1      -1.155  13.205  21.110  0.00  0.00    +0.000 A 
ATOM     11  C   UNL     1      -2.526  13.366  21.095  0.00  0.00    +0.000 A 
ATOM     12  C   UNL     1      -3.246  12.699  20.112  0.00  0.00    +0.000 A 
ATOM     13  C   UNL     1      -2.580  11.891  19.180  0.00  0.00    +0.000 A 
ATOM     14  C   UNL     1      -3.294  11.191  18.192  0.00  0.00    +0.000 A 
BRANCH   5  16
ATOM     15  C   UNL     1      -3.137   9.967  15.002  0.00  0.00    +0.000 C 
ATOM     16  O   UNL     1      -3.419   9.718  16.377  0.00  0.00    +0.000 OA
ENDBRANCH   5  16
ENDBRANCH   3   7
ENDBRANCH   1   3
BRANCH   1  17
ATOM     17  C   UNL     1       1.903   8.669  17.946  0.00  0.00    +0.000 C 
BRANCH  17  18
ATOM     18  C   UNL     1       2.451   7.350  18.517  0.00  0.00    +0.000 C 
BRANCH  18  19
ATOM     19  C   UNL     1       3.285   6.570  17.508  0.00  0.00    +0.000 C 
BRANCH  19  20
ATOM     20  N   UNL     1       3.456   5.169  17.834  0.00  0.00    +0.000 N 
ATOM     21  C   UNL     1       2.400   4.286  17.818  0.00  0.00    +0.000 C 
ATOM     22  O   UNL     1       1.299   4.462  17.327  0.00  0.00    +0.000 OA
ATOM     23  C   UNL     1       2.839   3.129  18.690  0.00  0.00    +0.000 C 
ATOM     24  N   UNL     1       4.324   3.183  18.636  0.00  0.00    +0.000 NA
ATOM     25  C   UNL     1       4.712   4.525  18.140  0.00  0.00    +0.000 C 
ATOM     26  C   UNL     1       5.573   4.357  16.877  0.00  0.00    +0.000 C 
ATOM     27  C   UNL     1       5.531   5.221  19.230  0.00  0.00    +0.000 C 
ATOM     28  H   UNL     1       4.628   2.493  17.950  0.00  0.00    +0.000 HD
BRANCH  23  29
ATOM     29  C   UNL     1       2.332   3.366  20.135  0.00  0.00    +0.000 C 
ATOM     30  C   UNL     1       0.845   3.019  20.281  0.00  0.00    +0.000 C 
ATOM     31  C   UNL     1       3.132   2.574  21.172  0.00  0.00    +0.000 C 
ENDBRANCH  23  29
ENDBRANCH  19  20
ENDBRANCH  18  19
ENDBRANCH  17  18
ENDBRANCH   1  17
TORSDOF 8
ENDMDL
MODEL 5
REMARK VINA RESULT:      -7.5      6.507     10.199
REMARK  Name = 
REMARK  14 active torsions:
REMARK  status: ('A' for Active; 'I' for Inactive)
REMARK    1  A    between atoms: C_1  and  O_2
REMARK    2  A    between atoms: O_2  and  C_3
REMARK    3  A    between atoms: C_5  and  N_6
REMARK    4  A    between atoms: N_6  and  C_7
REMARK    5  A    between atoms: C_7  and  C_8
REMARK    6  A    between atoms: C_7  and  C_9
REMARK    7  A    between atoms: C_9  and  C_10
REMARK    8  A    between atoms: C_10  and  C_11
REMARK    9  A    between atoms: C_11  and  N_12
REMARK   10  A    between atoms: C_15  and  C_16
REMARK   11  A    between atoms: C_16  and  C_17
REMARK   12  A    between atoms: C_16  and  C_18
REMARK   13  A    between atoms: C_20  and  C_21
REMARK   14  A    between atoms: C_20  and  C_22
REMARK                            x       y       z     vdW  Elec       q    Type
REMARK                         _______ _______ _______ _____ _____    ______ ____
ROOT
ATOM      1  C   UNL     1       2.033   8.233  19.953  0.00  0.00    +0.000 C 
ATOM      2  C   UNL     1       1.093   7.662  21.007  0.00  0.00    +0.000 C 
ENDROOT
BRANCH   1   3
ATOM      3  N   UNL     1       1.328   9.138  19.061  0.00  0.00    +0.000 N 
ATOM      4  H   UNL     1       1.160   8.845  18.096  0.00  0.00    +0.000 HD
BRANCH   3   7
ATOM      5  C   UNL     1       0.011  12.104  20.883  0.00  0.00    +0.000 A 
ATOM      6  C   UNL     1       0.820  11.034  20.516  0.00  0.00    +0.000 A 
ATOM      7  C   UNL     1       0.481  10.181  19.450  0.00  0.00    +0.000 A 
ATOM      8  C   UNL     1      -0.681  10.442  18.693  0.00  0.00    +0.000 A 
ATOM      9  N   UNL     1      -1.000   9.659  17.630  0.00  0.00    +0.000 NA
ATOM     10  C   UNL     1      -2.120   9.945  16.926  0.00  0.00    +0.000 A 
ATOM     11  C   UNL     1      -2.976  10.983  17.233  0.00  0.00    +0.000 A 
ATOM     12  C   UNL     1      -2.660  11.785  18.323  0.00  0.00    +0.000 A 
ATOM     13  C   UNL     1      -1.501  11.531  19.068  0.00  0.00    +0.000 A 
ATOM     14  C   UNL     1      -1.153  12.344  20.160  0.00  0.00    +0.000 A 
BRANCH   5  16
ATOM     15  C   UNL     1       0.973  14.158  21.578  0.00  0.00    +0.000 C 
ATOM     16  O   UNL     1       0.268  12.965  21.913  0.00  0.00    +0.000 OA
ENDBRANCH   5  16
ENDBRANCH   3   7
ENDBRANCH   1   3
BRANCH   1  17
ATOM     17  C   UNL     1       2.696   7.127  19.113  0.00  0.00    +0.000 C 
BRANCH  17  18
ATOM     18  C   UNL     1       2.133   5.726  19.404  0.00  0.00    +0.000 C 
BRANCH  18  19
ATOM     19  C   UNL     1       3.184   4.770  19.960  0.00  0.00    +0.000 C 
BRANCH  19  20
ATOM     20  N   UNL     1       4.115   4.270  18.969  0.00  0.00    +0.000 N 
ATOM     21  C   UNL     1       5.429   4.680  18.936  0.00  0.00    +0.000 C 
ATOM     22  O   UNL     1       6.037   5.281  19.806  0.00  0.00    +0.000 OA
ATOM     23  C   UNL     1       5.900   4.384  17.529  0.00  0.00    +0.000 C 
ATOM     24  N   UNL     1       5.000   3.293  17.072  0.00  0.00    +0.000 NA
ATOM     25  C   UNL     1       3.823   3.268  17.973  0.00  0.00    +0.000 C 
ATOM     26  C   UNL     1       3.712   1.870  18.605  0.00  0.00    +0.000 C 
ATOM     27  C   UNL     1       2.573   3.553  17.136  0.00  0.00    +0.000 C 
ATOM     28  H   UNL     1       5.505   2.415  17.188  0.00  0.00    +0.000 HD
BRANCH  23  29
ATOM     29  C   UNL     1       5.712   5.653  16.658  0.00  0.00    +0.000 C 
ATOM     30  C   UNL     1       6.850   6.661  16.867  0.00  0.00    +0.000 C 
ATOM     31  C   UNL     1       5.605   5.326  15.166  0.00  0.00    +0.000 C 
ENDBRANCH  23  29
ENDBRANCH  19  20
ENDBRANCH  18  19
ENDBRANCH  17  18
ENDBRANCH   1  17
TORSDOF 8
ENDMDL
MODEL 6
REMARK VINA RESULT:      -7.5      7.363     10.910
REMARK  Name = 
REMARK  14 active torsions:
REMARK  status: ('A' for Active; 'I' for Inactive)
REMARK    1  A    between atoms: C_1  and  O_2
REMARK    2  A    between atoms: O_2  and  C_3
REMARK    3  A    between atoms: C_5  and  N_6
REMARK    4  A    between atoms: N_6  and  C_7
REMARK    5  A    between atoms: C_7  and  C_8
REMARK    6  A    between atoms: C_7  and  C_9
REMARK    7  A    between atoms: C_9  and  C_10
REMARK    8  A    between atoms: C_10  and  C_11
REMARK    9  A    between atoms: C_11  and  N_12
REMARK   10  A    between atoms: C_15  and  C_16
REMARK   11  A    between atoms: C_16  and  C_17
REMARK   12  A    between atoms: C_16  and  C_18
REMARK   13  A    between atoms: C_20  and  C_21
REMARK   14  A    between atoms: C_20  and  C_22
REMARK                            x       y       z     vdW  Elec       q    Type
REMARK                         _______ _______ _______ _____ _____    ______ ____
ROOT
ATOM      1  C   UNL     1       1.195   8.781  19.072  0.00  0.00    +0.000 C 
ATOM      2  C   UNL     1       2.085   9.288  17.943  0.00  0.00    +0.000 C 
ENDROOT
BRANCH   1   3
ATOM      3  N   UNL     1       0.705   9.883  19.883  0.00  0.00    +0.000 N 
ATOM      4  H   UNL     1       1.357  10.361  20.508  0.00  0.00    +0.000 HD
BRANCH   3   7
ATOM      5  C   UNL     1      -2.198  11.374  18.095  0.00  0.00    +0.000 A 
ATOM      6  C   UNL     1      -1.037  10.653  18.353  0.00  0.00    +0.000 A 
ATOM      7  C   UNL     1      -0.436  10.651  19.624  0.00  0.00    +0.000 A 
ATOM      8  C   UNL     1      -1.048  11.351  20.686  0.00  0.00    +0.000 A 
ATOM      9  N   UNL     1      -0.509  11.321  21.932  0.00  0.00    +0.000 NA
ATOM     10  C   UNL     1      -1.129  12.001  22.923  0.00  0.00    +0.000 A 
ATOM     11  C   UNL     1      -2.278  12.744  22.744  0.00  0.00    +0.000 A 
ATOM     12  C   UNL     1      -2.833  12.785  21.471  0.00  0.00    +0.000 A 
ATOM     13  C   UNL     1      -2.228  12.082  20.420  0.00  0.00    +0.000 A 
ATOM     14  C   UNL     1      -2.787  12.094  19.130  0.00  0.00    +0.000 A 
BRANCH   5  16
ATOM     15  C   UNL     1      -4.256  11.415  16.915  0.00  0.00    +0.000 C 
ATOM     16  O   UNL     1      -2.831  11.435  16.885  0.00  0.00    +0.000 OA
ENDBRANCH   5  16
ENDBRANCH   3   7
ENDBRANCH   1   3
BRANCH   1  17
ATOM     17  C   UNL     1       1.933   7.786  19.984  0.00  0.00    +0.000 C 
BRANCH  17  18
ATOM     18  C   UNL     1       2.953   6.915  19.231  0.00  0.00    +0.000 C 
BRANCH  18  19
ATOM     19  C   UNL     1       3.110   5.527  19.840  0.00  0.00    +0.000 C 
BRANCH  19  20
ATOM     20  N   UNL     1       3.932   4.624  19.060  0.00  0.00    +0.000 N 
ATOM     21  C   UNL     1       5.295   4.787  18.961  0.00  0.00    +0.000 C 
ATOM     22  O   UNL     1       6.006   5.498  19.651  0.00  0.00    +0.000 OA
ATOM     23  C   UNL     1       5.692   4.038  17.707  0.00  0.00    +0.000 C 
ATOM     24  N   UNL     1       4.617   3.025  17.539  0.00  0.00    +0.000 NA
ATOM     25  C   UNL     1       3.463   3.446  18.370  0.00  0.00    +0.000 C 
ATOM     26  C   UNL     1       3.127   2.318  19.359  0.00  0.00    +0.000 C 
ATOM     27  C   UNL     1       2.268   3.689  17.444  0.00  0.00    +0.000 C 
ATOM     28  H   UNL     1       4.969   2.144  17.911  0.00  0.00    +0.000 HD
BRANCH  23  29
ATOM     29  C   UNL     1       5.709   5.027  16.514  0.00  0.00    +0.000 C 
ATOM     30  C   UNL     1       7.044   5.776  16.413  0.00  0.00    +0.000 C 
ATOM     31  C   UNL     1       5.426   4.334  15.178  0.00  0.00    +0.000 C 
ENDBRANCH  23  29
ENDBRANCH  19  20
ENDBRANCH  18  19
ENDBRANCH  17  18
ENDBRANCH   1  17
TORSDOF 8
ENDMDL
MODEL 7
REMARK VINA RESULT:      -7.4      7.692      9.062
REMARK  Name = 
REMARK  14 active torsions:
REMARK  status: ('A' for Active; 'I' for Inactive)
REMARK    1  A    between atoms: C_1  and  O_2
REMARK    2  A    between atoms: O_2  and  C_3
REMARK    3  A    between atoms: C_5  and  N_6
REMARK    4  A    between atoms: N_6  and  C_7
REMARK    5  A    between atoms: C_7  and  C_8
REMARK    6  A    between atoms: C_7  and  C_9
REMARK    7  A    between atoms: C_9  and  C_10
REMARK    8  A    between atoms: C_10  and  C_11
REMARK    9  A    between atoms: C_11  and  N_12
REMARK   10  A    between atoms: C_15  and  C_16
REMARK   11  A    between atoms: C_16  and  C_17
REMARK   12  A    between atoms: C_16  and  C_18
REMARK   13  A    between atoms: C_20  and  C_21
REMARK   14  A    between atoms: C_20  and  C_22
REMARK                            x       y       z     vdW  Elec       q    Type
REMARK                         _______ _______ _______ _____ _____    ______ ____
ROOT
ATOM      1  C   UNL     1       2.252   8.175  18.827  0.00  0.00    +0.000 C 
ATOM      2  C   UNL     1       1.896   9.268  17.826  0.00  0.00    +0.000 C 
ENDROOT
BRANCH   1   3
ATOM      3  N   UNL     1       1.975   6.858  18.279  0.00  0.00    +0.000 N 
ATOM      4  H   UNL     1       1.061   6.684  17.856  0.00  0.00    +0.000 HD
BRANCH   3   7
ATOM      5  C   UNL     1       5.164   5.392  17.041  0.00  0.00    +0.000 A 
ATOM      6  C   UNL     1       4.189   6.318  17.398  0.00  0.00    +0.000 A 
ATOM      7  C   UNL     1       2.929   5.916  17.878  0.00  0.00    +0.000 A 
ATOM      8  C   UNL     1       2.657   4.543  18.056  0.00  0.00    +0.000 A 
ATOM      9  N   UNL     1       1.464   4.138  18.563  0.00  0.00    +0.000 NA
ATOM     10  C   UNL     1       1.244   2.813  18.724  0.00  0.00    +0.000 A 
ATOM     11  C   UNL     1       2.157   1.835  18.386  0.00  0.00    +0.000 A 
ATOM     12  C   UNL     1       3.378   2.241  17.860  0.00  0.00    +0.000 A 
ATOM     13  C   UNL     1       3.650   3.606  17.692  0.00  0.00    +0.000 A 
ATOM     14  C   UNL     1       4.888   4.036  17.182  0.00  0.00    +0.000 A 
BRANCH   5  16
ATOM     15  C   UNL     1       7.026   4.723  15.734  0.00  0.00    +0.000 C 
ATOM     16  O   UNL     1       6.402   5.706  16.556  0.00  0.00    +0.000 OA
ENDBRANCH   5  16
ENDBRANCH   3   7
ENDBRANCH   1   3
BRANCH   1  17
ATOM     17  C   UNL     1       1.483   8.333  20.149  0.00  0.00    +0.000 C 
BRANCH  17  18
ATOM     18  C   UNL     1       1.046   9.781  20.427  0.00  0.00    +0.000 C 
BRANCH  18  19
ATOM     19  C   UNL     1      -0.468   9.933  20.529  0.00  0.00    +0.000 C 
BRANCH  19  20
ATOM     20  N   UNL     1      -0.910  11.275  20.849  0.00  0.00    +0.000 N 
ATOM     21  C   UNL     1      -0.957  11.734  22.146  0.00  0.00    +0.000 C 
ATOM     22  O   UNL     1      -0.443  11.226  23.127  0.00  0.00    +0.000 OA
ATOM     23  C   UNL     1      -1.925  12.897  22.118  0.00  0.00    +0.000 C 
ATOM     24  N   UNL     1      -1.881  13.368  20.708  0.00  0.00    +0.000 NA
ATOM     25  C   UNL     1      -1.279  12.288  19.889  0.00  0.00    +0.000 C 
ATOM     26  C   UNL     1      -0.042  12.846  19.165  0.00  0.00    +0.000 C 
ATOM     27  C   UNL     1      -2.315  11.835  18.857  0.00  0.00    +0.000 C 
ATOM     28  H   UNL     1      -1.256  14.173  20.676  0.00  0.00    +0.000 HD
BRANCH  23  29
ATOM     29  C   UNL     1      -3.341  12.384  22.482  0.00  0.00    +0.000 C 
ATOM     30  C   UNL     1      -3.630  12.524  23.982  0.00  0.00    +0.000 C 
ATOM     31  C   UNL     1      -4.442  13.097  21.694  0.00  0.00    +0.000 C 
ENDBRANCH  23  29
ENDBRANCH  19  20
ENDBRANCH  18  19
ENDBRANCH  17  18
ENDBRANCH   1  17
TORSDOF 8
ENDMDL
MODEL 8
REMARK VINA RESULT:      -7.4      7.312      8.862
REMARK  Name = 
REMARK  14 active torsions:
REMARK  status: ('A' for Active; 'I' for Inactive)
REMARK    1  A    between atoms: C_1  and  O_2
REMARK    2  A    between atoms: O_2  and  C_3
REMARK    3  A    between atoms: C_5  and  N_6
REMARK    4  A    between atoms: N_6  and  C_7
REMARK    5  A    between atoms: C_7  and  C_8
REMARK    6  A    between atoms: C_7  and  C_9
REMARK    7  A    between atoms: C_9  and  C_10
REMARK    8  A    between atoms: C_10  and  C_11
REMARK    9  A    between atoms: C_11  and  N_12
REMARK   10  A    between atoms: C_15  and  C_16
REMARK   11  A    between atoms: C_16  and  C_17
REMARK   12  A    between atoms: C_16  and  C_18
REMARK   13  A    between atoms: C_20  and  C_21
REMARK   14  A    between atoms: C_20  and  C_22
REMARK                            x       y       z     vdW  Elec       q    Type
REMARK                         _______ _______ _______ _____ _____    ______ ____
ROOT
ATOM      1  C   UNL     1       2.506   7.535  19.740  0.00  0.00    +0.000 C 
ATOM      2  C   UNL     1       2.099   7.657  18.276  0.00  0.00    +0.000 C 
ENDROOT
BRANCH   1   3
ATOM      3  N   UNL     1       3.341   6.365  19.952  0.00  0.00    +0.000 N 
ATOM      4  H   UNL     1       3.500   6.042  20.908  0.00  0.00    +0.000 HD
BRANCH   3   7
ATOM      5  C   UNL     1       5.099   4.413  17.316  0.00  0.00    +0.000 A 
ATOM      6  C   UNL     1       4.787   5.419  18.225  0.00  0.00    +0.000 A 
ATOM      7  C   UNL     1       3.619   5.371  19.007  0.00  0.00    +0.000 A 
ATOM      8  C   UNL     1       2.763   4.253  18.914  0.00  0.00    +0.000 A 
ATOM      9  N   UNL     1       1.656   4.166  19.695  0.00  0.00    +0.000 NA
ATOM     10  C   UNL     1       0.864   3.075  19.579  0.00  0.00    +0.000 A 
ATOM     11  C   UNL     1       1.103   2.042  18.697  0.00  0.00    +0.000 A 
ATOM     12  C   UNL     1       2.230   2.126  17.888  0.00  0.00    +0.000 A 
ATOM     13  C   UNL     1       3.084   3.233  17.989  0.00  0.00    +0.000 A 
ATOM     14  C   UNL     1       4.241   3.325  17.195  0.00  0.00    +0.000 A 
BRANCH   5  16
ATOM     15  C   UNL     1       7.460   4.582  17.166  0.00  0.00    +0.000 C 
ATOM     16  O   UNL     1       6.206   4.397  16.514  0.00  0.00    +0.000 OA
ENDBRANCH   5  16
ENDBRANCH   3   7
ENDBRANCH   1   3
BRANCH   1  17
ATOM     17  C   UNL     1       1.285   7.448  20.671  0.00  0.00    +0.000 C 
BRANCH  17  18
ATOM     18  C   UNL     1       1.058   8.726  21.496  0.00  0.00    +0.000 C 
BRANCH  18  19
ATOM     19  C   UNL     1      -0.397   9.179  21.498  0.00  0.00    +0.000 C 
BRANCH  19  20
ATOM     20  N   UNL     1      -0.589  10.566  21.127  0.00  0.00    +0.000 N 
ATOM     21  C   UNL     1      -0.765  11.552  22.071  0.00  0.00    +0.000 C 
ATOM     22  O   UNL     1      -0.555  11.472  23.269  0.00  0.00    +0.000 OA
ATOM     23  C   UNL     1      -1.438  12.689  21.334  0.00  0.00    +0.000 C 
ATOM     24  N   UNL     1      -1.045  12.480  19.916  0.00  0.00    +0.000 NA
ATOM     25  C   UNL     1      -0.555  11.087  19.781  0.00  0.00    +0.000 C 
ATOM     26  C   UNL     1       0.882  11.117  19.233  0.00  0.00    +0.000 C 
ATOM     27  C   UNL     1      -1.465  10.352  18.794  0.00  0.00    +0.000 C 
ATOM     28  H   UNL     1      -0.266  13.108  19.721  0.00  0.00    +0.000 HD
BRANCH  23  29
ATOM     29  C   UNL     1      -2.974  12.561  21.503  0.00  0.00    +0.000 C 
ATOM     30  C   UNL     1      -3.488  13.392  22.686  0.00  0.00    +0.000 C 
ATOM     31  C   UNL     1      -3.736  12.967  20.240  0.00  0.00    +0.000 C 
ENDBRANCH  23  29
ENDBRANCH  19  20
ENDBRANCH  18  19
ENDBRANCH  17  18
ENDBRANCH   1  17
TORSDOF 8
ENDMDL
MODEL 9
REMARK VINA RESULT:      -7.4      6.365     10.174
REMARK  Name = 
REMARK  14 active torsions:
REMARK  status: ('A' for Active; 'I' for Inactive)
REMARK    1  A    between atoms: C_1  and  O_2
REMARK    2  A    between atoms: O_2  and  C_3
REMARK    3  A    between atoms: C_5  and  N_6
REMARK    4  A    between atoms: N_6  and  C_7
REMARK    5  A    between atoms: C_7  and  C_8
REMARK    6  A    between atoms: C_7  and  C_9
REMARK    7  A    between atoms: C_9  and  C_10
REMARK    8  A    between atoms: C_10  and  C_11
REMARK    9  A    between atoms: C_11  and  N_12
REMARK   10  A    between atoms: C_15  and  C_16
REMARK   11  A    between atoms: C_16  and  C_17
REMARK   12  A    between atoms: C_16  and  C_18
REMARK   13  A    between atoms: C_20  and  C_21
REMARK   14  A    between atoms: C_20  and  C_22
REMARK                            x       y       z     vdW  Elec       q    Type
REMARK                         _______ _______ _______ _____ _____    ______ ____
ROOT
ATOM      1  C   UNL     1       1.220   8.471  20.766  0.00  0.00    +0.000 C 
ATOM      2  C   UNL     1      -0.072   8.828  21.493  0.00  0.00    +0.000 C 
ENDROOT
BRANCH   1   3
ATOM      3  N   UNL     1       1.341   9.214  19.524  0.00  0.00    +0.000 N 
ATOM      4  H   UNL     1       1.959   8.854  18.794  0.00  0.00    +0.000 HD
BRANCH   3   7
ATOM      5  C   UNL     1      -1.669  10.609  17.838  0.00  0.00    +0.000 A 
ATOM      6  C   UNL     1      -0.715   9.709  18.300  0.00  0.00    +0.000 A 
ATOM      7  C   UNL     1       0.414  10.135  19.023  0.00  0.00    +0.000 A 
ATOM      8  C   UNL     1       0.564  11.502  19.338  0.00  0.00    +0.000 A 
ATOM      9  N   UNL     1       1.623  11.926  20.076  0.00  0.00    +0.000 NA
ATOM     10  C   UNL     1       1.728  13.244  20.362  0.00  0.00    +0.000 A 
ATOM     11  C   UNL     1       0.828  14.198  19.932  0.00  0.00    +0.000 A 
ATOM     12  C   UNL     1      -0.255  13.773  19.171  0.00  0.00    +0.000 A 
ATOM     13  C   UNL     1      -0.408  12.414  18.867  0.00  0.00    +0.000 A 
ATOM     14  C   UNL     1      -1.508  11.962  18.117  0.00  0.00    +0.000 A 
BRANCH   5  16
ATOM     15  C   UNL     1      -2.655  10.316  15.701  0.00  0.00    +0.000 C 
ATOM     16  O   UNL     1      -2.782  10.272  17.120  0.00  0.00    +0.000 OA
ENDBRANCH   5  16
ENDBRANCH   3   7
ENDBRANCH   1   3
BRANCH   1  17
ATOM     17  C   UNL     1       1.306   6.967  20.454  0.00  0.00    +0.000 C 
BRANCH  17  18
ATOM     18  C   UNL     1       2.620   6.566  19.761  0.00  0.00    +0.000 C 
BRANCH  18  19
ATOM     19  C   UNL     1       3.066   5.151  20.112  0.00  0.00    +0.000 C 
BRANCH  19  20
ATOM     20  N   UNL     1       3.910   4.529  19.113  0.00  0.00    +0.000 N 
ATOM     21  C   UNL     1       5.243   4.849  18.987  0.00  0.00    +0.000 C 
ATOM     22  O   UNL     1       5.933   5.463  19.784  0.00  0.00    +0.000 OA
ATOM     23  C   UNL     1       5.619   4.434  17.581  0.00  0.00    +0.000 C 
ATOM     24  N   UNL     1       4.630   3.376  17.243  0.00  0.00    +0.000 NA
ATOM     25  C   UNL     1       3.503   3.486  18.201  0.00  0.00    +0.000 C 
ATOM     26  C   UNL     1       3.339   2.142  18.930  0.00  0.00    +0.000 C 
ATOM     27  C   UNL     1       2.230   3.799  17.410  0.00  0.00    +0.000 C 
ATOM     28  H   UNL     1       5.084   2.477  17.394  0.00  0.00    +0.000 HD
BRANCH  23  29
ATOM     29  C   UNL     1       5.464   5.654  16.637  0.00  0.00    +0.000 C 
ATOM     30  C   UNL     1       6.511   6.736  16.929  0.00  0.00    +0.000 C 
ATOM     31  C   UNL     1       5.549   5.263  15.160  0.00  0.00    +0.000 C 
ENDBRANCH  23  29
ENDBRANCH  19  20
ENDBRANCH  18  19
ENDBRANCH  17  18
ENDBRANCH   1  17
TORSDOF 8
ENDMDL
