MODEL 1
REMARK VINA RESULT:      -9.0      0.000      0.000
REMARK  Name = 
REMARK  4 active torsions:
REMARK  status: ('A' for Active; 'I' for Inactive)
REMARK    1  A    between atoms: C_1  and  C_2
REMARK    2  A    between atoms: N_5  and  C_6
REMARK    3  A    between atoms: N_5  and  C_7
REMARK    4  A    between atoms: C_18  and  C_19
REMARK                            x       y       z     vdW  Elec       q    Type
REMARK                         _______ _______ _______ _____ _____    ______ ____
ROOT
ATOM      1  C   UNL     1       7.956   7.542  18.155  0.00  0.00    +0.000 C 
ATOM      2  C   UNL     1       7.100   6.647  17.311  0.00  0.00    +0.000 A 
ATOM      3  N   UNL     1       5.838   6.432  17.732  0.00  0.00    +0.000 NA
ATOM      4  C   UNL     1       4.973   5.633  17.032  0.00  0.00    +0.000 A 
ATOM      5  N   UNL     1       3.661   5.473  17.528  0.00  0.00    +0.000 N 
ATOM      6  C   UNL     1       2.995   4.187  17.340  0.00  0.00    +0.000 C 
ATOM      7  C   UNL     1       5.486   5.070  15.844  0.00  0.00    +0.000 A 
ATOM      8  C   UNL     1       5.014   4.258  14.771  0.00  0.00    +0.000 A 
ATOM      9  C   UNL     1       6.069   4.079  13.908  0.00  0.00    +0.000 A 
ATOM     10  C   UNL     1       6.229   3.330  12.647  0.00  0.00    +0.000 C 
ATOM     11  O   UNL     1       7.158   4.759  14.356  0.00  0.00    +0.000 OA
ATOM     12  C   UNL     1       6.805   5.369  15.524  0.00  0.00    +0.000 A 
ATOM     13  N   UNL     1       7.657   6.141  16.208  0.00  0.00    +0.000 NA
ENDROOT
BRANCH   5  14
ATOM     14  C   UNL     1       2.974   6.425  18.333  0.00  0.00    +0.000 A 
ATOM     15  C   UNL     1       2.596   6.162  19.667  0.00  0.00    +0.000 A 
ATOM     16  C   UNL     1       1.904   7.091  20.460  0.00  0.00    +0.000 A 
ATOM     17  C   UNL     1       1.595   8.305  19.861  0.00  0.00    +0.000 A 
ATOM     18  O   UNL     1       0.927   9.335  20.450  0.00  0.00    +0.000 OA
ATOM     19  C   UNL     1       0.830  10.323  19.521  0.00  0.00    +0.000 A 
ATOM     20  C   UNL     1       1.429   9.942  18.343  0.00  0.00    +0.000 A 
ATOM     21  C   UNL     1       1.930   8.629  18.556  0.00  0.00    +0.000 A 
ATOM     22  C   UNL     1       2.630   7.682  17.787  0.00  0.00    +0.000 A 
ENDBRANCH   5  14
TORSDOF 1
ENDMDL
MODEL 2
REMARK VINA RESULT:      -8.6      0.725      1.472
REMARK  Name = 
REMARK  4 active torsions:
REMARK  status: ('A' for Active; 'I' for Inactive)
REMARK    1  A    between atoms: C_1  and  C_2
REMARK    2  A    between atoms: N_5  and  C_6
REMARK    3  A    between atoms: N_5  and  C_7
REMARK    4  A    between atoms: C_18  and  C_19
REMARK                            x       y       z     vdW  Elec       q    Type
REMARK                         _______ _______ _______ _____ _____    ______ ____
ROOT
ATOM      1  C   UNL     1       7.856   8.072  18.002  0.00  0.00    +0.000 C 
ATOM      2  C   UNL     1       7.025   7.073  17.254  0.00  0.00    +0.000 A 
ATOM      3  N   UNL     1       5.751   6.908  17.664  0.00  0.00    +0.000 NA
ATOM      4  C   UNL     1       4.908   6.023  17.046  0.00  0.00    +0.000 A 
ATOM      5  N   UNL     1       3.582   5.922  17.522  0.00  0.00    +0.000 N 
ATOM      6  C   UNL     1       2.923   4.620  17.479  0.00  0.00    +0.000 C 
ATOM      7  C   UNL     1       5.454   5.317  15.954  0.00  0.00    +0.000 A 
ATOM      8  C   UNL     1       5.013   4.374  14.979  0.00  0.00    +0.000 A 
ATOM      9  C   UNL     1       6.092   4.092  14.176  0.00  0.00    +0.000 A 
ATOM     10  C   UNL     1       6.288   3.191  13.024  0.00  0.00    +0.000 C 
ATOM     11  O   UNL     1       7.167   4.827  14.564  0.00  0.00    +0.000 OA
ATOM     12  C   UNL     1       6.782   5.579  15.635  0.00  0.00    +0.000 A 
ATOM     13  N   UNL     1       7.613   6.434  16.239  0.00  0.00    +0.000 NA
ENDROOT
BRANCH   5  14
ATOM     14  C   UNL     1       2.872   6.964  18.181  0.00  0.00    +0.000 A 
ATOM     15  C   UNL     1       2.565   8.190  17.554  0.00  0.00    +0.000 A 
ATOM     16  C   UNL     1       1.878   9.228  18.206  0.00  0.00    +0.000 A 
ATOM     17  C   UNL     1       1.512   8.993  19.524  0.00  0.00    +0.000 A 
ATOM     18  O   UNL     1       0.848   9.865  20.332  0.00  0.00    +0.000 OA
ATOM     19  C   UNL     1       0.695   9.249  21.534  0.00  0.00    +0.000 A 
ATOM     20  C   UNL     1       1.250   7.991  21.509  0.00  0.00    +0.000 A 
ATOM     21  C   UNL     1       1.784   7.816  20.203  0.00  0.00    +0.000 A 
ATOM     22  C   UNL     1       2.466   6.791  19.524  0.00  0.00    +0.000 A 
ENDBRANCH   5  14
TORSDOF 1
ENDMDL
MODEL 3
REMARK VINA RESULT:      -8.1      2.936      4.422
REMARK  Name = 
REMARK  4 active torsions:
REMARK  status: ('A' for Active; 'I' for Inactive)
REMARK    1  A    between atoms: C_1  and  C_2
REMARK    2  A    between atoms: N_5  and  C_6
REMARK    3  A    between atoms: N_5  and  C_7
REMARK    4  A    between atoms: C_18  and  C_19
REMARK                            x       y       z     vdW  Elec       q    Type
REMARK                         _______ _______ _______ _____ _____    ______ ____
ROOT
ATOM      1  C   UNL     1       1.179   3.523  20.847  0.00  0.00    +0.000 C 
ATOM      2  C   UNL     1       2.260   4.263  20.119  0.00  0.00    +0.000 A 
ATOM      3  N   UNL     1       1.996   5.536  19.760  0.00  0.00    +0.000 NA
ATOM      4  C   UNL     1       2.917   6.300  19.095  0.00  0.00    +0.000 A 
ATOM      5  N   UNL     1       2.571   7.631  18.772  0.00  0.00    +0.000 N 
ATOM      6  C   UNL     1       3.082   8.202  17.529  0.00  0.00    +0.000 C 
ATOM      7  C   UNL     1       4.153   5.676  18.828  0.00  0.00    +0.000 A 
ATOM      8  C   UNL     1       5.409   6.024  18.249  0.00  0.00    +0.000 A 
ATOM      9  C   UNL     1       6.204   4.904  18.310  0.00  0.00    +0.000 A 
ATOM     10  C   UNL     1       7.579   4.614  17.862  0.00  0.00    +0.000 C 
ATOM     11  O   UNL     1       5.537   3.892  18.925  0.00  0.00    +0.000 OA
ATOM     12  C   UNL     1       4.296   4.358  19.249  0.00  0.00    +0.000 A 
ATOM     13  N   UNL     1       3.399   3.603  19.891  0.00  0.00    +0.000 NA
ENDROOT
BRANCH   5  14
ATOM     14  C   UNL     1       1.638   8.428  19.493  0.00  0.00    +0.000 A 
ATOM     15  C   UNL     1       0.815   9.388  18.868  0.00  0.00    +0.000 A 
ATOM     16  C   UNL     1      -0.096  10.188  19.577  0.00  0.00    +0.000 A 
ATOM     17  C   UNL     1      -0.149   9.993  20.951  0.00  0.00    +0.000 A 
ATOM     18  O   UNL     1      -0.955  10.665  21.819  0.00  0.00    +0.000 OA
ATOM     19  C   UNL     1      -0.691  10.177  23.060  0.00  0.00    +0.000 A 
ATOM     20  C   UNL     1       0.274   9.198  23.001  0.00  0.00    +0.000 A 
ATOM     21  C   UNL     1       0.632   9.071  21.631  0.00  0.00    +0.000 A 
ATOM     22  C   UNL     1       1.530   8.279  20.894  0.00  0.00    +0.000 A 
ENDBRANCH   5  14
TORSDOF 1
ENDMDL
MODEL 4
REMARK VINA RESULT:      -7.8      2.902      4.182
REMARK  Name = 
REMARK  4 active torsions:
REMARK  status: ('A' for Active; 'I' for Inactive)
REMARK    1  A    between atoms: C_1  and  C_2
REMARK    2  A    between atoms: N_5  and  C_6
REMARK    3  A    between atoms: N_5  and  C_7
REMARK    4  A    between atoms: C_18  and  C_19
REMARK                            x       y       z     vdW  Elec       q    Type
REMARK                         _______ _______ _______ _____ _____    ______ ____
ROOT
ATOM      1  C   UNL     1       1.317   3.444  21.059  0.00  0.00    +0.000 C 
ATOM      2  C   UNL     1       2.346   4.195  20.269  0.00  0.00    +0.000 A 
ATOM      3  N   UNL     1       2.053   5.468  19.936  0.00  0.00    +0.000 NA
ATOM      4  C   UNL     1       2.926   6.241  19.218  0.00  0.00    +0.000 A 
ATOM      5  N   UNL     1       2.554   7.572  18.926  0.00  0.00    +0.000 N 
ATOM      6  C   UNL     1       2.981   8.153  17.656  0.00  0.00    +0.000 C 
ATOM      7  C   UNL     1       4.145   5.625  18.868  0.00  0.00    +0.000 A 
ATOM      8  C   UNL     1       5.360   5.983  18.212  0.00  0.00    +0.000 A 
ATOM      9  C   UNL     1       6.163   4.866  18.215  0.00  0.00    +0.000 A 
ATOM     10  C   UNL     1       7.508   4.587  17.679  0.00  0.00    +0.000 C 
ATOM     11  O   UNL     1       5.541   3.847  18.865  0.00  0.00    +0.000 OA
ATOM     12  C   UNL     1       4.322   4.305  19.271  0.00  0.00    +0.000 A 
ATOM     13  N   UNL     1       3.471   3.542  19.964  0.00  0.00    +0.000 NA
ENDROOT
BRANCH   5  14
ATOM     14  C   UNL     1       1.665   8.359  19.710  0.00  0.00    +0.000 A 
ATOM     15  C   UNL     1       1.381   8.069  21.061  0.00  0.00    +0.000 A 
ATOM     16  C   UNL     1       0.492   8.834  21.833  0.00  0.00    +0.000 A 
ATOM     17  C   UNL     1      -0.114   9.908  21.195  0.00  0.00    +0.000 A 
ATOM     18  O   UNL     1      -1.007  10.768  21.760  0.00  0.00    +0.000 OA
ATOM     19  C   UNL     1      -1.356  11.661  20.797  0.00  0.00    +0.000 A 
ATOM     20  C   UNL     1      -0.698  11.388  19.620  0.00  0.00    +0.000 A 
ATOM     21  C   UNL     1       0.114  10.248  19.871  0.00  0.00    +0.000 A 
ATOM     22  C   UNL     1       1.014   9.469  19.123  0.00  0.00    +0.000 A 
ENDBRANCH   5  14
TORSDOF 1
ENDMDL
MODEL 5
REMARK VINA RESULT:      -7.4      2.129      6.899
REMARK  Name = 
REMARK  4 active torsions:
REMARK  status: ('A' for Active; 'I' for Inactive)
REMARK    1  A    between atoms: C_1  and  C_2
REMARK    2  A    between atoms: N_5  and  C_6
REMARK    3  A    between atoms: N_5  and  C_7
REMARK    4  A    between atoms: C_18  and  C_19
REMARK                            x       y       z     vdW  Elec       q    Type
REMARK                         _______ _______ _______ _____ _____    ______ ____
ROOT
ATOM      1  C   UNL     1       2.529   8.206  18.144  0.00  0.00    +0.000 C 
ATOM      2  C   UNL     1       2.586   6.773  18.579  0.00  0.00    +0.000 A 
ATOM      3  N   UNL     1       3.270   5.921  17.788  0.00  0.00    +0.000 NA
ATOM      4  C   UNL     1       3.385   4.591  18.097  0.00  0.00    +0.000 A 
ATOM      5  N   UNL     1       4.135   3.768  17.228  0.00  0.00    +0.000 N 
ATOM      6  C   UNL     1       3.711   2.383  17.042  0.00  0.00    +0.000 C 
ATOM      7  C   UNL     1       2.760   4.184  19.293  0.00  0.00    +0.000 A 
ATOM      8  C   UNL     1       2.634   2.992  20.066  0.00  0.00    +0.000 A 
ATOM      9  C   UNL     1       1.864   3.303  21.162  0.00  0.00    +0.000 A 
ATOM     10  C   UNL     1       1.362   2.513  22.303  0.00  0.00    +0.000 C 
ATOM     11  O   UNL     1       1.535   4.622  21.141  0.00  0.00    +0.000 OA
ATOM     12  C   UNL     1       2.085   5.162  20.016  0.00  0.00    +0.000 A 
ATOM     13  N   UNL     1       1.960   6.459  19.716  0.00  0.00    +0.000 NA
ENDROOT
BRANCH   5  14
ATOM     14  C   UNL     1       5.199   4.217  16.397  0.00  0.00    +0.000 A 
ATOM     15  C   UNL     1       6.255   5.018  16.879  0.00  0.00    +0.000 A 
ATOM     16  C   UNL     1       7.299   5.477  16.058  0.00  0.00    +0.000 A 
ATOM     17  C   UNL     1       7.243   5.105  14.722  0.00  0.00    +0.000 A 
ATOM     18  O   UNL     1       8.147   5.446  13.763  0.00  0.00    +0.000 OA
ATOM     19  C   UNL     1       7.719   4.887  12.601  0.00  0.00    +0.000 A 
ATOM     20  C   UNL     1       6.551   4.188  12.801  0.00  0.00    +0.000 A 
ATOM     21  C   UNL     1       6.234   4.324  14.180  0.00  0.00    +0.000 A 
ATOM     22  C   UNL     1       5.206   3.872  15.026  0.00  0.00    +0.000 A 
ENDBRANCH   5  14
TORSDOF 1
ENDMDL
MODEL 6
REMARK VINA RESULT:      -7.2      1.867      7.184
REMARK  Name = 
REMARK  4 active torsions:
REMARK  status: ('A' for Active; 'I' for Inactive)
REMARK    1  A    between atoms: C_1  and  C_2
REMARK    2  A    between atoms: N_5  and  C_6
REMARK    3  A    between atoms: N_5  and  C_7
REMARK    4  A    between atoms: C_18  and  C_19
REMARK                            x       y       z     vdW  Elec       q    Type
REMARK                         _______ _______ _______ _____ _____    ______ ____
ROOT
ATOM      1  C   UNL     1       3.705   1.400  18.564  0.00  0.00    +0.000 C 
ATOM      2  C   UNL     1       3.614   2.894  18.653  0.00  0.00    +0.000 A 
ATOM      3  N   UNL     1       4.426   3.605  17.846  0.00  0.00    +0.000 NA
ATOM      4  C   UNL     1       4.419   4.975  17.847  0.00  0.00    +0.000 A 
ATOM      5  N   UNL     1       5.286   5.647  16.958  0.00  0.00    +0.000 N 
ATOM      6  C   UNL     1       5.872   6.916  17.381  0.00  0.00    +0.000 C 
ATOM      7  C   UNL     1       3.502   5.582  18.731  0.00  0.00    +0.000 A 
ATOM      8  C   UNL     1       3.071   6.899  19.064  0.00  0.00    +0.000 A 
ATOM      9  C   UNL     1       2.111   6.773  20.040  0.00  0.00    +0.000 A 
ATOM     10  C   UNL     1       1.311   7.749  20.805  0.00  0.00    +0.000 C 
ATOM     11  O   UNL     1       1.889   5.459  20.309  0.00  0.00    +0.000 OA
ATOM     12  C   UNL     1       2.724   4.733  19.511  0.00  0.00    +0.000 A 
ATOM     13  N   UNL     1       2.732   3.396  19.521  0.00  0.00    +0.000 NA
ENDROOT
BRANCH   5  14
ATOM     14  C   UNL     1       5.757   5.118  15.724  0.00  0.00    +0.000 A 
ATOM     15  C   UNL     1       7.102   5.227  15.313  0.00  0.00    +0.000 A 
ATOM     16  C   UNL     1       7.568   4.721  14.089  0.00  0.00    +0.000 A 
ATOM     17  C   UNL     1       6.627   4.099  13.279  0.00  0.00    +0.000 A 
ATOM     18  O   UNL     1       6.869   3.548  12.058  0.00  0.00    +0.000 OA
ATOM     19  C   UNL     1       5.685   3.056  11.607  0.00  0.00    +0.000 A 
ATOM     20  C   UNL     1       4.685   3.282  12.524  0.00  0.00    +0.000 A 
ATOM     21  C   UNL     1       5.290   3.960  13.617  0.00  0.00    +0.000 A 
ATOM     22  C   UNL     1       4.852   4.470  14.852  0.00  0.00    +0.000 A 
ENDBRANCH   5  14
TORSDOF 1
ENDMDL
MODEL 7
REMARK VINA RESULT:      -6.9      3.959      7.597
REMARK  Name = 
REMARK  4 active torsions:
REMARK  status: ('A' for Active; 'I' for Inactive)
REMARK    1  A    between atoms: C_1  and  C_2
REMARK    2  A    between atoms: N_5  and  C_6
REMARK    3  A    between atoms: N_5  and  C_7
REMARK    4  A    between atoms: C_18  and  C_19
REMARK                            x       y       z     vdW  Elec       q    Type
REMARK                         _______ _______ _______ _____ _____    ______ ____
ROOT
ATOM      1  C   UNL     1       0.656   9.186  23.492  0.00  0.00    +0.000 C 
ATOM      2  C   UNL     1       0.491   9.389  22.016  0.00  0.00    +0.000 A 
ATOM      3  N   UNL     1       1.253   8.627  21.205  0.00  0.00    +0.000 NA
ATOM      4  C   UNL     1       1.176   8.732  19.842  0.00  0.00    +0.000 A 
ATOM      5  N   UNL     1       1.993   7.885  19.061  0.00  0.00    +0.000 N 
ATOM      6  C   UNL     1       2.521   8.395  17.798  0.00  0.00    +0.000 C 
ATOM      7  C   UNL     1       0.244   9.670  19.351  0.00  0.00    +0.000 A 
ATOM      8  C   UNL     1      -0.248  10.107  18.086  0.00  0.00    +0.000 A 
ATOM      9  C   UNL     1      -1.184  11.083  18.334  0.00  0.00    +0.000 A 
ATOM     10  C   UNL     1      -2.019  11.929  17.461  0.00  0.00    +0.000 C 
ATOM     11  O   UNL     1      -1.334  11.255  19.674  0.00  0.00    +0.000 OA
ATOM     12  C   UNL     1      -0.477  10.393  20.295  0.00  0.00    +0.000 A 
ATOM     13  N   UNL     1      -0.401  10.303  21.626  0.00  0.00    +0.000 NA
ENDROOT
BRANCH   5  14
ATOM     14  C   UNL     1       2.470   6.609  19.472  0.00  0.00    +0.000 A 
ATOM     15  C   UNL     1       3.738   6.115  19.100  0.00  0.00    +0.000 A 
ATOM     16  C   UNL     1       4.207   4.849  19.490  0.00  0.00    +0.000 A 
ATOM     17  C   UNL     1       3.347   4.085  20.268  0.00  0.00    +0.000 A 
ATOM     18  O   UNL     1       3.605   2.836  20.744  0.00  0.00    +0.000 OA
ATOM     19  C   UNL     1       2.508   2.449  21.447  0.00  0.00    +0.000 A 
ATOM     20  C   UNL     1       1.549   3.435  21.431  0.00  0.00    +0.000 A 
ATOM     21  C   UNL     1       2.088   4.505  20.666  0.00  0.00    +0.000 A 
ATOM     22  C   UNL     1       1.647   5.779  20.268  0.00  0.00    +0.000 A 
ENDBRANCH   5  14
TORSDOF 1
ENDMDL
MODEL 8
REMARK VINA RESULT:      -6.8      2.760      3.653
REMARK  Name = 
REMARK  4 active torsions:
REMARK  status: ('A' for Active; 'I' for Inactive)
REMARK    1  A    between atoms: C_1  and  C_2
REMARK    2  A    between atoms: N_5  and  C_6
REMARK    3  A    between atoms: N_5  and  C_7
REMARK    4  A    between atoms: C_18  and  C_19
REMARK                            x       y       z     vdW  Elec       q    Type
REMARK                         _______ _______ _______ _____ _____    ______ ____
ROOT
ATOM      1  C   UNL     1       7.528   6.826  18.458  0.00  0.00    +0.000 C 
ATOM      2  C   UNL     1       7.091   5.973  17.306  0.00  0.00    +0.000 A 
ATOM      3  N   UNL     1       6.124   5.065  17.550  0.00  0.00    +0.000 NA
ATOM      4  C   UNL     1       5.650   4.239  16.565  0.00  0.00    +0.000 A 
ATOM      5  N   UNL     1       4.622   3.329  16.895  0.00  0.00    +0.000 N 
ATOM      6  C   UNL     1       4.605   2.026  16.235  0.00  0.00    +0.000 C 
ATOM      7  C   UNL     1       6.228   4.412  15.290  0.00  0.00    +0.000 A 
ATOM      8  C   UNL     1       6.064   3.883  13.976  0.00  0.00    +0.000 A 
ATOM      9  C   UNL     1       6.981   4.517  13.171  0.00  0.00    +0.000 A 
ATOM     10  C   UNL     1       7.324   4.397  11.741  0.00  0.00    +0.000 C 
ATOM     11  O   UNL     1       7.678   5.435  13.891  0.00  0.00    +0.000 OA
ATOM     12  C   UNL     1       7.218   5.382  15.174  0.00  0.00    +0.000 A 
ATOM     13  N   UNL     1       7.691   6.185  16.132  0.00  0.00    +0.000 NA
ENDROOT
BRANCH   5  14
ATOM     14  C   UNL     1       3.670   3.518  17.936  0.00  0.00    +0.000 A 
ATOM     15  C   UNL     1       2.611   4.445  17.838  0.00  0.00    +0.000 A 
ATOM     16  C   UNL     1       1.678   4.647  18.869  0.00  0.00    +0.000 A 
ATOM     17  C   UNL     1       1.850   3.884  20.016  0.00  0.00    +0.000 A 
ATOM     18  O   UNL     1       1.064   3.929  21.127  0.00  0.00    +0.000 OA
ATOM     19  C   UNL     1       1.580   3.034  22.010  0.00  0.00    +0.000 A 
ATOM     20  C   UNL     1       2.687   2.412  21.481  0.00  0.00    +0.000 A 
ATOM     21  C   UNL     1       2.869   2.958  20.182  0.00  0.00    +0.000 A 
ATOM     22  C   UNL     1       3.784   2.771  19.131  0.00  0.00    +0.000 A 
ENDBRANCH   5  14
TORSDOF 1
ENDMDL
MODEL 9
REMARK VINA RESULT:      -6.7      2.503      4.631
REMARK  Name = 
REMARK  4 active torsions:
REMARK  status: ('A' for Active; 'I' for Inactive)
REMARK    1  A    between atoms: C_1  and  C_2
REMARK    2  A    between atoms: N_5  and  C_6
REMARK    3  A    between atoms: N_5  and  C_7
REMARK    4  A    between atoms: C_18  and  C_19
REMARK                            x       y       z     vdW  Elec       q    Type
REMARK                         _______ _______ _______ _____ _____    ______ ____
ROOT
ATOM      1  C   UNL     1       6.350   3.517  15.200  0.00  0.00    +0.000 C 
ATOM      2  C   UNL     1       6.306   4.815  15.950  0.00  0.00    +0.000 A 
ATOM      3  N   UNL     1       5.179   5.083  16.641  0.00  0.00    +0.000 NA
ATOM      4  C   UNL     1       5.038   6.239  17.363  0.00  0.00    +0.000 A 
ATOM      5  N   UNL     1       3.836   6.437  18.076  0.00  0.00    +0.000 N 
ATOM      6  C   UNL     1       3.315   7.796  18.202  0.00  0.00    +0.000 C 
ATOM      7  C   UNL     1       6.146   7.111  17.345  0.00  0.00    +0.000 A 
ATOM      8  C   UNL     1       6.525   8.349  17.942  0.00  0.00    +0.000 A 
ATOM      9  C   UNL     1       7.787   8.647  17.484  0.00  0.00    +0.000 A 
ATOM     10  C   UNL     1       8.703   9.781  17.708  0.00  0.00    +0.000 C 
ATOM     11  O   UNL     1       8.234   7.654  16.669  0.00  0.00    +0.000 OA
ATOM     12  C   UNL     1       7.246   6.716  16.590  0.00  0.00    +0.000 A 
ATOM     13  N   UNL     1       7.387   5.594  15.877  0.00  0.00    +0.000 NA
ENDROOT
BRANCH   5  14
ATOM     14  C   UNL     1       2.999   5.396  18.568  0.00  0.00    +0.000 A 
ATOM     15  C   UNL     1       2.029   4.757  17.768  0.00  0.00    +0.000 A 
ATOM     16  C   UNL     1       1.190   3.740  18.254  0.00  0.00    +0.000 A 
ATOM     17  C   UNL     1       1.357   3.387  19.586  0.00  0.00    +0.000 A 
ATOM     18  O   UNL     1       0.646   2.435  20.251  0.00  0.00    +0.000 OA
ATOM     19  C   UNL     1       1.116   2.411  21.526  0.00  0.00    +0.000 A 
ATOM     20  C   UNL     1       2.123   3.335  21.689  0.00  0.00    +0.000 A 
ATOM     21  C   UNL     1       2.286   3.974  20.430  0.00  0.00    +0.000 A 
ATOM     22  C   UNL     1       3.117   4.985  19.916  0.00  0.00    +0.000 A 
ENDBRANCH   5  14
TORSDOF 1
ENDMDL
