MODEL 1
REMARK VINA RESULT:      -7.6      0.000      0.000
REMARK  Name = 
REMARK  7 active torsions:
REMARK  status: ('A' for Active; 'I' for Inactive)
REMARK    1  A    between atoms: C_1  and  O_2
REMARK    2  A    between atoms: O_2  and  C_3
REMARK    3  A    between atoms: C_8  and  C_9
REMARK    4  A    between atoms: C_9  and  N_10
REMARK    5  A    between atoms: N_10  and  C_11
REMARK    6  A    between atoms: C_16  and  C_17
REMARK    7  A    between atoms: C_22  and  C_23
REMARK                            x       y       z     vdW  Elec       q    Type
REMARK                         _______ _______ _______ _____ _____    ______ ____
ROOT
ATOM      1  C   UNL     1       3.681   6.520  18.003  0.00  0.00    +0.000 A 
ATOM      2  N   UNL     1       4.575   7.256  17.313  0.00  0.00    +0.000 NA
ATOM      3  C   UNL     1       5.847   6.849  17.293  0.00  0.00    +0.000 A 
ATOM      4  N   UNL     1       6.344   5.838  17.999  0.00  0.00    +0.000 NA
ATOM      5  C   UNL     1       5.432   5.139  18.704  0.00  0.00    +0.000 A 
ATOM      6  C   UNL     1       4.054   5.349  18.694  0.00  0.00    +0.000 A 
ENDROOT
BRANCH   6   7
ATOM      7  C   UNL     1       3.126   4.434  19.430  0.00  0.00    +0.000 A 
ATOM      8  C   UNL     1       2.749   4.775  20.753  0.00  0.00    +0.000 A 
ATOM      9  C   UNL     1       1.838   4.029  21.506  0.00  0.00    +0.000 A 
ATOM     10  C   UNL     1       1.293   2.871  20.978  0.00  0.00    +0.000 A 
ATOM     11  C   UNL     1       1.671   2.470  19.705  0.00  0.00    +0.000 A 
ATOM     12  C   UNL     1       2.569   3.228  18.909  0.00  0.00    +0.000 A 
BRANCH  12  13
ATOM     13  C   UNL     1       2.857   2.602  17.558  0.00  0.00    +0.000 C 
ATOM     14  F   UNL     1       4.138   2.198  17.338  0.00  0.00    +0.000 F 
ATOM     15  F   UNL     1       2.080   1.504  17.338  0.00  0.00    +0.000 F 
ATOM     16  F   UNL     1       2.584   3.453  16.523  0.00  0.00    +0.000 F 
ENDBRANCH  12  13
ENDBRANCH   6   7
BRANCH   1  17
ATOM     17  N   UNL     1       2.359   6.980  18.014  0.00  0.00    +0.000 N 
ATOM     18  H   UNL     1       1.758   6.475  17.378  0.00  0.00    +0.000 HD
BRANCH  17  19
ATOM     19  C   UNL     1       2.078   8.409  18.109  0.00  0.00    +0.000 C 
BRANCH  19  25
ATOM     20  C   UNL     1       0.336   9.818  19.362  0.00  0.00    +0.000 A 
ATOM     21  C   UNL     1      -0.373  10.081  20.543  0.00  0.00    +0.000 A 
ATOM     22  C   UNL     1      -0.026   9.457  21.741  0.00  0.00    +0.000 A 
ATOM     23  C   UNL     1       1.014   8.539  21.763  0.00  0.00    +0.000 A 
ATOM     24  C   UNL     1       1.679   8.223  20.581  0.00  0.00    +0.000 A 
ATOM     25  C   UNL     1       1.354   8.851  19.363  0.00  0.00    +0.000 A 
BRANCH  20  27
ATOM     26  C   UNL     1      -1.287  10.160  17.691  0.00  0.00    +0.000 C 
ATOM     27  O   UNL     1       0.033  10.428  18.169  0.00  0.00    +0.000 OA
ENDBRANCH  20  27
ENDBRANCH  19  25
ENDBRANCH  17  19
ENDBRANCH   1  17
TORSDOF 6
ENDMDL
MODEL 2
REMARK VINA RESULT:      -7.6      4.040      6.968
REMARK  Name = 
REMARK  7 active torsions:
REMARK  status: ('A' for Active; 'I' for Inactive)
REMARK    1  A    between atoms: C_1  and  O_2
REMARK    2  A    between atoms: O_2  and  C_3
REMARK    3  A    between atoms: C_8  and  C_9
REMARK    4  A    between atoms: C_9  and  N_10
REMARK    5  A    between atoms: N_10  and  C_11
REMARK    6  A    between atoms: C_16  and  C_17
REMARK    7  A    between atoms: C_22  and  C_23
REMARK                            x       y       z     vdW  Elec       q    Type
REMARK                         _______ _______ _______ _____ _____    ______ ____
ROOT
ATOM      1  C   UNL     1       6.343   4.311  17.468  0.00  0.00    +0.000 A 
ATOM      2  N   UNL     1       7.619   4.729  17.579  0.00  0.00    +0.000 NA
ATOM      3  C   UNL     1       8.013   5.252  18.744  0.00  0.00    +0.000 A 
ATOM      4  N   UNL     1       7.220   5.514  19.779  0.00  0.00    +0.000 NA
ATOM      5  C   UNL     1       5.942   5.113  19.628  0.00  0.00    +0.000 A 
ATOM      6  C   UNL     1       5.428   4.413  18.537  0.00  0.00    +0.000 A 
ENDROOT
BRANCH   6   7
ATOM      7  C   UNL     1       4.015   3.918  18.531  0.00  0.00    +0.000 A 
ATOM      8  C   UNL     1       3.786   2.530  18.698  0.00  0.00    +0.000 A 
ATOM      9  C   UNL     1       2.507   1.969  18.774  0.00  0.00    +0.000 A 
ATOM     10  C   UNL     1       1.392   2.777  18.640  0.00  0.00    +0.000 A 
ATOM     11  C   UNL     1       1.568   4.136  18.423  0.00  0.00    +0.000 A 
ATOM     12  C   UNL     1       2.855   4.733  18.374  0.00  0.00    +0.000 A 
BRANCH  12  13
ATOM     13  C   UNL     1       2.820   6.227  18.115  0.00  0.00    +0.000 C 
ATOM     14  F   UNL     1       3.752   6.713  17.251  0.00  0.00    +0.000 F 
ATOM     15  F   UNL     1       1.613   6.621  17.618  0.00  0.00    +0.000 F 
ATOM     16  F   UNL     1       2.998   6.957  19.257  0.00  0.00    +0.000 F 
ENDBRANCH  12  13
ENDBRANCH   6   7
BRANCH   1  17
ATOM     17  N   UNL     1       5.959   3.778  16.232  0.00  0.00    +0.000 N 
ATOM     18  H   UNL     1       6.547   3.014  15.930  0.00  0.00    +0.000 HD
BRANCH  17  19
ATOM     19  C   UNL     1       5.508   4.659  15.160  0.00  0.00    +0.000 C 
BRANCH  19  25
ATOM     20  C   UNL     1       7.044   4.574  13.104  0.00  0.00    +0.000 A 
ATOM     21  C   UNL     1       7.349   4.016  11.854  0.00  0.00    +0.000 A 
ATOM     22  C   UNL     1       6.450   3.167  11.209  0.00  0.00    +0.000 A 
ATOM     23  C   UNL     1       5.248   2.844  11.822  0.00  0.00    +0.000 A 
ATOM     24  C   UNL     1       4.967   3.341  13.093  0.00  0.00    +0.000 A 
ATOM     25  C   UNL     1       5.854   4.210  13.756  0.00  0.00    +0.000 A 
BRANCH  20  27
ATOM     26  C   UNL     1       8.889   6.024  12.921  0.00  0.00    +0.000 C 
ATOM     27  O   UNL     1       7.898   5.427  13.759  0.00  0.00    +0.000 OA
ENDBRANCH  20  27
ENDBRANCH  19  25
ENDBRANCH  17  19
ENDBRANCH   1  17
TORSDOF 6
ENDMDL
MODEL 3
REMARK VINA RESULT:      -7.6      2.282      4.077
REMARK  Name = 
REMARK  7 active torsions:
REMARK  status: ('A' for Active; 'I' for Inactive)
REMARK    1  A    between atoms: C_1  and  O_2
REMARK    2  A    between atoms: O_2  and  C_3
REMARK    3  A    between atoms: C_8  and  C_9
REMARK    4  A    between atoms: C_9  and  N_10
REMARK    5  A    between atoms: N_10  and  C_11
REMARK    6  A    between atoms: C_16  and  C_17
REMARK    7  A    between atoms: C_22  and  C_23
REMARK                            x       y       z     vdW  Elec       q    Type
REMARK                         _______ _______ _______ _____ _____    ______ ____
ROOT
ATOM      1  C   UNL     1       2.642   4.550  18.199  0.00  0.00    +0.000 A 
ATOM      2  N   UNL     1       1.482   3.868  18.276  0.00  0.00    +0.000 NA
ATOM      3  C   UNL     1       1.536   2.533  18.321  0.00  0.00    +0.000 A 
ATOM      4  N   UNL     1       2.636   1.801  18.172  0.00  0.00    +0.000 NA
ATOM      5  C   UNL     1       3.777   2.510  18.065  0.00  0.00    +0.000 A 
ATOM      6  C   UNL     1       3.891   3.897  18.163  0.00  0.00    +0.000 A 
ENDROOT
BRANCH   6   7
ATOM      7  C   UNL     1       5.229   4.567  18.143  0.00  0.00    +0.000 A 
ATOM      8  C   UNL     1       5.750   5.070  19.362  0.00  0.00    +0.000 A 
ATOM      9  C   UNL     1       7.016   5.653  19.471  0.00  0.00    +0.000 A 
ATOM     10  C   UNL     1       7.805   5.800  18.344  0.00  0.00    +0.000 A 
ATOM     11  C   UNL     1       7.316   5.369  17.119  0.00  0.00    +0.000 A 
ATOM     12  C   UNL     1       6.048   4.745  16.989  0.00  0.00    +0.000 A 
BRANCH  12  13
ATOM     13  C   UNL     1       5.704   4.364  15.562  0.00  0.00    +0.000 C 
ATOM     14  F   UNL     1       6.284   5.107  14.581  0.00  0.00    +0.000 F 
ATOM     15  F   UNL     1       6.039   3.070  15.294  0.00  0.00    +0.000 F 
ATOM     16  F   UNL     1       4.363   4.451  15.310  0.00  0.00    +0.000 F 
ENDBRANCH  12  13
ENDBRANCH   6   7
BRANCH   1  17
ATOM     17  N   UNL     1       2.550   5.945  18.142  0.00  0.00    +0.000 N 
ATOM     18  H   UNL     1       3.167   6.356  17.455  0.00  0.00    +0.000 HD
BRANCH  17  19
ATOM     19  C   UNL     1       2.402   6.724  19.367  0.00  0.00    +0.000 C 
BRANCH  19  25
ATOM     20  C   UNL     1       1.166   8.831  20.157  0.00  0.00    +0.000 A 
ATOM     21  C   UNL     1       0.856  10.185  19.966  0.00  0.00    +0.000 A 
ATOM     22  C   UNL     1       1.205  10.840  18.784  0.00  0.00    +0.000 A 
ATOM     23  C   UNL     1       1.895  10.155  17.796  0.00  0.00    +0.000 A 
ATOM     24  C   UNL     1       2.265   8.829  18.006  0.00  0.00    +0.000 A 
ATOM     25  C   UNL     1       1.911   8.144  19.184  0.00  0.00    +0.000 A 
BRANCH  20  27
ATOM     26  C   UNL     1      -0.247   8.744  22.037  0.00  0.00    +0.000 C 
ATOM     27  O   UNL     1       0.822   8.150  21.299  0.00  0.00    +0.000 OA
ENDBRANCH  20  27
ENDBRANCH  19  25
ENDBRANCH  17  19
ENDBRANCH   1  17
TORSDOF 6
ENDMDL
MODEL 4
REMARK VINA RESULT:      -7.6      2.279      4.319
REMARK  Name = 
REMARK  7 active torsions:
REMARK  status: ('A' for Active; 'I' for Inactive)
REMARK    1  A    between atoms: C_1  and  O_2
REMARK    2  A    between atoms: O_2  and  C_3
REMARK    3  A    between atoms: C_8  and  C_9
REMARK    4  A    between atoms: C_9  and  N_10
REMARK    5  A    between atoms: N_10  and  C_11
REMARK    6  A    between atoms: C_16  and  C_17
REMARK    7  A    between atoms: C_22  and  C_23
REMARK                            x       y       z     vdW  Elec       q    Type
REMARK                         _______ _______ _______ _____ _____    ______ ____
ROOT
ATOM      1  C   UNL     1       3.501   4.413  19.676  0.00  0.00    +0.000 A 
ATOM      2  N   UNL     1       2.557   3.482  19.922  0.00  0.00    +0.000 NA
ATOM      3  C   UNL     1       2.668   2.295  19.317  0.00  0.00    +0.000 A 
ATOM      4  N   UNL     1       3.568   1.985  18.389  0.00  0.00    +0.000 NA
ATOM      5  C   UNL     1       4.480   2.946  18.141  0.00  0.00    +0.000 A 
ATOM      6  C   UNL     1       4.583   4.166  18.807  0.00  0.00    +0.000 A 
ENDROOT
BRANCH   6   7
ATOM      7  C   UNL     1       5.711   5.109  18.524  0.00  0.00    +0.000 A 
ATOM      8  C   UNL     1       6.713   5.279  19.511  0.00  0.00    +0.000 A 
ATOM      9  C   UNL     1       7.843   6.082  19.326  0.00  0.00    +0.000 A 
ATOM     10  C   UNL     1       7.996   6.792  18.148  0.00  0.00    +0.000 A 
ATOM     11  C   UNL     1       7.015   6.697  17.173  0.00  0.00    +0.000 A 
ATOM     12  C   UNL     1       5.876   5.864  17.325  0.00  0.00    +0.000 A 
BRANCH  12  13
ATOM     13  C   UNL     1       4.923   5.919  16.146  0.00  0.00    +0.000 C 
ATOM     14  F   UNL     1       5.170   5.052  15.127  0.00  0.00    +0.000 F 
ATOM     15  F   UNL     1       3.637   5.684  16.529  0.00  0.00    +0.000 F 
ATOM     16  F   UNL     1       4.905   7.150  15.551  0.00  0.00    +0.000 F 
ENDBRANCH  12  13
ENDBRANCH   6   7
BRANCH   1  17
ATOM     17  N   UNL     1       3.349   5.648  20.315  0.00  0.00    +0.000 N 
ATOM     18  H   UNL     1       3.959   5.759  21.114  0.00  0.00    +0.000 HD
BRANCH  17  19
ATOM     19  C   UNL     1       2.023   6.235  20.478  0.00  0.00    +0.000 C 
BRANCH  19  25
ATOM     20  C   UNL     1       1.120   8.634  20.329  0.00  0.00    +0.000 A 
ATOM     21  C   UNL     1       1.059   9.855  19.642  0.00  0.00    +0.000 A 
ATOM     22  C   UNL     1       1.587   9.981  18.357  0.00  0.00    +0.000 A 
ATOM     23  C   UNL     1       2.209   8.895  17.759  0.00  0.00    +0.000 A 
ATOM     24  C   UNL     1       2.332   7.699  18.461  0.00  0.00    +0.000 A 
ATOM     25  C   UNL     1       1.795   7.544  19.754  0.00  0.00    +0.000 A 
BRANCH  20  27
ATOM     26  C   UNL     1       0.345   9.691  22.284  0.00  0.00    +0.000 C 
ATOM     27  O   UNL     1       0.595   8.469  21.588  0.00  0.00    +0.000 OA
ENDBRANCH  20  27
ENDBRANCH  19  25
ENDBRANCH  17  19
ENDBRANCH   1  17
TORSDOF 6
ENDMDL
MODEL 5
REMARK VINA RESULT:      -7.6      2.175      3.933
REMARK  Name = 
REMARK  7 active torsions:
REMARK  status: ('A' for Active; 'I' for Inactive)
REMARK    1  A    between atoms: C_1  and  O_2
REMARK    2  A    between atoms: O_2  and  C_3
REMARK    3  A    between atoms: C_8  and  C_9
REMARK    4  A    between atoms: C_9  and  N_10
REMARK    5  A    between atoms: N_10  and  C_11
REMARK    6  A    between atoms: C_16  and  C_17
REMARK    7  A    between atoms: C_22  and  C_23
REMARK                            x       y       z     vdW  Elec       q    Type
REMARK                         _______ _______ _______ _____ _____    ______ ____
ROOT
ATOM      1  C   UNL     1       2.679   4.957  18.114  0.00  0.00    +0.000 A 
ATOM      2  N   UNL     1       1.526   4.259  18.129  0.00  0.00    +0.000 NA
ATOM      3  C   UNL     1       1.593   2.927  18.061  0.00  0.00    +0.000 A 
ATOM      4  N   UNL     1       2.701   2.221  17.855  0.00  0.00    +0.000 NA
ATOM      5  C   UNL     1       3.835   2.947  17.812  0.00  0.00    +0.000 A 
ATOM      6  C   UNL     1       3.934   4.321  18.027  0.00  0.00    +0.000 A 
ENDROOT
BRANCH   6   7
ATOM      7  C   UNL     1       5.266   5.004  18.069  0.00  0.00    +0.000 A 
ATOM      8  C   UNL     1       5.906   5.159  19.324  0.00  0.00    +0.000 A 
ATOM      9  C   UNL     1       7.178   5.720  19.471  0.00  0.00    +0.000 A 
ATOM     10  C   UNL     1       7.852   6.197  18.360  0.00  0.00    +0.000 A 
ATOM     11  C   UNL     1       7.244   6.113  17.117  0.00  0.00    +0.000 A 
ATOM     12  C   UNL     1       5.968   5.518  16.938  0.00  0.00    +0.000 A 
BRANCH  12  13
ATOM     13  C   UNL     1       5.484   5.543  15.501  0.00  0.00    +0.000 C 
ATOM     14  F   UNL     1       4.658   4.530  15.123  0.00  0.00    +0.000 F 
ATOM     15  F   UNL     1       4.811   6.695  15.219  0.00  0.00    +0.000 F 
ATOM     16  F   UNL     1       6.515   5.497  14.605  0.00  0.00    +0.000 F 
ENDBRANCH  12  13
ENDBRANCH   6   7
BRANCH   1  17
ATOM     17  N   UNL     1       2.573   6.351  18.175  0.00  0.00    +0.000 N 
ATOM     18  H   UNL     1       2.912   6.812  17.342  0.00  0.00    +0.000 HD
BRANCH  17  19
ATOM     19  C   UNL     1       2.863   7.057  19.419  0.00  0.00    +0.000 C 
BRANCH  19  25
ATOM     20  C   UNL     1       1.394   9.150  19.185  0.00  0.00    +0.000 A 
ATOM     21  C   UNL     1       0.302   9.908  19.631  0.00  0.00    +0.000 A 
ATOM     22  C   UNL     1      -0.352   9.590  20.822  0.00  0.00    +0.000 A 
ATOM     23  C   UNL     1       0.061   8.492  21.562  0.00  0.00    +0.000 A 
ATOM     24  C   UNL     1       1.101   7.695  21.091  0.00  0.00    +0.000 A 
ATOM     25  C   UNL     1       1.784   8.005  19.899  0.00  0.00    +0.000 A 
BRANCH  20  27
ATOM     26  C   UNL     1       2.303  10.839  17.820  0.00  0.00    +0.000 C 
ATOM     27  O   UNL     1       2.072   9.445  18.027  0.00  0.00    +0.000 OA
ENDBRANCH  20  27
ENDBRANCH  19  25
ENDBRANCH  17  19
ENDBRANCH   1  17
TORSDOF 6
ENDMDL
MODEL 6
REMARK VINA RESULT:      -7.5      2.290      4.352
REMARK  Name = 
REMARK  7 active torsions:
REMARK  status: ('A' for Active; 'I' for Inactive)
REMARK    1  A    between atoms: C_1  and  O_2
REMARK    2  A    between atoms: O_2  and  C_3
REMARK    3  A    between atoms: C_8  and  C_9
REMARK    4  A    between atoms: C_9  and  N_10
REMARK    5  A    between atoms: N_10  and  C_11
REMARK    6  A    between atoms: C_16  and  C_17
REMARK    7  A    between atoms: C_22  and  C_23
REMARK                            x       y       z     vdW  Elec       q    Type
REMARK                         _______ _______ _______ _____ _____    ______ ____
ROOT
ATOM      1  C   UNL     1       3.332   5.073  19.857  0.00  0.00    +0.000 A 
ATOM      2  N   UNL     1       2.365   4.253  20.315  0.00  0.00    +0.000 NA
ATOM      3  C   UNL     1       2.569   2.935  20.244  0.00  0.00    +0.000 A 
ATOM      4  N   UNL     1       3.599   2.345  19.645  0.00  0.00    +0.000 NA
ATOM      5  C   UNL     1       4.534   3.190  19.168  0.00  0.00    +0.000 A 
ATOM      6  C   UNL     1       4.534   4.577  19.312  0.00  0.00    +0.000 A 
ENDROOT
BRANCH   6   7
ATOM      7  C   UNL     1       5.689   5.404  18.841  0.00  0.00    +0.000 A 
ATOM      8  C   UNL     1       6.858   5.449  19.640  0.00  0.00    +0.000 A 
ATOM      9  C   UNL     1       8.017   6.135  19.264  0.00  0.00    +0.000 A 
ATOM     10  C   UNL     1       8.039   6.851  18.080  0.00  0.00    +0.000 A 
ATOM     11  C   UNL     1       6.901   6.878  17.289  0.00  0.00    +0.000 A 
ATOM     12  C   UNL     1       5.724   6.163  17.633  0.00  0.00    +0.000 A 
BRANCH  12  13
ATOM     13  C   UNL     1       4.594   6.341  16.637  0.00  0.00    +0.000 C 
ATOM     14  F   UNL     1       3.630   7.242  16.971  0.00  0.00    +0.000 F 
ATOM     15  F   UNL     1       5.058   6.730  15.417  0.00  0.00    +0.000 F 
ATOM     16  F   UNL     1       3.912   5.178  16.412  0.00  0.00    +0.000 F 
ENDBRANCH  12  13
ENDBRANCH   6   7
BRANCH   1  17
ATOM     17  N   UNL     1       3.083   6.448  19.936  0.00  0.00    +0.000 N 
ATOM     18  H   UNL     1       3.904   6.987  20.174  0.00  0.00    +0.000 HD
BRANCH  17  19
ATOM     19  C   UNL     1       1.842   6.938  20.527  0.00  0.00    +0.000 C 
BRANCH  19  25
ATOM     20  C   UNL     1       0.944   9.284  21.056  0.00  0.00    +0.000 A 
ATOM     21  C   UNL     1       0.718  10.606  20.644  0.00  0.00    +0.000 A 
ATOM     22  C   UNL     1       0.902  10.983  19.313  0.00  0.00    +0.000 A 
ATOM     23  C   UNL     1       1.345  10.050  18.388  0.00  0.00    +0.000 A 
ATOM     24  C   UNL     1       1.636   8.752  18.804  0.00  0.00    +0.000 A 
ATOM     25  C   UNL     1       1.445   8.346  20.138  0.00  0.00    +0.000 A 
BRANCH  20  27
ATOM     26  C   UNL     1      -0.207   9.642  23.078  0.00  0.00    +0.000 C 
ATOM     27  O   UNL     1       0.755   8.874  22.353  0.00  0.00    +0.000 OA
ENDBRANCH  20  27
ENDBRANCH  19  25
ENDBRANCH  17  19
ENDBRANCH   1  17
TORSDOF 6
ENDMDL
MODEL 7
REMARK VINA RESULT:      -7.4      4.012      6.829
REMARK  Name = 
REMARK  7 active torsions:
REMARK  status: ('A' for Active; 'I' for Inactive)
REMARK    1  A    between atoms: C_1  and  O_2
REMARK    2  A    between atoms: O_2  and  C_3
REMARK    3  A    between atoms: C_8  and  C_9
REMARK    4  A    between atoms: C_9  and  N_10
REMARK    5  A    between atoms: N_10  and  C_11
REMARK    6  A    between atoms: C_16  and  C_17
REMARK    7  A    between atoms: C_22  and  C_23
REMARK                            x       y       z     vdW  Elec       q    Type
REMARK                         _______ _______ _______ _____ _____    ______ ____
ROOT
ATOM      1  C   UNL     1       6.279   4.130  17.468  0.00  0.00    +0.000 A 
ATOM      2  N   UNL     1       7.559   4.531  17.592  0.00  0.00    +0.000 NA
ATOM      3  C   UNL     1       7.916   5.166  18.713  0.00  0.00    +0.000 A 
ATOM      4  N   UNL     1       7.086   5.551  19.677  0.00  0.00    +0.000 NA
ATOM      5  C   UNL     1       5.806   5.163  19.511  0.00  0.00    +0.000 A 
ATOM      6  C   UNL     1       5.322   4.363  18.477  0.00  0.00    +0.000 A 
ENDROOT
BRANCH   6   7
ATOM      7  C   UNL     1       3.899   3.899  18.459  0.00  0.00    +0.000 A 
ATOM      8  C   UNL     1       3.638   2.514  18.603  0.00  0.00    +0.000 A 
ATOM      9  C   UNL     1       2.348   1.980  18.666  0.00  0.00    +0.000 A 
ATOM     10  C   UNL     1       1.251   2.814  18.541  0.00  0.00    +0.000 A 
ATOM     11  C   UNL     1       1.457   4.172  18.347  0.00  0.00    +0.000 A 
ATOM     12  C   UNL     1       2.757   4.741  18.312  0.00  0.00    +0.000 A 
BRANCH  12  13
ATOM     13  C   UNL     1       2.755   6.239  18.076  0.00  0.00    +0.000 C 
ATOM     14  F   UNL     1       3.701   6.719  17.223  0.00  0.00    +0.000 F 
ATOM     15  F   UNL     1       1.560   6.668  17.582  0.00  0.00    +0.000 F 
ATOM     16  F   UNL     1       2.945   6.947  19.231  0.00  0.00    +0.000 F 
ENDBRANCH  12  13
ENDBRANCH   6   7
BRANCH   1  17
ATOM     17  N   UNL     1       5.935   3.478  16.278  0.00  0.00    +0.000 N 
ATOM     18  H   UNL     1       6.607   2.775  16.003  0.00  0.00    +0.000 HD
BRANCH  17  19
ATOM     19  C   UNL     1       5.352   4.228  15.170  0.00  0.00    +0.000 C 
BRANCH  19  25
ATOM     20  C   UNL     1       6.003   3.844  12.716  0.00  0.00    +0.000 A 
ATOM     21  C   UNL     1       6.815   4.177  11.622  0.00  0.00    +0.000 A 
ATOM     22  C   UNL     1       7.920   5.014  11.777  0.00  0.00    +0.000 A 
ATOM     23  C   UNL     1       8.206   5.552  13.023  0.00  0.00    +0.000 A 
ATOM     24  C   UNL     1       7.366   5.280  14.101  0.00  0.00    +0.000 A 
ATOM     25  C   UNL     1       6.253   4.426  13.970  0.00  0.00    +0.000 A 
BRANCH  20  27
ATOM     26  C   UNL     1       4.237   3.099  11.351  0.00  0.00    +0.000 C 
ATOM     27  O   UNL     1       4.919   3.009  12.603  0.00  0.00    +0.000 OA
ENDBRANCH  20  27
ENDBRANCH  19  25
ENDBRANCH  17  19
ENDBRANCH   1  17
TORSDOF 6
ENDMDL
MODEL 8
REMARK VINA RESULT:      -7.3      2.509      4.525
REMARK  Name = 
REMARK  7 active torsions:
REMARK  status: ('A' for Active; 'I' for Inactive)
REMARK    1  A    between atoms: C_1  and  O_2
REMARK    2  A    between atoms: O_2  and  C_3
REMARK    3  A    between atoms: C_8  and  C_9
REMARK    4  A    between atoms: C_9  and  N_10
REMARK    5  A    between atoms: N_10  and  C_11
REMARK    6  A    between atoms: C_16  and  C_17
REMARK    7  A    between atoms: C_22  and  C_23
REMARK                            x       y       z     vdW  Elec       q    Type
REMARK                         _______ _______ _______ _____ _____    ______ ____
ROOT
ATOM      1  C   UNL     1       2.478   4.588  18.192  0.00  0.00    +0.000 A 
ATOM      2  N   UNL     1       1.401   4.067  18.813  0.00  0.00    +0.000 NA
ATOM      3  C   UNL     1       1.274   2.737  18.846  0.00  0.00    +0.000 A 
ATOM      4  N   UNL     1       2.057   1.872  18.209  0.00  0.00    +0.000 NA
ATOM      5  C   UNL     1       3.107   2.424  17.570  0.00  0.00    +0.000 A 
ATOM      6  C   UNL     1       3.456   3.774  17.584  0.00  0.00    +0.000 A 
ENDROOT
BRANCH   6   7
ATOM      7  C   UNL     1       4.714   4.256  16.931  0.00  0.00    +0.000 A 
ATOM      8  C   UNL     1       4.809   4.190  15.519  0.00  0.00    +0.000 A 
ATOM      9  C   UNL     1       5.908   4.672  14.802  0.00  0.00    +0.000 A 
ATOM     10  C   UNL     1       6.990   5.206  15.479  0.00  0.00    +0.000 A 
ATOM     11  C   UNL     1       6.964   5.245  16.865  0.00  0.00    +0.000 A 
ATOM     12  C   UNL     1       5.846   4.791  17.613  0.00  0.00    +0.000 A 
BRANCH  12  13
ATOM     13  C   UNL     1       6.032   4.911  19.113  0.00  0.00    +0.000 C 
ATOM     14  F   UNL     1       7.288   5.206  19.546  0.00  0.00    +0.000 F 
ATOM     15  F   UNL     1       5.223   5.871  19.644  0.00  0.00    +0.000 F 
ATOM     16  F   UNL     1       5.706   3.757  19.771  0.00  0.00    +0.000 F 
ENDBRANCH  12  13
ENDBRANCH   6   7
BRANCH   1  17
ATOM     17  N   UNL     1       2.576   5.984  18.165  0.00  0.00    +0.000 N 
ATOM     18  H   UNL     1       3.320   6.318  17.568  0.00  0.00    +0.000 HD
BRANCH  17  19
ATOM     19  C   UNL     1       2.384   6.759  19.387  0.00  0.00    +0.000 C 
BRANCH  19  25
ATOM     20  C   UNL     1       1.162   8.877  20.168  0.00  0.00    +0.000 A 
ATOM     21  C   UNL     1       0.847  10.228  19.961  0.00  0.00    +0.000 A 
ATOM     22  C   UNL     1       1.172  10.864  18.763  0.00  0.00    +0.000 A 
ATOM     23  C   UNL     1       1.842  10.164  17.772  0.00  0.00    +0.000 A 
ATOM     24  C   UNL     1       2.217   8.841  17.995  0.00  0.00    +0.000 A 
ATOM     25  C   UNL     1       1.889   8.175  19.192  0.00  0.00    +0.000 A 
BRANCH  20  27
ATOM     26  C   UNL     1      -0.317   8.720  21.992  0.00  0.00    +0.000 C 
ATOM     27  O   UNL     1       0.842   8.214  21.327  0.00  0.00    +0.000 OA
ENDBRANCH  20  27
ENDBRANCH  19  25
ENDBRANCH  17  19
ENDBRANCH   1  17
TORSDOF 6
ENDMDL
MODEL 9
REMARK VINA RESULT:      -7.2      2.618      5.537
REMARK  Name = 
REMARK  7 active torsions:
REMARK  status: ('A' for Active; 'I' for Inactive)
REMARK    1  A    between atoms: C_1  and  O_2
REMARK    2  A    between atoms: O_2  and  C_3
REMARK    3  A    between atoms: C_8  and  C_9
REMARK    4  A    between atoms: C_9  and  N_10
REMARK    5  A    between atoms: N_10  and  C_11
REMARK    6  A    between atoms: C_16  and  C_17
REMARK    7  A    between atoms: C_22  and  C_23
REMARK                            x       y       z     vdW  Elec       q    Type
REMARK                         _______ _______ _______ _____ _____    ______ ____
ROOT
ATOM      1  C   UNL     1       2.600   7.084  18.704  0.00  0.00    +0.000 A 
ATOM      2  N   UNL     1       2.074   8.293  18.987  0.00  0.00    +0.000 NA
ATOM      3  C   UNL     1       1.513   8.472  20.186  0.00  0.00    +0.000 A 
ATOM      4  N   UNL     1       1.312   7.521  21.093  0.00  0.00    +0.000 NA
ATOM      5  C   UNL     1       1.820   6.315  20.770  0.00  0.00    +0.000 A 
ATOM      6  C   UNL     1       2.568   6.022  19.630  0.00  0.00    +0.000 A 
ENDROOT
BRANCH   6   7
ATOM      7  C   UNL     1       3.181   4.670  19.433  0.00  0.00    +0.000 A 
ATOM      8  C   UNL     1       4.572   4.520  19.656  0.00  0.00    +0.000 A 
ATOM      9  C   UNL     1       5.234   3.292  19.566  0.00  0.00    +0.000 A 
ATOM     10  C   UNL     1       4.533   2.157  19.201  0.00  0.00    +0.000 A 
ATOM     11  C   UNL     1       3.178   2.264  18.923  0.00  0.00    +0.000 A 
ATOM     12  C   UNL     1       2.477   3.493  19.039  0.00  0.00    +0.000 A 
BRANCH  12  13
ATOM     13  C   UNL     1       1.008   3.390  18.676  0.00  0.00    +0.000 C 
ATOM     14  F   UNL     1       0.591   4.142  17.622  0.00  0.00    +0.000 F 
ATOM     15  F   UNL     1       0.655   2.107  18.379  0.00  0.00    +0.000 F 
ATOM     16  F   UNL     1       0.191   3.762  19.707  0.00  0.00    +0.000 F 
ENDBRANCH  12  13
ENDBRANCH   6   7
BRANCH   1  17
ATOM     17  N   UNL     1       3.170   6.926  17.436  0.00  0.00    +0.000 N 
ATOM     18  H   UNL     1       2.836   6.106  16.950  0.00  0.00    +0.000 HD
BRANCH  17  19
ATOM     19  C   UNL     1       4.583   7.225  17.223  0.00  0.00    +0.000 C 
BRANCH  19  25
ATOM     20  C   UNL     1       6.747   5.855  17.040  0.00  0.00    +0.000 A 
ATOM     21  C   UNL     1       7.408   4.710  16.575  0.00  0.00    +0.000 A 
ATOM     22  C   UNL     1       6.790   3.840  15.676  0.00  0.00    +0.000 A 
ATOM     23  C   UNL     1       5.492   4.092  15.258  0.00  0.00    +0.000 A 
ATOM     24  C   UNL     1       4.805   5.191  15.767  0.00  0.00    +0.000 A 
ATOM     25  C   UNL     1       5.413   6.089  16.665  0.00  0.00    +0.000 A 
BRANCH  20  27
ATOM     26  C   UNL     1       7.891   6.136  19.078  0.00  0.00    +0.000 C 
ATOM     27  O   UNL     1       7.331   6.741  17.912  0.00  0.00    +0.000 OA
ENDBRANCH  20  27
ENDBRANCH  19  25
ENDBRANCH  17  19
ENDBRANCH   1  17
TORSDOF 6
ENDMDL
