MODEL 1
REMARK VINA RESULT:      -6.8      0.000      0.000
REMARK  Name = 
REMARK  3 active torsions:
REMARK  status: ('A' for Active; 'I' for Inactive)
REMARK    1  A    between atoms: N_2  and  C_4
REMARK    2  A    between atoms: C_7  and  C_8
REMARK    3  A    between atoms: N_9  and  N_10
REMARK                            x       y       z     vdW  Elec       q    Type
REMARK                         _______ _______ _______ _____ _____    ______ ____
ROOT
ATOM      1  C   UNL     1       3.488   4.621  17.465  0.00  0.00    +0.000 C 
ATOM      2  N   UNL     1       4.704   4.182  17.374  0.00  0.00    +0.000 NA
ENDROOT
BRANCH   2   3
ATOM      3  N   UNL     1       5.574   4.829  16.543  0.00  0.00    +0.000 N 
ATOM      4  C   UNL     1       5.540   4.525  15.126  0.00  0.00    +0.000 C 
ATOM      5  C   UNL     1       6.955   4.810  14.652  0.00  0.00    +0.000 C 
ATOM      6  N   UNL     1       7.511   5.640  15.688  0.00  0.00    +0.000 N 
ATOM      7  C   UNL     1       6.798   5.458  16.879  0.00  0.00    +0.000 C 
ATOM      8  S   UNL     1       7.446   5.888  18.342  0.00  0.00    +0.000 S 
ATOM      9  H   UNL     1       8.485   5.920  15.730  0.00  0.00    +0.000 HD
ENDBRANCH   2   3
BRANCH   1  13
ATOM     10  C   UNL     1       1.970   3.029  20.247  0.00  0.00    +0.000 A 
ATOM     11  C   UNL     1       0.863   2.974  19.436  0.00  0.00    +0.000 A 
ATOM     12  C   UNL     1       1.257   3.593  18.225  0.00  0.00    +0.000 A 
ATOM     13  C   UNL     1       2.580   3.975  18.374  0.00  0.00    +0.000 A 
ATOM     14  O   UNL     1       3.021   3.637  19.628  0.00  0.00    +0.000 OA
BRANCH  10  16
ATOM     15  O   UNL     1       1.182   2.520  22.311  0.00  0.00    +0.000 OA
ATOM     16  N   UNL     1       2.182   2.562  21.581  0.00  0.00    +0.000 N 
ATOM     17  O   UNL     1       3.332   2.242  21.905  0.00  0.00    +0.000 OA
ENDBRANCH  10  16
ENDBRANCH   1  13
TORSDOF 3
ENDMDL
MODEL 2
REMARK VINA RESULT:      -6.6      1.007      1.030
REMARK  Name = 
REMARK  3 active torsions:
REMARK  status: ('A' for Active; 'I' for Inactive)
REMARK    1  A    between atoms: N_2  and  C_4
REMARK    2  A    between atoms: C_7  and  C_8
REMARK    3  A    between atoms: N_9  and  N_10
REMARK                            x       y       z     vdW  Elec       q    Type
REMARK                         _______ _______ _______ _____ _____    ______ ____
ROOT
ATOM      1  C   UNL     1       4.279   3.504  17.152  0.00  0.00    +0.000 C 
ATOM      2  N   UNL     1       4.579   4.763  17.088  0.00  0.00    +0.000 NA
ENDROOT
BRANCH   2   3
ATOM      3  N   UNL     1       5.513   5.168  16.178  0.00  0.00    +0.000 N 
ATOM      4  C   UNL     1       5.526   4.548  14.868  0.00  0.00    +0.000 C 
ATOM      5  C   UNL     1       6.972   4.664  14.416  0.00  0.00    +0.000 C 
ATOM      6  N   UNL     1       7.522   5.688  15.264  0.00  0.00    +0.000 N 
ATOM      7  C   UNL     1       6.751   5.812  16.425  0.00  0.00    +0.000 C 
ATOM      8  S   UNL     1       7.356   6.543  17.784  0.00  0.00    +0.000 S 
ATOM      9  H   UNL     1       8.505   5.934  15.292  0.00  0.00    +0.000 HD
ENDBRANCH   2   3
BRANCH   1  13
ATOM     10  C   UNL     1       2.219   2.987  19.992  0.00  0.00    +0.000 A 
ATOM     11  C   UNL     1       1.534   2.128  19.168  0.00  0.00    +0.000 A 
ATOM     12  C   UNL     1       2.206   2.192  17.923  0.00  0.00    +0.000 A 
ATOM     13  C   UNL     1       3.261   3.076  18.074  0.00  0.00    +0.000 A 
ATOM     14  O   UNL     1       3.265   3.578  19.351  0.00  0.00    +0.000 OA
BRANCH  10  16
ATOM     15  O   UNL     1       1.572   2.442  22.096  0.00  0.00    +0.000 OA
ATOM     16  N   UNL     1       2.014   3.337  21.363  0.00  0.00    +0.000 N 
ATOM     17  O   UNL     1       2.287   4.492  21.711  0.00  0.00    +0.000 OA
ENDBRANCH  10  16
ENDBRANCH   1  13
TORSDOF 3
ENDMDL
MODEL 3
REMARK VINA RESULT:      -6.5      1.162      1.482
REMARK  Name = 
REMARK  3 active torsions:
REMARK  status: ('A' for Active; 'I' for Inactive)
REMARK    1  A    between atoms: N_2  and  C_4
REMARK    2  A    between atoms: C_7  and  C_8
REMARK    3  A    between atoms: N_9  and  N_10
REMARK                            x       y       z     vdW  Elec       q    Type
REMARK                         _______ _______ _______ _____ _____    ______ ____
ROOT
ATOM      1  C   UNL     1       3.910   5.638  18.030  0.00  0.00    +0.000 C 
ATOM      2  N   UNL     1       4.769   4.782  17.573  0.00  0.00    +0.000 NA
ENDROOT
BRANCH   2   3
ATOM      3  N   UNL     1       5.546   5.138  16.508  0.00  0.00    +0.000 N 
ATOM      4  C   UNL     1       5.457   4.358  15.289  0.00  0.00    +0.000 C 
ATOM      5  C   UNL     1       6.821   4.525  14.641  0.00  0.00    +0.000 C 
ATOM      6  N   UNL     1       7.373   5.689  15.283  0.00  0.00    +0.000 N 
ATOM      7  C   UNL     1       6.739   5.901  16.513  0.00  0.00    +0.000 C 
ATOM      8  S   UNL     1       7.434   6.844  17.685  0.00  0.00    +0.000 S 
ATOM      9  H   UNL     1       8.325   6.011  15.153  0.00  0.00    +0.000 HD
ENDBRANCH   2   3
BRANCH   1  13
ATOM     10  C   UNL     1       2.442   4.009  20.817  0.00  0.00    +0.000 A 
ATOM     11  C   UNL     1       1.675   5.146  20.903  0.00  0.00    +0.000 A 
ATOM     12  C   UNL     1       2.122   5.977  19.847  0.00  0.00    +0.000 A 
ATOM     13  C   UNL     1       3.123   5.288  19.182  0.00  0.00    +0.000 A 
ATOM     14  O   UNL     1       3.330   4.074  19.787  0.00  0.00    +0.000 OA
BRANCH  10  16
ATOM     15  O   UNL     1       3.494   2.158  21.596  0.00  0.00    +0.000 OA
ATOM     16  N   UNL     1       2.446   2.818  21.606  0.00  0.00    +0.000 N 
ATOM     17  O   UNL     1       1.415   2.535  22.231  0.00  0.00    +0.000 OA
ENDBRANCH  10  16
ENDBRANCH   1  13
TORSDOF 3
ENDMDL
MODEL 4
REMARK VINA RESULT:      -6.4      3.653      6.794
REMARK  Name = 
REMARK  3 active torsions:
REMARK  status: ('A' for Active; 'I' for Inactive)
REMARK    1  A    between atoms: N_2  and  C_4
REMARK    2  A    between atoms: C_7  and  C_8
REMARK    3  A    between atoms: N_9  and  N_10
REMARK                            x       y       z     vdW  Elec       q    Type
REMARK                         _______ _______ _______ _____ _____    ______ ____
ROOT
ATOM      1  C   UNL     1       4.052   3.721  17.342  0.00  0.00    +0.000 C 
ATOM      2  N   UNL     1       3.887   3.736  18.627  0.00  0.00    +0.000 NA
ENDROOT
BRANCH   2   3
ATOM      3  N   UNL     1       2.719   3.252  19.144  0.00  0.00    +0.000 N 
ATOM      4  C   UNL     1       2.108   2.094  18.521  0.00  0.00    +0.000 C 
ATOM      5  C   UNL     1       0.627   2.250  18.820  0.00  0.00    +0.000 C 
ATOM      6  N   UNL     1       0.587   3.185  19.913  0.00  0.00    +0.000 N 
ATOM      7  C   UNL     1       1.769   3.934  19.944  0.00  0.00    +0.000 C 
ATOM      8  S   UNL     1       1.851   5.375  20.757  0.00  0.00    +0.000 S 
ATOM      9  H   UNL     1      -0.266   3.588  20.284  0.00  0.00    +0.000 HD
ENDBRANCH   2   3
BRANCH   1  13
ATOM     10  C   UNL     1       6.722   4.666  15.208  0.00  0.00    +0.000 A 
ATOM     11  C   UNL     1       7.381   4.940  16.382  0.00  0.00    +0.000 A 
ATOM     12  C   UNL     1       6.455   4.635  17.409  0.00  0.00    +0.000 A 
ATOM     13  C   UNL     1       5.298   4.185  16.794  0.00  0.00    +0.000 A 
ATOM     14  O   UNL     1       5.457   4.212  15.432  0.00  0.00    +0.000 OA
BRANCH  10  16
ATOM     15  O   UNL     1       6.583   4.020  13.040  0.00  0.00    +0.000 OA
ATOM     16  N   UNL     1       7.145   4.772  13.847  0.00  0.00    +0.000 N 
ATOM     17  O   UNL     1       8.031   5.594  13.581  0.00  0.00    +0.000 OA
ENDBRANCH  10  16
ENDBRANCH   1  13
TORSDOF 3
ENDMDL
MODEL 5
REMARK VINA RESULT:      -6.3      1.315      1.904
REMARK  Name = 
REMARK  3 active torsions:
REMARK  status: ('A' for Active; 'I' for Inactive)
REMARK    1  A    between atoms: N_2  and  C_4
REMARK    2  A    between atoms: C_7  and  C_8
REMARK    3  A    between atoms: N_9  and  N_10
REMARK                            x       y       z     vdW  Elec       q    Type
REMARK                         _______ _______ _______ _____ _____    ______ ____
ROOT
ATOM      1  C   UNL     1       4.130   4.728  17.915  0.00  0.00    +0.000 C 
ATOM      2  N   UNL     1       5.344   4.507  18.309  0.00  0.00    +0.000 NA
ENDROOT
BRANCH   2   3
ATOM      3  N   UNL     1       6.370   5.114  17.642  0.00  0.00    +0.000 N 
ATOM      4  C   UNL     1       7.042   6.235  18.269  0.00  0.00    +0.000 C 
ATOM      5  C   UNL     1       7.561   7.057  17.101  0.00  0.00    +0.000 C 
ATOM      6  N   UNL     1       7.535   6.142  15.991  0.00  0.00    +0.000 N 
ATOM      7  C   UNL     1       6.636   5.101  16.251  0.00  0.00    +0.000 C 
ATOM      8  S   UNL     1       6.031   4.163  15.026  0.00  0.00    +0.000 S 
ATOM      9  H   UNL     1       7.721   6.409  15.030  0.00  0.00    +0.000 HD
ENDBRANCH   2   3
BRANCH   1  13
ATOM     10  C   UNL     1       2.085   3.130  20.332  0.00  0.00    +0.000 A 
ATOM     11  C   UNL     1       1.098   3.268  19.386  0.00  0.00    +0.000 A 
ATOM     12  C   UNL     1       1.717   3.923  18.294  0.00  0.00    +0.000 A 
ATOM     13  C   UNL     1       3.042   4.131  18.642  0.00  0.00    +0.000 A 
ATOM     14  O   UNL     1       3.269   3.651  19.906  0.00  0.00    +0.000 OA
BRANCH  10  16
ATOM     15  O   UNL     1       3.145   2.129  22.068  0.00  0.00    +0.000 OA
ATOM     16  N   UNL     1       2.061   2.545  21.635  0.00  0.00    +0.000 N 
ATOM     17  O   UNL     1       0.975   2.493  22.226  0.00  0.00    +0.000 OA
ENDBRANCH  10  16
ENDBRANCH   1  13
TORSDOF 3
ENDMDL
MODEL 6
REMARK VINA RESULT:      -6.1      4.741      7.042
REMARK  Name = 
REMARK  3 active torsions:
REMARK  status: ('A' for Active; 'I' for Inactive)
REMARK    1  A    between atoms: N_2  and  C_4
REMARK    2  A    between atoms: C_7  and  C_8
REMARK    3  A    between atoms: N_9  and  N_10
REMARK                            x       y       z     vdW  Elec       q    Type
REMARK                         _______ _______ _______ _____ _____    ______ ____
ROOT
ATOM      1  C   UNL     1       7.051   5.087  15.258  0.00  0.00    +0.000 C 
ATOM      2  N   UNL     1       6.197   4.636  16.121  0.00  0.00    +0.000 NA
ENDROOT
BRANCH   2   3
ATOM      3  N   UNL     1       6.258   5.095  17.406  0.00  0.00    +0.000 N 
ATOM      4  C   UNL     1       7.381   5.924  17.797  0.00  0.00    +0.000 C 
ATOM      5  C   UNL     1       7.526   5.672  19.288  0.00  0.00    +0.000 C 
ATOM      6  N   UNL     1       6.259   5.110  19.673  0.00  0.00    +0.000 N 
ATOM      7  C   UNL     1       5.619   4.566  18.554  0.00  0.00    +0.000 C 
ATOM      8  S   UNL     1       4.398   3.457  18.718  0.00  0.00    +0.000 S 
ATOM      9  H   UNL     1       6.063   4.728  20.592  0.00  0.00    +0.000 HD
ENDBRANCH   2   3
BRANCH   1  13
ATOM     10  C   UNL     1       6.170   3.481  12.222  0.00  0.00    +0.000 A 
ATOM     11  C   UNL     1       7.200   4.220  11.692  0.00  0.00    +0.000 A 
ATOM     12  C   UNL     1       7.708   4.979  12.774  0.00  0.00    +0.000 A 
ATOM     13  C   UNL     1       6.963   4.644  13.893  0.00  0.00    +0.000 A 
ATOM     14  O   UNL     1       6.003   3.725  13.551  0.00  0.00    +0.000 OA
BRANCH  10  16
ATOM     15  O   UNL     1       4.153   2.938  11.342  0.00  0.00    +0.000 OA
ATOM     16  N   UNL     1       5.289   2.531  11.618  0.00  0.00    +0.000 N 
ATOM     17  O   UNL     1       5.719   1.387  11.423  0.00  0.00    +0.000 OA
ENDBRANCH  10  16
ENDBRANCH   1  13
TORSDOF 3
ENDMDL
MODEL 7
REMARK VINA RESULT:      -6.1      3.334      6.349
REMARK  Name = 
REMARK  3 active torsions:
REMARK  status: ('A' for Active; 'I' for Inactive)
REMARK    1  A    between atoms: N_2  and  C_4
REMARK    2  A    between atoms: C_7  and  C_8
REMARK    3  A    between atoms: N_9  and  N_10
REMARK                            x       y       z     vdW  Elec       q    Type
REMARK                         _______ _______ _______ _____ _____    ______ ____
ROOT
ATOM      1  C   UNL     1       4.063   3.926  17.462  0.00  0.00    +0.000 C 
ATOM      2  N   UNL     1       3.756   4.030  18.717  0.00  0.00    +0.000 NA
ENDROOT
BRANCH   2   3
ATOM      3  N   UNL     1       2.636   3.395  19.172  0.00  0.00    +0.000 N 
ATOM      4  C   UNL     1       2.177   2.207  18.479  0.00  0.00    +0.000 C 
ATOM      5  C   UNL     1       0.680   2.184  18.735  0.00  0.00    +0.000 C 
ATOM      6  N   UNL     1       0.505   3.055  19.867  0.00  0.00    +0.000 N 
ATOM      7  C   UNL     1       1.594   3.927  19.970  0.00  0.00    +0.000 C 
ATOM      8  S   UNL     1       1.491   5.328  20.850  0.00  0.00    +0.000 S 
ATOM      9  H   UNL     1      -0.398   3.342  20.228  0.00  0.00    +0.000 HD
ENDBRANCH   2   3
BRANCH   1  13
ATOM     10  C   UNL     1       6.941   5.954  17.040  0.00  0.00    +0.000 A 
ATOM     11  C   UNL     1       7.087   5.263  15.861  0.00  0.00    +0.000 A 
ATOM     12  C   UNL     1       6.005   4.350  15.830  0.00  0.00    +0.000 A 
ATOM     13  C   UNL     1       5.267   4.552  16.985  0.00  0.00    +0.000 A 
ATOM     14  O   UNL     1       5.850   5.537  17.740  0.00  0.00    +0.000 OA
BRANCH  10  16
ATOM     15  O   UNL     1       8.195   6.780  18.738  0.00  0.00    +0.000 OA
ATOM     16  N   UNL     1       7.723   7.003  17.616  0.00  0.00    +0.000 N 
ATOM     17  O   UNL     1       7.866   8.043  16.961  0.00  0.00    +0.000 OA
ENDBRANCH  10  16
ENDBRANCH   1  13
TORSDOF 3
ENDMDL
MODEL 8
REMARK VINA RESULT:      -5.9      3.774      6.894
REMARK  Name = 
REMARK  3 active torsions:
REMARK  status: ('A' for Active; 'I' for Inactive)
REMARK    1  A    between atoms: N_2  and  C_4
REMARK    2  A    between atoms: C_7  and  C_8
REMARK    3  A    between atoms: N_9  and  N_10
REMARK                            x       y       z     vdW  Elec       q    Type
REMARK                         _______ _______ _______ _____ _____    ______ ____
ROOT
ATOM      1  C   UNL     1       4.892   3.907  17.154  0.00  0.00    +0.000 C 
ATOM      2  N   UNL     1       3.609   3.835  16.986  0.00  0.00    +0.000 NA
ENDROOT
BRANCH   2   3
ATOM      3  N   UNL     1       2.821   3.564  18.068  0.00  0.00    +0.000 N 
ATOM      4  C   UNL     1       2.091   2.312  18.104  0.00  0.00    +0.000 C 
ATOM      5  C   UNL     1       0.878   2.614  18.967  0.00  0.00    +0.000 C 
ATOM      6  N   UNL     1       1.245   3.810  19.679  0.00  0.00    +0.000 N 
ATOM      7  C   UNL     1       2.263   4.481  18.993  0.00  0.00    +0.000 C 
ATOM      8  S   UNL     1       2.579   6.083  19.278  0.00  0.00    +0.000 S 
ATOM      9  H   UNL     1       0.609   4.338  20.266  0.00  0.00    +0.000 HD
ENDBRANCH   2   3
BRANCH   1  13
ATOM     10  C   UNL     1       6.365   4.192  13.941  0.00  0.00    +0.000 A 
ATOM     11  C   UNL     1       7.291   4.976  14.586  0.00  0.00    +0.000 A 
ATOM     12  C   UNL     1       6.870   5.012  15.937  0.00  0.00    +0.000 A 
ATOM     13  C   UNL     1       5.725   4.239  16.029  0.00  0.00    +0.000 A 
ATOM     14  O   UNL     1       5.404   3.739  14.793  0.00  0.00    +0.000 OA
BRANCH  10  16
ATOM     15  O   UNL     1       5.165   3.350  12.211  0.00  0.00    +0.000 OA
ATOM     16  N   UNL     1       6.264   3.791  12.573  0.00  0.00    +0.000 N 
ATOM     17  O   UNL     1       7.270   3.908  11.861  0.00  0.00    +0.000 OA
ENDBRANCH  10  16
ENDBRANCH   1  13
TORSDOF 3
ENDMDL
MODEL 9
REMARK VINA RESULT:      -5.9      4.673      5.573
REMARK  Name = 
REMARK  3 active torsions:
REMARK  status: ('A' for Active; 'I' for Inactive)
REMARK    1  A    between atoms: N_2  and  C_4
REMARK    2  A    between atoms: C_7  and  C_8
REMARK    3  A    between atoms: N_9  and  N_10
REMARK                            x       y       z     vdW  Elec       q    Type
REMARK                         _______ _______ _______ _____ _____    ______ ____
ROOT
ATOM      1  C   UNL     1       2.829   6.546  19.278  0.00  0.00    +0.000 C 
ATOM      2  N   UNL     1       3.319   5.880  18.280  0.00  0.00    +0.000 NA
ENDROOT
BRANCH   2   3
ATOM      3  N   UNL     1       3.892   4.664  18.521  0.00  0.00    +0.000 N 
ATOM      4  C   UNL     1       3.035   3.547  18.869  0.00  0.00    +0.000 C 
ATOM      5  C   UNL     1       3.925   2.644  19.707  0.00  0.00    +0.000 C 
ATOM      6  N   UNL     1       5.260   3.080  19.393  0.00  0.00    +0.000 N 
ATOM      7  C   UNL     1       5.230   4.387  18.893  0.00  0.00    +0.000 C 
ATOM      8  S   UNL     1       6.591   5.332  18.879  0.00  0.00    +0.000 S 
ATOM      9  H   UNL     1       6.091   2.749  19.870  0.00  0.00    +0.000 HD
ENDBRANCH   2   3
BRANCH   1  13
ATOM     10  C   UNL     1       1.075   9.616  19.543  0.00  0.00    +0.000 A 
ATOM     11  C   UNL     1       1.263   9.683  18.184  0.00  0.00    +0.000 A 
ATOM     12  C   UNL     1       1.987   8.512  17.851  0.00  0.00    +0.000 A 
ATOM     13  C   UNL     1       2.182   7.805  19.026  0.00  0.00    +0.000 A 
ATOM     14  O   UNL     1       1.628   8.491  20.076  0.00  0.00    +0.000 OA
BRANCH  10  16
ATOM     15  O   UNL     1      -0.808  10.641  20.280  0.00  0.00    +0.000 OA
ATOM     16  N   UNL     1       0.412  10.506  20.444  0.00  0.00    +0.000 N 
ATOM     17  O   UNL     1       1.096  11.070  21.307  0.00  0.00    +0.000 OA
ENDBRANCH  10  16
ENDBRANCH   1  13
TORSDOF 3
ENDMDL
