MODEL 1
REMARK VINA RESULT:      -8.2      0.000      0.000
REMARK  Name = 
REMARK  9 active torsions:
REMARK  status: ('A' for Active; 'I' for Inactive)
REMARK    1  A    between atoms: C_2  and  C_3
REMARK    2  A    between atoms: C_3  and  O_4
REMARK    3  A    between atoms: O_4  and  C_5
REMARK    4  A    between atoms: C_8  and  S_9
REMARK    5  A    between atoms: S_9  and  N_12
REMARK    6  A    between atoms: N_12  and  C_13
REMARK    7  A    between atoms: C_13  and  C_14
REMARK    8  A    between atoms: N_22  and  C_23
REMARK    9  A    between atoms: C_23  and  C_24
REMARK                            x       y       z     vdW  Elec       q    Type
REMARK                         _______ _______ _______ _____ _____    ______ ____
ROOT
ATOM      1  C   UNL     1       2.005   7.067  19.892  0.00  0.00    +0.000 A 
ATOM      2  C   UNL     1       2.358   6.856  18.562  0.00  0.00    +0.000 A 
ATOM      3  C   UNL     1       2.486   5.582  18.030  0.00  0.00    +0.000 A 
ATOM      4  C   UNL     1       2.297   4.482  18.849  0.00  0.00    +0.000 A 
ATOM      5  C   UNL     1       1.940   4.663  20.193  0.00  0.00    +0.000 A 
ATOM      6  C   UNL     1       1.807   5.962  20.720  0.00  0.00    +0.000 A 
ENDROOT
BRANCH   4   7
ATOM      7  S   UNL     1       2.496   2.866  18.123  0.00  0.00    +0.000 S 
ATOM      8  O   UNL     1       1.808   1.928  18.990  0.00  0.00    +0.000 OA
ATOM      9  O   UNL     1       2.184   2.986  16.721  0.00  0.00    +0.000 OA
BRANCH   7  10
ATOM     10  N   UNL     1       4.166   2.620  18.234  0.00  0.00    +0.000 NA
ATOM     11  H   UNL     1       4.596   2.595  17.308  0.00  0.00    +0.000 HD
BRANCH  10  12
ATOM     12  C   UNL     1       4.856   3.549  19.146  0.00  0.00    +0.000 C 
BRANCH  12  13
ATOM     13  C   UNL     1       5.764   4.515  18.430  0.00  0.00    +0.000 A 
ATOM     14  C   UNL     1       5.787   4.584  17.028  0.00  0.00    +0.000 A 
ATOM     15  C   UNL     1       6.626   5.492  16.378  0.00  0.00    +0.000 A 
ATOM     16  C   UNL     1       7.439   6.346  17.121  0.00  0.00    +0.000 A 
ATOM     17  C   UNL     1       7.405   6.301  18.514  0.00  0.00    +0.000 A 
ATOM     18  C   UNL     1       6.571   5.392  19.164  0.00  0.00    +0.000 A 
ENDBRANCH  12  13
ENDBRANCH  10  12
ENDBRANCH   7  10
ENDBRANCH   4   7
BRANCH   1  19
ATOM     19  O   UNL     1       1.839   8.324  20.416  0.00  0.00    +0.000 OA
BRANCH  19  20
ATOM     20  C   UNL     1       0.727   8.426  21.314  0.00  0.00    +0.000 C 
BRANCH  20  22
ATOM     21  O   UNL     1      -0.520  10.332  22.178  0.00  0.00    +0.000 OA
ATOM     22  C   UNL     1      -0.139   9.702  21.195  0.00  0.00    +0.000 C 
ATOM     23  N   UNL     1      -0.438  10.074  19.907  0.00  0.00    +0.000 N 
ATOM     24  H   UNL     1      -0.099   9.497  19.149  0.00  0.00    +0.000 HD
BRANCH  23  25
ATOM     25  C   UNL     1      -1.266  11.219  19.598  0.00  0.00    +0.000 C 
BRANCH  25  26
ATOM     26  C   UNL     1      -2.088  10.990  18.364  0.00  0.00    +0.000 A 
ATOM     27  C   UNL     1      -1.676  10.109  17.359  0.00  0.00    +0.000 A 
ATOM     28  C   UNL     1      -2.495   9.888  16.254  0.00  0.00    +0.000 A 
ATOM     29  C   UNL     1      -3.705  10.557  16.188  0.00  0.00    +0.000 A 
ATOM     30  N   UNL     1      -4.132  11.424  17.130  0.00  0.00    +0.000 NA
ATOM     31  C   UNL     1      -3.319  11.618  18.193  0.00  0.00    +0.000 A 
ENDBRANCH  25  26
ENDBRANCH  23  25
ENDBRANCH  20  22
ENDBRANCH  19  20
ENDBRANCH   1  19
TORSDOF 9
ENDMDL
MODEL 2
REMARK VINA RESULT:      -8.2      3.060      4.139
REMARK  Name = 
REMARK  9 active torsions:
REMARK  status: ('A' for Active; 'I' for Inactive)
REMARK    1  A    between atoms: C_2  and  C_3
REMARK    2  A    between atoms: C_3  and  O_4
REMARK    3  A    between atoms: O_4  and  C_5
REMARK    4  A    between atoms: C_8  and  S_9
REMARK    5  A    between atoms: S_9  and  N_12
REMARK    6  A    between atoms: N_12  and  C_13
REMARK    7  A    between atoms: C_13  and  C_14
REMARK    8  A    between atoms: N_22  and  C_23
REMARK    9  A    between atoms: C_23  and  C_24
REMARK                            x       y       z     vdW  Elec       q    Type
REMARK                         _______ _______ _______ _____ _____    ______ ____
ROOT
ATOM      1  C   UNL     1       1.945   8.249  19.346  0.00  0.00    +0.000 A 
ATOM      2  C   UNL     1       2.496   8.458  18.085  0.00  0.00    +0.000 A 
ATOM      3  C   UNL     1       3.313   7.518  17.475  0.00  0.00    +0.000 A 
ATOM      4  C   UNL     1       3.626   6.351  18.151  0.00  0.00    +0.000 A 
ATOM      5  C   UNL     1       3.086   6.112  19.423  0.00  0.00    +0.000 A 
ATOM      6  C   UNL     1       2.252   7.072  20.028  0.00  0.00    +0.000 A 
ENDROOT
BRANCH   4   7
ATOM      7  S   UNL     1       4.699   5.185  17.334  0.00  0.00    +0.000 S 
ATOM      8  O   UNL     1       5.221   5.848  16.154  0.00  0.00    +0.000 OA
ATOM      9  O   UNL     1       5.561   4.619  18.342  0.00  0.00    +0.000 OA
BRANCH   7  10
ATOM     10  N   UNL     1       3.623   3.965  16.869  0.00  0.00    +0.000 NA
ATOM     11  H   UNL     1       3.699   3.770  15.869  0.00  0.00    +0.000 HD
BRANCH  10  12
ATOM     12  C   UNL     1       3.707   2.740  17.685  0.00  0.00    +0.000 C 
BRANCH  12  13
ATOM     13  C   UNL     1       2.851   2.797  18.924  0.00  0.00    +0.000 A 
ATOM     14  C   UNL     1       3.420   2.698  20.203  0.00  0.00    +0.000 A 
ATOM     15  C   UNL     1       2.615   2.764  21.343  0.00  0.00    +0.000 A 
ATOM     16  C   UNL     1       1.239   2.939  21.215  0.00  0.00    +0.000 A 
ATOM     17  C   UNL     1       0.668   3.061  19.950  0.00  0.00    +0.000 A 
ATOM     18  C   UNL     1       1.469   2.992  18.811  0.00  0.00    +0.000 A 
ENDBRANCH  12  13
ENDBRANCH  10  12
ENDBRANCH   7  10
ENDBRANCH   4   7
BRANCH   1  19
ATOM     19  O   UNL     1       1.105   9.157  19.939  0.00  0.00    +0.000 OA
BRANCH  19  20
ATOM     20  C   UNL     1       0.849   8.880  21.321  0.00  0.00    +0.000 C 
BRANCH  20  22
ATOM     21  O   UNL     1       0.114   9.956  23.379  0.00  0.00    +0.000 OA
ATOM     22  C   UNL     1       0.316  10.057  22.172  0.00  0.00    +0.000 C 
ATOM     23  N   UNL     1       0.096  11.217  21.472  0.00  0.00    +0.000 N 
ATOM     24  H   UNL     1       0.273  11.220  20.476  0.00  0.00    +0.000 HD
BRANCH  23  25
ATOM     25  C   UNL     1      -0.435  12.413  22.090  0.00  0.00    +0.000 C 
BRANCH  25  26
ATOM     26  C   UNL     1      -1.916  12.532  21.882  0.00  0.00    +0.000 A 
ATOM     27  C   UNL     1      -2.463  12.790  20.621  0.00  0.00    +0.000 A 
ATOM     28  C   UNL     1      -3.846  12.843  20.463  0.00  0.00    +0.000 A 
ATOM     29  C   UNL     1      -4.642  12.633  21.576  0.00  0.00    +0.000 A 
ATOM     30  N   UNL     1      -4.154  12.393  22.811  0.00  0.00    +0.000 NA
ATOM     31  C   UNL     1      -2.808  12.345  22.935  0.00  0.00    +0.000 A 
ENDBRANCH  25  26
ENDBRANCH  23  25
ENDBRANCH  20  22
ENDBRANCH  19  20
ENDBRANCH   1  19
TORSDOF 9
ENDMDL
MODEL 3
REMARK VINA RESULT:      -8.1      3.443      5.665
REMARK  Name = 
REMARK  9 active torsions:
REMARK  status: ('A' for Active; 'I' for Inactive)
REMARK    1  A    between atoms: C_2  and  C_3
REMARK    2  A    between atoms: C_3  and  O_4
REMARK    3  A    between atoms: O_4  and  C_5
REMARK    4  A    between atoms: C_8  and  S_9
REMARK    5  A    between atoms: S_9  and  N_12
REMARK    6  A    between atoms: N_12  and  C_13
REMARK    7  A    between atoms: C_13  and  C_14
REMARK    8  A    between atoms: N_22  and  C_23
REMARK    9  A    between atoms: C_23  and  C_24
REMARK                            x       y       z     vdW  Elec       q    Type
REMARK                         _______ _______ _______ _____ _____    ______ ____
ROOT
ATOM      1  C   UNL     1       3.431   2.832  18.615  0.00  0.00    +0.000 A 
ATOM      2  C   UNL     1       4.597   3.241  19.258  0.00  0.00    +0.000 A 
ATOM      3  C   UNL     1       5.462   4.164  18.692  0.00  0.00    +0.000 A 
ATOM      4  C   UNL     1       5.185   4.671  17.434  0.00  0.00    +0.000 A 
ATOM      5  C   UNL     1       4.019   4.279  16.761  0.00  0.00    +0.000 A 
ATOM      6  C   UNL     1       3.144   3.345  17.350  0.00  0.00    +0.000 A 
ENDROOT
BRANCH   4   7
ATOM      7  S   UNL     1       6.340   5.839  16.740  0.00  0.00    +0.000 S 
ATOM      8  O   UNL     1       5.957   7.150  17.228  0.00  0.00    +0.000 OA
ATOM      9  O   UNL     1       7.663   5.301  16.938  0.00  0.00    +0.000 OA
BRANCH   7  10
ATOM     10  N   UNL     1       6.012   5.734  15.083  0.00  0.00    +0.000 NA
ATOM     11  H   UNL     1       5.834   6.658  14.685  0.00  0.00    +0.000 HD
BRANCH  10  12
ATOM     12  C   UNL     1       7.016   4.978  14.314  0.00  0.00    +0.000 C 
BRANCH  12  13
ATOM     13  C   UNL     1       6.406   4.081  13.267  0.00  0.00    +0.000 A 
ATOM     14  C   UNL     1       5.014   4.000  13.104  0.00  0.00    +0.000 A 
ATOM     15  C   UNL     1       4.464   3.173  12.122  0.00  0.00    +0.000 A 
ATOM     16  C   UNL     1       5.298   2.431  11.289  0.00  0.00    +0.000 A 
ATOM     17  C   UNL     1       6.681   2.523  11.427  0.00  0.00    +0.000 A 
ATOM     18  C   UNL     1       7.232   3.345  12.410  0.00  0.00    +0.000 A 
ENDBRANCH  12  13
ENDBRANCH  10  12
ENDBRANCH   7  10
ENDBRANCH   4   7
BRANCH   1  19
ATOM     19  O   UNL     1       2.551   1.947  19.185  0.00  0.00    +0.000 OA
BRANCH  19  20
ATOM     20  C   UNL     1       1.459   2.582  19.861  0.00  0.00    +0.000 C 
BRANCH  20  22
ATOM     21  O   UNL     1       2.292   3.727  21.844  0.00  0.00    +0.000 OA
ATOM     22  C   UNL     1       1.807   3.821  20.719  0.00  0.00    +0.000 C 
ATOM     23  N   UNL     1       1.541   5.027  20.119  0.00  0.00    +0.000 N 
ATOM     24  H   UNL     1       1.129   5.025  19.195  0.00  0.00    +0.000 HD
BRANCH  23  25
ATOM     25  C   UNL     1       1.767   6.294  20.780  0.00  0.00    +0.000 C 
BRANCH  25  26
ATOM     26  C   UNL     1       1.890   7.418  19.793  0.00  0.00    +0.000 A 
ATOM     27  C   UNL     1       2.555   7.257  18.574  0.00  0.00    +0.000 A 
ATOM     28  C   UNL     1       2.602   8.312  17.666  0.00  0.00    +0.000 A 
ATOM     29  C   UNL     1       1.979   9.500  18.007  0.00  0.00    +0.000 A 
ATOM     30  N   UNL     1       1.338   9.700  19.177  0.00  0.00    +0.000 NA
ATOM     31  C   UNL     1       1.305   8.658  20.039  0.00  0.00    +0.000 A 
ENDBRANCH  25  26
ENDBRANCH  23  25
ENDBRANCH  20  22
ENDBRANCH  19  20
ENDBRANCH   1  19
TORSDOF 9
ENDMDL
MODEL 4
REMARK VINA RESULT:      -8.1      2.260      2.535
REMARK  Name = 
REMARK  9 active torsions:
REMARK  status: ('A' for Active; 'I' for Inactive)
REMARK    1  A    between atoms: C_2  and  C_3
REMARK    2  A    between atoms: C_3  and  O_4
REMARK    3  A    between atoms: O_4  and  C_5
REMARK    4  A    between atoms: C_8  and  S_9
REMARK    5  A    between atoms: S_9  and  N_12
REMARK    6  A    between atoms: N_12  and  C_13
REMARK    7  A    between atoms: C_13  and  C_14
REMARK    8  A    between atoms: N_22  and  C_23
REMARK    9  A    between atoms: C_23  and  C_24
REMARK                            x       y       z     vdW  Elec       q    Type
REMARK                         _______ _______ _______ _____ _____    ______ ____
ROOT
ATOM      1  C   UNL     1       1.822   7.373  19.962  0.00  0.00    +0.000 A 
ATOM      2  C   UNL     1       2.260   7.230  18.649  0.00  0.00    +0.000 A 
ATOM      3  C   UNL     1       2.573   5.991  18.110  0.00  0.00    +0.000 A 
ATOM      4  C   UNL     1       2.486   4.863  18.907  0.00  0.00    +0.000 A 
ATOM      5  C   UNL     1       2.048   4.975  20.234  0.00  0.00    +0.000 A 
ATOM      6  C   UNL     1       1.727   6.238  20.768  0.00  0.00    +0.000 A 
ENDROOT
BRANCH   4   7
ATOM      7  S   UNL     1       2.921   3.297  18.174  0.00  0.00    +0.000 S 
ATOM      8  O   UNL     1       2.798   2.295  19.217  0.00  0.00    +0.000 OA
ATOM      9  O   UNL     1       2.208   3.196  16.925  0.00  0.00    +0.000 OA
BRANCH   7  10
ATOM     10  N   UNL     1       4.554   3.515  17.790  0.00  0.00    +0.000 NA
ATOM     11  H   UNL     1       4.659   4.056  16.929  0.00  0.00    +0.000 HD
BRANCH  10  12
ATOM     12  C   UNL     1       5.369   4.055  18.892  0.00  0.00    +0.000 C 
BRANCH  12  13
ATOM     13  C   UNL     1       6.194   5.249  18.487  0.00  0.00    +0.000 A 
ATOM     14  C   UNL     1       5.815   6.060  17.406  0.00  0.00    +0.000 A 
ATOM     15  C   UNL     1       6.584   7.170  17.050  0.00  0.00    +0.000 A 
ATOM     16  C   UNL     1       7.730   7.486  17.776  0.00  0.00    +0.000 A 
ATOM     17  C   UNL     1       8.102   6.701  18.865  0.00  0.00    +0.000 A 
ATOM     18  C   UNL     1       7.337   5.590  19.220  0.00  0.00    +0.000 A 
ENDBRANCH  12  13
ENDBRANCH  10  12
ENDBRANCH   7  10
ENDBRANCH   4   7
BRANCH   1  19
ATOM     19  O   UNL     1       1.474   8.590  20.491  0.00  0.00    +0.000 OA
BRANCH  19  20
ATOM     20  C   UNL     1       0.589   8.494  21.614  0.00  0.00    +0.000 C 
BRANCH  20  22
ATOM     21  O   UNL     1       0.265   9.913  23.566  0.00  0.00    +0.000 OA
ATOM     22  C   UNL     1       0.254   9.816  22.342  0.00  0.00    +0.000 C 
ATOM     23  N   UNL     1      -0.046  10.868  21.512  0.00  0.00    +0.000 N 
ATOM     24  H   UNL     1      -0.047  10.708  20.513  0.00  0.00    +0.000 HD
BRANCH  23  25
ATOM     25  C   UNL     1      -0.419  12.174  22.010  0.00  0.00    +0.000 C 
BRANCH  25  26
ATOM     26  C   UNL     1      -1.896  12.412  21.884  0.00  0.00    +0.000 A 
ATOM     27  C   UNL     1      -2.476  12.810  20.676  0.00  0.00    +0.000 A 
ATOM     28  C   UNL     1      -3.857  12.971  20.590  0.00  0.00    +0.000 A 
ATOM     29  C   UNL     1      -4.617  12.728  21.721  0.00  0.00    +0.000 A 
ATOM     30  N   UNL     1      -4.095  12.355  22.908  0.00  0.00    +0.000 NA
ATOM     31  C   UNL     1      -2.752  12.204  22.962  0.00  0.00    +0.000 A 
ENDBRANCH  25  26
ENDBRANCH  23  25
ENDBRANCH  20  22
ENDBRANCH  19  20
ENDBRANCH   1  19
TORSDOF 9
ENDMDL
MODEL 5
REMARK VINA RESULT:      -8.1      2.027      3.565
REMARK  Name = 
REMARK  9 active torsions:
REMARK  status: ('A' for Active; 'I' for Inactive)
REMARK    1  A    between atoms: C_2  and  C_3
REMARK    2  A    between atoms: C_3  and  O_4
REMARK    3  A    between atoms: O_4  and  C_5
REMARK    4  A    between atoms: C_8  and  S_9
REMARK    5  A    between atoms: S_9  and  N_12
REMARK    6  A    between atoms: N_12  and  C_13
REMARK    7  A    between atoms: C_13  and  C_14
REMARK    8  A    between atoms: N_22  and  C_23
REMARK    9  A    between atoms: C_23  and  C_24
REMARK                            x       y       z     vdW  Elec       q    Type
REMARK                         _______ _______ _______ _____ _____    ______ ____
ROOT
ATOM      1  C   UNL     1       2.364   7.835  18.671  0.00  0.00    +0.000 A 
ATOM      2  C   UNL     1       3.205   7.823  17.562  0.00  0.00    +0.000 A 
ATOM      3  C   UNL     1       4.135   6.816  17.357  0.00  0.00    +0.000 A 
ATOM      4  C   UNL     1       4.263   5.809  18.298  0.00  0.00    +0.000 A 
ATOM      5  C   UNL     1       3.430   5.793  19.426  0.00  0.00    +0.000 A 
ATOM      6  C   UNL     1       2.485   6.819  19.620  0.00  0.00    +0.000 A 
ENDROOT
BRANCH   4   7
ATOM      7  S   UNL     1       5.489   4.549  18.000  0.00  0.00    +0.000 S 
ATOM      8  O   UNL     1       5.038   3.786  16.851  0.00  0.00    +0.000 OA
ATOM      9  O   UNL     1       6.780   5.191  18.036  0.00  0.00    +0.000 OA
BRANCH   7  10
ATOM     10  N   UNL     1       5.378   3.595  19.392  0.00  0.00    +0.000 NA
ATOM     11  H   UNL     1       5.055   4.145  20.190  0.00  0.00    +0.000 HD
BRANCH  10  12
ATOM     12  C   UNL     1       4.600   2.356  19.216  0.00  0.00    +0.000 C 
BRANCH  12  13
ATOM     13  C   UNL     1       3.137   2.527  19.534  0.00  0.00    +0.000 A 
ATOM     14  C   UNL     1       2.704   2.775  20.846  0.00  0.00    +0.000 A 
ATOM     15  C   UNL     1       1.345   2.943  21.123  0.00  0.00    +0.000 A 
ATOM     16  C   UNL     1       0.410   2.875  20.093  0.00  0.00    +0.000 A 
ATOM     17  C   UNL     1       0.832   2.653  18.784  0.00  0.00    +0.000 A 
ATOM     18  C   UNL     1       2.188   2.481  18.505  0.00  0.00    +0.000 A 
ENDBRANCH  12  13
ENDBRANCH  10  12
ENDBRANCH   7  10
ENDBRANCH   4   7
BRANCH   1  19
ATOM     19  O   UNL     1       1.415   8.807  18.862  0.00  0.00    +0.000 OA
BRANCH  19  20
ATOM     20  C   UNL     1       1.108   9.043  20.241  0.00  0.00    +0.000 C 
BRANCH  20  22
ATOM     21  O   UNL     1      -0.630  10.051  21.619  0.00  0.00    +0.000 OA
ATOM     22  C   UNL     1      -0.062  10.012  20.531  0.00  0.00    +0.000 C 
ATOM     23  N   UNL     1      -0.405  10.826  19.480  0.00  0.00    +0.000 N 
ATOM     24  H   UNL     1       0.099  10.728  18.609  0.00  0.00    +0.000 HD
BRANCH  23  25
ATOM     25  C   UNL     1      -1.498  11.772  19.551  0.00  0.00    +0.000 C 
BRANCH  25  26
ATOM     26  C   UNL     1      -2.499  11.544  18.456  0.00  0.00    +0.000 A 
ATOM     27  C   UNL     1      -3.868  11.745  18.657  0.00  0.00    +0.000 A 
ATOM     28  C   UNL     1      -4.757  11.570  17.599  0.00  0.00    +0.000 A 
ATOM     29  C   UNL     1      -4.246  11.198  16.368  0.00  0.00    +0.000 A 
ATOM     30  N   UNL     1      -2.935  10.981  16.136  0.00  0.00    +0.000 NA
ATOM     31  C   UNL     1      -2.094  11.161  17.180  0.00  0.00    +0.000 A 
ENDBRANCH  25  26
ENDBRANCH  23  25
ENDBRANCH  20  22
ENDBRANCH  19  20
ENDBRANCH   1  19
TORSDOF 9
ENDMDL
MODEL 6
REMARK VINA RESULT:      -8.0      0.916      1.058
REMARK  Name = 
REMARK  9 active torsions:
REMARK  status: ('A' for Active; 'I' for Inactive)
REMARK    1  A    between atoms: C_2  and  C_3
REMARK    2  A    between atoms: C_3  and  O_4
REMARK    3  A    between atoms: O_4  and  C_5
REMARK    4  A    between atoms: C_8  and  S_9
REMARK    5  A    between atoms: S_9  and  N_12
REMARK    6  A    between atoms: N_12  and  C_13
REMARK    7  A    between atoms: C_13  and  C_14
REMARK    8  A    between atoms: N_22  and  C_23
REMARK    9  A    between atoms: C_23  and  C_24
REMARK                            x       y       z     vdW  Elec       q    Type
REMARK                         _______ _______ _______ _____ _____    ______ ____
ROOT
ATOM      1  C   UNL     1       1.980   7.072  20.119  0.00  0.00    +0.000 A 
ATOM      2  C   UNL     1       2.500   7.002  18.830  0.00  0.00    +0.000 A 
ATOM      3  C   UNL     1       2.753   5.790  18.205  0.00  0.00    +0.000 A 
ATOM      4  C   UNL     1       2.518   4.611  18.891  0.00  0.00    +0.000 A 
ATOM      5  C   UNL     1       1.994   4.649  20.191  0.00  0.00    +0.000 A 
ATOM      6  C   UNL     1       1.736   5.886  20.812  0.00  0.00    +0.000 A 
ENDROOT
BRANCH   4   7
ATOM      7  S   UNL     1       2.880   3.080  18.052  0.00  0.00    +0.000 S 
ATOM      8  O   UNL     1       2.464   2.007  18.936  0.00  0.00    +0.000 OA
ATOM      9  O   UNL     1       2.380   3.202  16.705  0.00  0.00    +0.000 OA
BRANCH   7  10
ATOM     10  N   UNL     1       4.569   3.109  17.953  0.00  0.00    +0.000 NA
ATOM     11  H   UNL     1       4.951   2.163  17.926  0.00  0.00    +0.000 HD
BRANCH  10  12
ATOM     12  C   UNL     1       5.097   3.957  16.870  0.00  0.00    +0.000 C 
BRANCH  12  13
ATOM     13  C   UNL     1       6.069   5.001  17.357  0.00  0.00    +0.000 A 
ATOM     14  C   UNL     1       6.221   6.222  16.680  0.00  0.00    +0.000 A 
ATOM     15  C   UNL     1       7.118   7.184  17.151  0.00  0.00    +0.000 A 
ATOM     16  C   UNL     1       7.860   6.941  18.305  0.00  0.00    +0.000 A 
ATOM     17  C   UNL     1       7.697   5.742  18.996  0.00  0.00    +0.000 A 
ATOM     18  C   UNL     1       6.806   4.778  18.526  0.00  0.00    +0.000 A 
ENDBRANCH  12  13
ENDBRANCH  10  12
ENDBRANCH   7  10
ENDBRANCH   4   7
BRANCH   1  19
ATOM     19  O   UNL     1       1.692   8.266  20.730  0.00  0.00    +0.000 OA
BRANCH  19  20
ATOM     20  C   UNL     1       1.221   9.272  19.825  0.00  0.00    +0.000 C 
BRANCH  20  22
ATOM     21  O   UNL     1      -0.515   9.953  21.392  0.00  0.00    +0.000 OA
ATOM     22  C   UNL     1      -0.028  10.068  20.271  0.00  0.00    +0.000 C 
ATOM     23  N   UNL     1      -0.537  10.916  19.318  0.00  0.00    +0.000 N 
ATOM     24  H   UNL     1      -0.089  10.947  18.412  0.00  0.00    +0.000 HD
BRANCH  23  25
ATOM     25  C   UNL     1      -1.722  11.716  19.539  0.00  0.00    +0.000 C 
BRANCH  25  26
ATOM     26  C   UNL     1      -2.698  11.583  18.407  0.00  0.00    +0.000 A 
ATOM     27  C   UNL     1      -2.292  11.189  17.128  0.00  0.00    +0.000 A 
ATOM     28  C   UNL     1      -3.238  11.030  16.119  0.00  0.00    +0.000 A 
ATOM     29  C   UNL     1      -4.568  11.269  16.422  0.00  0.00    +0.000 A 
ATOM     30  N   UNL     1      -4.999  11.662  17.638  0.00  0.00    +0.000 NA
ATOM     31  C   UNL     1      -4.059  11.807  18.600  0.00  0.00    +0.000 A 
ENDBRANCH  25  26
ENDBRANCH  23  25
ENDBRANCH  20  22
ENDBRANCH  19  20
ENDBRANCH   1  19
TORSDOF 9
ENDMDL
MODEL 7
REMARK VINA RESULT:      -7.9      4.626      8.595
REMARK  Name = 
REMARK  9 active torsions:
REMARK  status: ('A' for Active; 'I' for Inactive)
REMARK    1  A    between atoms: C_2  and  C_3
REMARK    2  A    between atoms: C_3  and  O_4
REMARK    3  A    between atoms: O_4  and  C_5
REMARK    4  A    between atoms: C_8  and  S_9
REMARK    5  A    between atoms: S_9  and  N_12
REMARK    6  A    between atoms: N_12  and  C_13
REMARK    7  A    between atoms: C_13  and  C_14
REMARK    8  A    between atoms: N_22  and  C_23
REMARK    9  A    between atoms: C_23  and  C_24
REMARK                            x       y       z     vdW  Elec       q    Type
REMARK                         _______ _______ _______ _____ _____    ______ ____
ROOT
ATOM      1  C   UNL     1       6.488   5.758  17.080  0.00  0.00    +0.000 A 
ATOM      2  C   UNL     1       6.572   4.699  17.979  0.00  0.00    +0.000 A 
ATOM      3  C   UNL     1       5.450   3.997  18.393  0.00  0.00    +0.000 A 
ATOM      4  C   UNL     1       4.202   4.380  17.932  0.00  0.00    +0.000 A 
ATOM      5  C   UNL     1       4.086   5.444  17.026  0.00  0.00    +0.000 A 
ATOM      6  C   UNL     1       5.233   6.144  16.608  0.00  0.00    +0.000 A 
ENDROOT
BRANCH   4   7
ATOM      7  S   UNL     1       2.788   3.461  18.511  0.00  0.00    +0.000 S 
ATOM      8  O   UNL     1       2.171   2.858  17.345  0.00  0.00    +0.000 OA
ATOM      9  O   UNL     1       3.221   2.678  19.642  0.00  0.00    +0.000 OA
BRANCH   7  10
ATOM     10  N   UNL     1       1.784   4.680  19.116  0.00  0.00    +0.000 NA
ATOM     11  H   UNL     1       0.950   4.285  19.556  0.00  0.00    +0.000 HD
BRANCH  10  12
ATOM     12  C   UNL     1       2.468   5.652  19.987  0.00  0.00    +0.000 C 
BRANCH  12  13
ATOM     13  C   UNL     1       1.970   7.062  19.804  0.00  0.00    +0.000 A 
ATOM     14  C   UNL     1       1.384   7.768  20.867  0.00  0.00    +0.000 A 
ATOM     15  C   UNL     1       0.937   9.079  20.685  0.00  0.00    +0.000 A 
ATOM     16  C   UNL     1       1.082   9.699  19.445  0.00  0.00    +0.000 A 
ATOM     17  C   UNL     1       1.684   9.015  18.392  0.00  0.00    +0.000 A 
ATOM     18  C   UNL     1       2.127   7.705  18.570  0.00  0.00    +0.000 A 
ENDBRANCH  12  13
ENDBRANCH  10  12
ENDBRANCH   7  10
ENDBRANCH   4   7
BRANCH   1  19
ATOM     19  O   UNL     1       7.597   6.433  16.637  0.00  0.00    +0.000 OA
BRANCH  19  20
ATOM     20  C   UNL     1       7.584   7.829  16.959  0.00  0.00    +0.000 C 
BRANCH  20  22
ATOM     21  O   UNL     1       8.623   7.431  19.126  0.00  0.00    +0.000 OA
ATOM     22  C   UNL     1       8.318   8.243  18.256  0.00  0.00    +0.000 C 
ATOM     23  N   UNL     1       8.606   9.582  18.349  0.00  0.00    +0.000 N 
ATOM     24  H   UNL     1       8.311  10.191  17.598  0.00  0.00    +0.000 HD
BRANCH  23  25
ATOM     25  C   UNL     1       9.257  10.161  19.504  0.00  0.00    +0.000 C 
BRANCH  25  26
ATOM     26  C   UNL     1      10.282  11.183  19.106  0.00  0.00    +0.000 A 
ATOM     27  C   UNL     1      10.546  11.476  17.765  0.00  0.00    +0.000 A 
ATOM     28  C   UNL     1      11.470  12.467  17.442  0.00  0.00    +0.000 A 
ATOM     29  C   UNL     1      12.103  13.137  18.474  0.00  0.00    +0.000 A 
ATOM     30  N   UNL     1      11.886  12.875  19.780  0.00  0.00    +0.000 NA
ATOM     31  C   UNL     1      10.982  11.910  20.066  0.00  0.00    +0.000 A 
ENDBRANCH  25  26
ENDBRANCH  23  25
ENDBRANCH  20  22
ENDBRANCH  19  20
ENDBRANCH   1  19
TORSDOF 9
ENDMDL
MODEL 8
REMARK VINA RESULT:      -7.9      2.478      3.752
REMARK  Name = 
REMARK  9 active torsions:
REMARK  status: ('A' for Active; 'I' for Inactive)
REMARK    1  A    between atoms: C_2  and  C_3
REMARK    2  A    between atoms: C_3  and  O_4
REMARK    3  A    between atoms: O_4  and  C_5
REMARK    4  A    between atoms: C_8  and  S_9
REMARK    5  A    between atoms: S_9  and  N_12
REMARK    6  A    between atoms: N_12  and  C_13
REMARK    7  A    between atoms: C_13  and  C_14
REMARK    8  A    between atoms: N_22  and  C_23
REMARK    9  A    between atoms: C_23  and  C_24
REMARK                            x       y       z     vdW  Elec       q    Type
REMARK                         _______ _______ _______ _____ _____    ______ ____
ROOT
ATOM      1  C   UNL     1       2.617   7.572  18.137  0.00  0.00    +0.000 A 
ATOM      2  C   UNL     1       3.622   7.434  17.184  0.00  0.00    +0.000 A 
ATOM      3  C   UNL     1       4.687   6.563  17.361  0.00  0.00    +0.000 A 
ATOM      4  C   UNL     1       4.779   5.835  18.535  0.00  0.00    +0.000 A 
ATOM      5  C   UNL     1       3.782   5.952  19.513  0.00  0.00    +0.000 A 
ATOM      6  C   UNL     1       2.703   6.835  19.319  0.00  0.00    +0.000 A 
ENDROOT
BRANCH   4   7
ATOM      7  S   UNL     1       6.179   4.747  18.724  0.00  0.00    +0.000 S 
ATOM      8  O   UNL     1       6.736   4.543  17.400  0.00  0.00    +0.000 OA
ATOM      9  O   UNL     1       6.968   5.251  19.820  0.00  0.00    +0.000 OA
BRANCH   7  10
ATOM     10  N   UNL     1       5.457   3.314  19.260  0.00  0.00    +0.000 NA
ATOM     11  H   UNL     1       5.120   3.409  20.220  0.00  0.00    +0.000 HD
BRANCH  10  12
ATOM     12  C   UNL     1       4.423   2.781  18.355  0.00  0.00    +0.000 C 
BRANCH  12  13
ATOM     13  C   UNL     1       3.046   2.777  18.969  0.00  0.00    +0.000 A 
ATOM     14  C   UNL     1       1.895   2.793  18.166  0.00  0.00    +0.000 A 
ATOM     15  C   UNL     1       0.626   2.777  18.749  0.00  0.00    +0.000 A 
ATOM     16  C   UNL     1       0.496   2.732  20.136  0.00  0.00    +0.000 A 
ATOM     17  C   UNL     1       1.633   2.691  20.940  0.00  0.00    +0.000 A 
ATOM     18  C   UNL     1       2.901   2.711  20.360  0.00  0.00    +0.000 A 
ENDBRANCH  12  13
ENDBRANCH  10  12
ENDBRANCH   7  10
ENDBRANCH   4   7
BRANCH   1  19
ATOM     19  O   UNL     1       1.540   8.402  17.953  0.00  0.00    +0.000 OA
BRANCH  19  20
ATOM     20  C   UNL     1       1.897   9.786  17.853  0.00  0.00    +0.000 C 
BRANCH  20  22
ATOM     21  O   UNL     1       1.470  11.511  19.519  0.00  0.00    +0.000 OA
ATOM     22  C   UNL     1       1.015  10.784  18.640  0.00  0.00    +0.000 C 
ATOM     23  N   UNL     1      -0.307  10.795  18.271  0.00  0.00    +0.000 N 
ATOM     24  H   UNL     1      -0.610  10.157  17.546  0.00  0.00    +0.000 HD
BRANCH  23  25
ATOM     25  C   UNL     1      -1.291  11.636  18.918  0.00  0.00    +0.000 C 
BRANCH  25  26
ATOM     26  C   UNL     1      -2.608  11.600  18.199  0.00  0.00    +0.000 A 
ATOM     27  C   UNL     1      -2.706  11.195  16.864  0.00  0.00    +0.000 A 
ATOM     28  C   UNL     1      -3.955  11.128  16.251  0.00  0.00    +0.000 A 
ATOM     29  C   UNL     1      -5.071  11.469  16.995  0.00  0.00    +0.000 A 
ATOM     30  N   UNL     1      -5.017  11.877  18.280  0.00  0.00    +0.000 NA
ATOM     31  C   UNL     1      -3.792  11.930  18.852  0.00  0.00    +0.000 A 
ENDBRANCH  25  26
ENDBRANCH  23  25
ENDBRANCH  20  22
ENDBRANCH  19  20
ENDBRANCH   1  19
TORSDOF 9
ENDMDL
MODEL 9
REMARK VINA RESULT:      -7.9      3.390      4.721
REMARK  Name = 
REMARK  9 active torsions:
REMARK  status: ('A' for Active; 'I' for Inactive)
REMARK    1  A    between atoms: C_2  and  C_3
REMARK    2  A    between atoms: C_3  and  O_4
REMARK    3  A    between atoms: O_4  and  C_5
REMARK    4  A    between atoms: C_8  and  S_9
REMARK    5  A    between atoms: S_9  and  N_12
REMARK    6  A    between atoms: N_12  and  C_13
REMARK    7  A    between atoms: C_13  and  C_14
REMARK    8  A    between atoms: N_22  and  C_23
REMARK    9  A    between atoms: C_23  and  C_24
REMARK                            x       y       z     vdW  Elec       q    Type
REMARK                         _______ _______ _______ _____ _____    ______ ____
ROOT
ATOM      1  C   UNL     1       1.845   8.101  19.622  0.00  0.00    +0.000 A 
ATOM      2  C   UNL     1       2.240   8.388  18.318  0.00  0.00    +0.000 A 
ATOM      3  C   UNL     1       3.060   7.536  17.595  0.00  0.00    +0.000 A 
ATOM      4  C   UNL     1       3.536   6.383  18.193  0.00  0.00    +0.000 A 
ATOM      5  C   UNL     1       3.157   6.066  19.505  0.00  0.00    +0.000 A 
ATOM      6  C   UNL     1       2.318   6.936  20.228  0.00  0.00    +0.000 A 
ENDROOT
BRANCH   4   7
ATOM      7  S   UNL     1       4.606   5.332  17.229  0.00  0.00    +0.000 S 
ATOM      8  O   UNL     1       4.926   6.058  16.015  0.00  0.00    +0.000 OA
ATOM      9  O   UNL     1       5.627   4.832  18.116  0.00  0.00    +0.000 OA
BRANCH   7  10
ATOM     10  N   UNL     1       3.597   4.026  16.859  0.00  0.00    +0.000 NA
ATOM     11  H   UNL     1       3.645   3.795  15.865  0.00  0.00    +0.000 HD
BRANCH  10  12
ATOM     12  C   UNL     1       3.795   2.845  17.717  0.00  0.00    +0.000 C 
BRANCH  12  13
ATOM     13  C   UNL     1       2.909   2.845  18.936  0.00  0.00    +0.000 A 
ATOM     14  C   UNL     1       1.517   2.988  18.821  0.00  0.00    +0.000 A 
ATOM     15  C   UNL     1       0.708   2.975  19.959  0.00  0.00    +0.000 A 
ATOM     16  C   UNL     1       1.279   2.809  21.219  0.00  0.00    +0.000 A 
ATOM     17  C   UNL     1       2.657   2.643  21.341  0.00  0.00    +0.000 A 
ATOM     18  C   UNL     1       3.467   2.659  20.207  0.00  0.00    +0.000 A 
ENDBRANCH  12  13
ENDBRANCH  10  12
ENDBRANCH   7  10
ENDBRANCH   4   7
BRANCH   1  19
ATOM     19  O   UNL     1       1.003   8.920  20.331  0.00  0.00    +0.000 OA
BRANCH  19  20
ATOM     20  C   UNL     1       1.175   8.825  21.750  0.00  0.00    +0.000 C 
BRANCH  20  22
ATOM     21  O   UNL     1       0.269   9.681  23.843  0.00  0.00    +0.000 OA
ATOM     22  C   UNL     1       0.266   9.729  22.616  0.00  0.00    +0.000 C 
ATOM     23  N   UNL     1      -0.531  10.590  21.904  0.00  0.00    +0.000 N 
ATOM     24  H   UNL     1      -0.488  10.562  20.894  0.00  0.00    +0.000 HD
BRANCH  23  25
ATOM     25  C   UNL     1      -1.473  11.487  22.539  0.00  0.00    +0.000 C 
BRANCH  25  26
ATOM     26  C   UNL     1      -0.957  12.896  22.572  0.00  0.00    +0.000 A 
ATOM     27  C   UNL     1      -1.418  13.826  23.508  0.00  0.00    +0.000 A 
ATOM     28  C   UNL     1      -0.875  15.109  23.535  0.00  0.00    +0.000 A 
ATOM     29  C   UNL     1       0.116  15.422  22.622  0.00  0.00    +0.000 A 
ATOM     30  N   UNL     1       0.579  14.558  21.695  0.00  0.00    +0.000 NA
ATOM     31  C   UNL     1       0.037  13.318  21.692  0.00  0.00    +0.000 A 
ENDBRANCH  25  26
ENDBRANCH  23  25
ENDBRANCH  20  22
ENDBRANCH  19  20
ENDBRANCH   1  19
TORSDOF 9
ENDMDL
