MODEL 1
REMARK VINA RESULT:      -8.4      0.000      0.000
REMARK  Name = 
REMARK  7 active torsions:
REMARK  status: ('A' for Active; 'I' for Inactive)
REMARK    1  A    between atoms: N_2  and  C_4
REMARK    2  A    between atoms: C_7  and  O_8
REMARK    3  A    between atoms: C_9  and  C_10
REMARK    4  A    between atoms: N_11  and  C_12
REMARK    5  A    between atoms: C_15  and  O_16
REMARK    6  A    between atoms: O_16  and  C_17
REMARK    7  A    between atoms: C_17  and  C_18
REMARK                            x       y       z     vdW  Elec       q    Type
REMARK                         _______ _______ _______ _____ _____    ______ ____
ROOT
ATOM      1  C   UNL     1       8.128   7.527  18.431  0.00  0.00    +0.000 A 
ATOM      2  C   UNL     1       8.043   6.285  19.069  0.00  0.00    +0.000 A 
ATOM      3  C   UNL     1       7.155   5.309  18.610  0.00  0.00    +0.000 A 
ATOM      4  C   UNL     1       6.315   5.578  17.530  0.00  0.00    +0.000 A 
ATOM      5  C   UNL     1       6.414   6.800  16.869  0.00  0.00    +0.000 A 
ATOM      6  C   UNL     1       7.306   7.771  17.329  0.00  0.00    +0.000 A 
ENDROOT
BRANCH   1   8
ATOM      7  C   UNL     1       8.708   9.786  18.455  0.00  0.00    +0.000 C 
ATOM      8  N   UNL     1       8.938   8.584  18.870  0.00  0.00    +0.000 NA
BRANCH   7  13
ATOM      9  C   UNL     1      10.959  12.804  18.389  0.00  0.00    +0.000 A 
ATOM     10  C   UNL     1      11.144  13.046  19.759  0.00  0.00    +0.000 A 
ATOM     11  C   UNL     1      10.527  12.216  20.701  0.00  0.00    +0.000 A 
ATOM     12  C   UNL     1       9.734  11.151  20.274  0.00  0.00    +0.000 A 
ATOM     13  C   UNL     1       9.549  10.913  18.907  0.00  0.00    +0.000 A 
ATOM     14  C   UNL     1      10.159  11.740  17.958  0.00  0.00    +0.000 A 
BRANCH   9  16
ATOM     15  O   UNL     1      12.251  14.643  17.827  0.00  0.00    +0.000 OA
ATOM     16  N   UNL     1      11.611  13.670  17.401  0.00  0.00    +0.000 N 
ATOM     17  O   UNL     1      11.491  13.380  16.204  0.00  0.00    +0.000 OA
ENDBRANCH   9  16
BRANCH  12  18
ATOM     18  O   UNL     1       9.132  10.340  21.194  0.00  0.00    +0.000 OA
ATOM     19  H   UNL     1       8.171  10.492  21.183  0.00  0.00    +0.000 HD
ENDBRANCH  12  18
ENDBRANCH   7  13
ENDBRANCH   1   8
BRANCH   4  20
ATOM     20  O   UNL     1       5.428   4.587  17.209  0.00  0.00    +0.000 OA
BRANCH  20  21
ATOM     21  C   UNL     1       4.079   5.027  17.046  0.00  0.00    +0.000 C 
BRANCH  21  22
ATOM     22  C   UNL     1       3.158   4.077  17.766  0.00  0.00    +0.000 A 
ATOM     23  C   UNL     1       3.457   2.708  17.820  0.00  0.00    +0.000 A 
ATOM     24  C   UNL     1       2.609   1.825  18.486  0.00  0.00    +0.000 A 
ATOM     25  C   UNL     1       1.455   2.302  19.104  0.00  0.00    +0.000 A 
ATOM     26  C   UNL     1       1.149   3.661  19.059  0.00  0.00    +0.000 A 
ATOM     27  C   UNL     1       1.997   4.547  18.393  0.00  0.00    +0.000 A 
ENDBRANCH  21  22
ENDBRANCH  20  21
ENDBRANCH   4  20
TORSDOF 7
ENDMDL
MODEL 2
REMARK VINA RESULT:      -8.1      0.706      1.011
REMARK  Name = 
REMARK  7 active torsions:
REMARK  status: ('A' for Active; 'I' for Inactive)
REMARK    1  A    between atoms: N_2  and  C_4
REMARK    2  A    between atoms: C_7  and  O_8
REMARK    3  A    between atoms: C_9  and  C_10
REMARK    4  A    between atoms: N_11  and  C_12
REMARK    5  A    between atoms: C_15  and  O_16
REMARK    6  A    between atoms: O_16  and  C_17
REMARK    7  A    between atoms: C_17  and  C_18
REMARK                            x       y       z     vdW  Elec       q    Type
REMARK                         _______ _______ _______ _____ _____    ______ ____
ROOT
ATOM      1  C   UNL     1       8.088   7.642  18.435  0.00  0.00    +0.000 A 
ATOM      2  C   UNL     1       8.196   6.351  18.963  0.00  0.00    +0.000 A 
ATOM      3  C   UNL     1       7.359   5.326  18.512  0.00  0.00    +0.000 A 
ATOM      4  C   UNL     1       6.381   5.590  17.554  0.00  0.00    +0.000 A 
ATOM      5  C   UNL     1       6.286   6.865  17.001  0.00  0.00    +0.000 A 
ATOM      6  C   UNL     1       7.127   7.885  17.452  0.00  0.00    +0.000 A 
ENDROOT
BRANCH   1   8
ATOM      7  C   UNL     1       8.771   9.864  18.248  0.00  0.00    +0.000 C 
ATOM      8  N   UNL     1       8.836   8.739  18.882  0.00  0.00    +0.000 NA
BRANCH   7  13
ATOM      9  C   UNL     1      10.814  13.027  18.195  0.00  0.00    +0.000 A 
ATOM     10  C   UNL     1      11.030  13.244  19.564  0.00  0.00    +0.000 A 
ATOM     11  C   UNL     1      10.502  12.351  20.502  0.00  0.00    +0.000 A 
ATOM     12  C   UNL     1       9.766  11.246  20.071  0.00  0.00    +0.000 A 
ATOM     13  C   UNL     1       9.551  11.032  18.705  0.00  0.00    +0.000 A 
ATOM     14  C   UNL     1      10.072  11.923  17.760  0.00  0.00    +0.000 A 
BRANCH   9  16
ATOM     15  O   UNL     1      12.332  13.569  16.531  0.00  0.00    +0.000 OA
ATOM     16  N   UNL     1      11.372  13.961  17.212  0.00  0.00    +0.000 N 
ATOM     17  O   UNL     1      10.854  15.081  17.113  0.00  0.00    +0.000 OA
ENDBRANCH   9  16
BRANCH  12  18
ATOM     18  O   UNL     1       9.252  10.373  20.986  0.00  0.00    +0.000 OA
ATOM     19  H   UNL     1       8.283  10.455  21.007  0.00  0.00    +0.000 HD
ENDBRANCH  12  18
ENDBRANCH   7  13
ENDBRANCH   1   8
BRANCH   4  20
ATOM     20  O   UNL     1       5.563   4.540  17.238  0.00  0.00    +0.000 OA
BRANCH  20  21
ATOM     21  C   UNL     1       4.188   4.888  17.069  0.00  0.00    +0.000 C 
BRANCH  21  22
ATOM     22  C   UNL     1       3.350   4.063  18.010  0.00  0.00    +0.000 A 
ATOM     23  C   UNL     1       1.996   3.830  17.731  0.00  0.00    +0.000 A 
ATOM     24  C   UNL     1       1.216   3.066  18.598  0.00  0.00    +0.000 A 
ATOM     25  C   UNL     1       1.783   2.529  19.752  0.00  0.00    +0.000 A 
ATOM     26  C   UNL     1       3.129   2.753  20.039  0.00  0.00    +0.000 A 
ATOM     27  C   UNL     1       3.911   3.517  19.172  0.00  0.00    +0.000 A 
ENDBRANCH  21  22
ENDBRANCH  20  21
ENDBRANCH   4  20
TORSDOF 7
ENDMDL
MODEL 3
REMARK VINA RESULT:      -7.9      5.992      8.537
REMARK  Name = 
REMARK  7 active torsions:
REMARK  status: ('A' for Active; 'I' for Inactive)
REMARK    1  A    between atoms: N_2  and  C_4
REMARK    2  A    between atoms: C_7  and  O_8
REMARK    3  A    between atoms: C_9  and  C_10
REMARK    4  A    between atoms: N_11  and  C_12
REMARK    5  A    between atoms: C_15  and  O_16
REMARK    6  A    between atoms: O_16  and  C_17
REMARK    7  A    between atoms: C_17  and  C_18
REMARK                            x       y       z     vdW  Elec       q    Type
REMARK                         _______ _______ _______ _____ _____    ______ ____
ROOT
ATOM      1  C   UNL     1       2.322   7.747  18.820  0.00  0.00    +0.000 A 
ATOM      2  C   UNL     1       1.769   7.884  20.098  0.00  0.00    +0.000 A 
ATOM      3  C   UNL     1       0.832   8.886  20.363  0.00  0.00    +0.000 A 
ATOM      4  C   UNL     1       0.465   9.785  19.363  0.00  0.00    +0.000 A 
ATOM      5  C   UNL     1       0.987   9.638  18.080  0.00  0.00    +0.000 A 
ATOM      6  C   UNL     1       1.920   8.632  17.818  0.00  0.00    +0.000 A 
ENDROOT
BRANCH   1   8
ATOM      7  C   UNL     1       4.231   7.132  17.629  0.00  0.00    +0.000 C 
ATOM      8  N   UNL     1       3.318   6.819  18.489  0.00  0.00    +0.000 NA
BRANCH   7  13
ATOM      9  C   UNL     1       6.631   5.074  15.584  0.00  0.00    +0.000 A 
ATOM     10  C   UNL     1       7.292   4.341  16.581  0.00  0.00    +0.000 A 
ATOM     11  C   UNL     1       6.948   4.526  17.924  0.00  0.00    +0.000 A 
ATOM     12  C   UNL     1       5.946   5.436  18.265  0.00  0.00    +0.000 A 
ATOM     13  C   UNL     1       5.289   6.167  17.269  0.00  0.00    +0.000 A 
ATOM     14  C   UNL     1       5.630   5.991  15.923  0.00  0.00    +0.000 A 
BRANCH   9  16
ATOM     15  O   UNL     1       7.893   5.581  13.709  0.00  0.00    +0.000 OA
ATOM     16  N   UNL     1       6.988   4.874  14.175  0.00  0.00    +0.000 N 
ATOM     17  O   UNL     1       6.371   4.013  13.535  0.00  0.00    +0.000 OA
ENDBRANCH   9  16
BRANCH  12  18
ATOM     18  O   UNL     1       5.610   5.617  19.576  0.00  0.00    +0.000 OA
ATOM     19  H   UNL     1       5.874   6.509  19.861  0.00  0.00    +0.000 HD
ENDBRANCH  12  18
ENDBRANCH   7  13
ENDBRANCH   1   8
BRANCH   4  20
ATOM     20  O   UNL     1      -0.398  10.776  19.744  0.00  0.00    +0.000 OA
BRANCH  20  21
ATOM     21  C   UNL     1      -0.680  11.742  18.731  0.00  0.00    +0.000 C 
BRANCH  21  22
ATOM     22  C   UNL     1      -2.081  11.528  18.220  0.00  0.00    +0.000 A 
ATOM     23  C   UNL     1      -3.182  11.938  18.984  0.00  0.00    +0.000 A 
ATOM     24  C   UNL     1      -4.480  11.743  18.514  0.00  0.00    +0.000 A 
ATOM     25  C   UNL     1      -4.689  11.136  17.278  0.00  0.00    +0.000 A 
ATOM     26  C   UNL     1      -3.601  10.725  16.509  0.00  0.00    +0.000 A 
ATOM     27  C   UNL     1      -2.301  10.919  16.977  0.00  0.00    +0.000 A 
ENDBRANCH  21  22
ENDBRANCH  20  21
ENDBRANCH   4  20
TORSDOF 7
ENDMDL
MODEL 4
REMARK VINA RESULT:      -7.9      0.884      1.361
REMARK  Name = 
REMARK  7 active torsions:
REMARK  status: ('A' for Active; 'I' for Inactive)
REMARK    1  A    between atoms: N_2  and  C_4
REMARK    2  A    between atoms: C_7  and  O_8
REMARK    3  A    between atoms: C_9  and  C_10
REMARK    4  A    between atoms: N_11  and  C_12
REMARK    5  A    between atoms: C_15  and  O_16
REMARK    6  A    between atoms: O_16  and  C_17
REMARK    7  A    between atoms: C_17  and  C_18
REMARK                            x       y       z     vdW  Elec       q    Type
REMARK                         _______ _______ _______ _____ _____    ______ ____
ROOT
ATOM      1  C   UNL     1       7.816   8.201  17.956  0.00  0.00    +0.000 A 
ATOM      2  C   UNL     1       6.705   8.003  17.128  0.00  0.00    +0.000 A 
ATOM      3  C   UNL     1       6.086   6.753  17.057  0.00  0.00    +0.000 A 
ATOM      4  C   UNL     1       6.593   5.677  17.785  0.00  0.00    +0.000 A 
ATOM      5  C   UNL     1       7.679   5.872  18.635  0.00  0.00    +0.000 A 
ATOM      6  C   UNL     1       8.292   7.125  18.706  0.00  0.00    +0.000 A 
ENDROOT
BRANCH   1   8
ATOM      7  C   UNL     1       8.939   9.840  19.178  0.00  0.00    +0.000 C 
ATOM      8  N   UNL     1       8.537   9.401  18.031  0.00  0.00    +0.000 NA
BRANCH   7  13
ATOM      9  C   UNL     1      10.874  12.920  18.203  0.00  0.00    +0.000 A 
ATOM     10  C   UNL     1      11.147  13.488  19.457  0.00  0.00    +0.000 A 
ATOM     11  C   UNL     1      10.694  12.857  20.620  0.00  0.00    +0.000 A 
ATOM     12  C   UNL     1       9.974  11.665  20.527  0.00  0.00    +0.000 A 
ATOM     13  C   UNL     1       9.702  11.101  19.276  0.00  0.00    +0.000 A 
ATOM     14  C   UNL     1      10.148  11.728  18.107  0.00  0.00    +0.000 A 
BRANCH   9  16
ATOM     15  O   UNL     1      11.092  14.782  16.842  0.00  0.00    +0.000 OA
ATOM     16  N   UNL     1      11.355  13.579  16.984  0.00  0.00    +0.000 N 
ATOM     17  O   UNL     1      11.997  12.901  16.171  0.00  0.00    +0.000 OA
ENDBRANCH   9  16
BRANCH  12  18
ATOM     18  O   UNL     1       9.532  11.048  21.663  0.00  0.00    +0.000 OA
ATOM     19  H   UNL     1      10.185  11.166  22.374  0.00  0.00    +0.000 HD
ENDBRANCH  12  18
ENDBRANCH   7  13
ENDBRANCH   1   8
BRANCH   4  20
ATOM     20  O   UNL     1       5.964   4.478  17.586  0.00  0.00    +0.000 OA
BRANCH  20  21
ATOM     21  C   UNL     1       5.459   3.866  18.773  0.00  0.00    +0.000 C 
BRANCH  21  22
ATOM     22  C   UNL     1       3.984   3.608  18.607  0.00  0.00    +0.000 A 
ATOM     23  C   UNL     1       3.392   2.489  19.209  0.00  0.00    +0.000 A 
ATOM     24  C   UNL     1       2.027   2.246  19.059  0.00  0.00    +0.000 A 
ATOM     25  C   UNL     1       1.243   3.119  18.307  0.00  0.00    +0.000 A 
ATOM     26  C   UNL     1       1.822   4.235  17.706  0.00  0.00    +0.000 A 
ATOM     27  C   UNL     1       3.188   4.480  17.854  0.00  0.00    +0.000 A 
ENDBRANCH  21  22
ENDBRANCH  20  21
ENDBRANCH   4  20
TORSDOF 7
ENDMDL
MODEL 5
REMARK VINA RESULT:      -7.8      6.714      9.675
REMARK  Name = 
REMARK  7 active torsions:
REMARK  status: ('A' for Active; 'I' for Inactive)
REMARK    1  A    between atoms: N_2  and  C_4
REMARK    2  A    between atoms: C_7  and  O_8
REMARK    3  A    between atoms: C_9  and  C_10
REMARK    4  A    between atoms: N_11  and  C_12
REMARK    5  A    between atoms: C_15  and  O_16
REMARK    6  A    between atoms: O_16  and  C_17
REMARK    7  A    between atoms: C_17  and  C_18
REMARK                            x       y       z     vdW  Elec       q    Type
REMARK                         _______ _______ _______ _____ _____    ______ ____
ROOT
ATOM      1  C   UNL     1       1.605   8.247  20.127  0.00  0.00    +0.000 A 
ATOM      2  C   UNL     1       1.241   8.367  21.473  0.00  0.00    +0.000 A 
ATOM      3  C   UNL     1       0.577   9.508  21.930  0.00  0.00    +0.000 A 
ATOM      4  C   UNL     1       0.302  10.558  21.056  0.00  0.00    +0.000 A 
ATOM      5  C   UNL     1       0.634  10.435  19.708  0.00  0.00    +0.000 A 
ATOM      6  C   UNL     1       1.294   9.291  19.254  0.00  0.00    +0.000 A 
ENDROOT
BRANCH   1   8
ATOM      7  C   UNL     1       2.850   7.259  18.420  0.00  0.00    +0.000 C 
ATOM      8  N   UNL     1       2.335   7.172  19.602  0.00  0.00    +0.000 NA
BRANCH   7  13
ATOM      9  C   UNL     1       5.697   5.266  16.971  0.00  0.00    +0.000 A 
ATOM     10  C   UNL     1       5.091   4.016  16.771  0.00  0.00    +0.000 A 
ATOM     11  C   UNL     1       3.748   3.832  17.114  0.00  0.00    +0.000 A 
ATOM     12  C   UNL     1       3.016   4.892  17.650  0.00  0.00    +0.000 A 
ATOM     13  C   UNL     1       3.623   6.137  17.850  0.00  0.00    +0.000 A 
ATOM     14  C   UNL     1       4.968   6.330  17.513  0.00  0.00    +0.000 A 
BRANCH   9  16
ATOM     15  O   UNL     1       7.511   6.628  16.497  0.00  0.00    +0.000 OA
ATOM     16  N   UNL     1       7.104   5.461  16.605  0.00  0.00    +0.000 N 
ATOM     17  O   UNL     1       7.804   4.455  16.429  0.00  0.00    +0.000 OA
ENDBRANCH   9  16
BRANCH  12  18
ATOM     18  O   UNL     1       1.705   4.712  17.985  0.00  0.00    +0.000 OA
ATOM     19  H   UNL     1       1.465   5.319  18.706  0.00  0.00    +0.000 HD
ENDBRANCH  12  18
ENDBRANCH   7  13
ENDBRANCH   1   8
BRANCH   4  20
ATOM     20  O   UNL     1      -0.279  11.661  21.618  0.00  0.00    +0.000 OA
BRANCH  20  21
ATOM     21  C   UNL     1      -1.067  11.393  22.778  0.00  0.00    +0.000 C 
BRANCH  21  22
ATOM     22  C   UNL     1      -2.395  12.092  22.647  0.00  0.00    +0.000 A 
ATOM     23  C   UNL     1      -3.232  12.234  23.762  0.00  0.00    +0.000 A 
ATOM     24  C   UNL     1      -4.461  12.882  23.646  0.00  0.00    +0.000 A 
ATOM     25  C   UNL     1      -4.864  13.393  22.415  0.00  0.00    +0.000 A 
ATOM     26  C   UNL     1      -4.038  13.260  21.299  0.00  0.00    +0.000 A 
ATOM     27  C   UNL     1      -2.808  12.612  21.413  0.00  0.00    +0.000 A 
ENDBRANCH  21  22
ENDBRANCH  20  21
ENDBRANCH   4  20
TORSDOF 7
ENDMDL
MODEL 6
REMARK VINA RESULT:      -7.7      6.974      9.899
REMARK  Name = 
REMARK  7 active torsions:
REMARK  status: ('A' for Active; 'I' for Inactive)
REMARK    1  A    between atoms: N_2  and  C_4
REMARK    2  A    between atoms: C_7  and  O_8
REMARK    3  A    between atoms: C_9  and  C_10
REMARK    4  A    between atoms: N_11  and  C_12
REMARK    5  A    between atoms: C_15  and  O_16
REMARK    6  A    between atoms: O_16  and  C_17
REMARK    7  A    between atoms: C_17  and  C_18
REMARK                            x       y       z     vdW  Elec       q    Type
REMARK                         _______ _______ _______ _____ _____    ______ ____
ROOT
ATOM      1  C   UNL     1       1.643   8.293  19.954  0.00  0.00    +0.000 A 
ATOM      2  C   UNL     1       1.178   9.364  19.183  0.00  0.00    +0.000 A 
ATOM      3  C   UNL     1       0.365  10.348  19.751  0.00  0.00    +0.000 A 
ATOM      4  C   UNL     1      -0.023  10.252  21.087  0.00  0.00    +0.000 A 
ATOM      5  C   UNL     1       0.459   9.205  21.869  0.00  0.00    +0.000 A 
ATOM      6  C   UNL     1       1.275   8.227  21.299  0.00  0.00    +0.000 A 
ENDROOT
BRANCH   1   8
ATOM      7  C   UNL     1       2.818   7.261  18.223  0.00  0.00    +0.000 C 
ATOM      8  N   UNL     1       2.400   7.229  19.446  0.00  0.00    +0.000 NA
BRANCH   7  13
ATOM      9  C   UNL     1       5.667   5.348  16.674  0.00  0.00    +0.000 A 
ATOM     10  C   UNL     1       5.138   4.050  16.622  0.00  0.00    +0.000 A 
ATOM     11  C   UNL     1       3.845   3.806  17.097  0.00  0.00    +0.000 A 
ATOM     12  C   UNL     1       3.088   4.857  17.618  0.00  0.00    +0.000 A 
ATOM     13  C   UNL     1       3.618   6.150  17.670  0.00  0.00    +0.000 A 
ATOM     14  C   UNL     1       4.912   6.402  17.201  0.00  0.00    +0.000 A 
BRANCH   9  16
ATOM     15  O   UNL     1       7.578   6.651  16.533  0.00  0.00    +0.000 OA
ATOM     16  N   UNL     1       7.021   5.605  16.170  0.00  0.00    +0.000 N 
ATOM     17  O   UNL     1       7.530   4.764  15.417  0.00  0.00    +0.000 OA
ENDBRANCH   9  16
BRANCH  12  18
ATOM     18  O   UNL     1       1.825   4.619  18.082  0.00  0.00    +0.000 OA
ATOM     19  H   UNL     1       1.867   4.327  19.009  0.00  0.00    +0.000 HD
ENDBRANCH  12  18
ENDBRANCH   7  13
ENDBRANCH   1   8
BRANCH   4  20
ATOM     20  O   UNL     1      -0.883  11.222  21.525  0.00  0.00    +0.000 OA
BRANCH  20  21
ATOM     21  C   UNL     1      -1.255  11.110  22.899  0.00  0.00    +0.000 C 
BRANCH  21  22
ATOM     22  C   UNL     1      -1.985  12.360  23.317  0.00  0.00    +0.000 A 
ATOM     23  C   UNL     1      -3.332  12.296  23.700  0.00  0.00    +0.000 A 
ATOM     24  C   UNL     1      -4.011  13.450  24.089  0.00  0.00    +0.000 A 
ATOM     25  C   UNL     1      -3.351  14.677  24.098  0.00  0.00    +0.000 A 
ATOM     26  C   UNL     1      -2.011  14.751  23.721  0.00  0.00    +0.000 A 
ATOM     27  C   UNL     1      -1.329  13.598  23.332  0.00  0.00    +0.000 A 
ENDBRANCH  21  22
ENDBRANCH  20  21
ENDBRANCH   4  20
TORSDOF 7
ENDMDL
MODEL 7
REMARK VINA RESULT:      -7.7      6.310      9.388
REMARK  Name = 
REMARK  7 active torsions:
REMARK  status: ('A' for Active; 'I' for Inactive)
REMARK    1  A    between atoms: N_2  and  C_4
REMARK    2  A    between atoms: C_7  and  O_8
REMARK    3  A    between atoms: C_9  and  C_10
REMARK    4  A    between atoms: N_11  and  C_12
REMARK    5  A    between atoms: C_15  and  O_16
REMARK    6  A    between atoms: O_16  and  C_17
REMARK    7  A    between atoms: C_17  and  C_18
REMARK                            x       y       z     vdW  Elec       q    Type
REMARK                         _______ _______ _______ _____ _____    ______ ____
ROOT
ATOM      1  C   UNL     1       1.546   8.485  19.731  0.00  0.00    +0.000 A 
ATOM      2  C   UNL     1       1.279   9.573  18.892  0.00  0.00    +0.000 A 
ATOM      3  C   UNL     1       0.414  10.591  19.303  0.00  0.00    +0.000 A 
ATOM      4  C   UNL     1      -0.222  10.513  20.541  0.00  0.00    +0.000 A 
ATOM      5  C   UNL     1       0.061   9.449  21.394  0.00  0.00    +0.000 A 
ATOM      6  C   UNL     1       0.929   8.437  20.982  0.00  0.00    +0.000 A 
ENDROOT
BRANCH   1   8
ATOM      7  C   UNL     1       2.724   7.248  18.141  0.00  0.00    +0.000 C 
ATOM      8  N   UNL     1       2.342   7.390  19.368  0.00  0.00    +0.000 NA
BRANCH   7  13
ATOM      9  C   UNL     1       5.716   5.216  17.097  0.00  0.00    +0.000 A 
ATOM     10  C   UNL     1       5.157   3.934  16.981  0.00  0.00    +0.000 A 
ATOM     11  C   UNL     1       3.798   3.741  17.247  0.00  0.00    +0.000 A 
ATOM     12  C   UNL     1       3.004   4.824  17.624  0.00  0.00    +0.000 A 
ATOM     13  C   UNL     1       3.563   6.101  17.741  0.00  0.00    +0.000 A 
ATOM     14  C   UNL     1       4.923   6.303  17.480  0.00  0.00    +0.000 A 
BRANCH   9  16
ATOM     15  O   UNL     1       7.909   4.471  17.031  0.00  0.00    +0.000 OA
ATOM     16  N   UNL     1       7.140   5.419  16.812  0.00  0.00    +0.000 N 
ATOM     17  O   UNL     1       7.493   6.519  16.366  0.00  0.00    +0.000 OA
ENDBRANCH   9  16
BRANCH  12  18
ATOM     18  O   UNL     1       1.676   4.636  17.884  0.00  0.00    +0.000 OA
ATOM     19  H   UNL     1       1.408   5.192  18.635  0.00  0.00    +0.000 HD
ENDBRANCH  12  18
ENDBRANCH   7  13
ENDBRANCH   1   8
BRANCH   4  20
ATOM     20  O   UNL     1      -1.109  11.518  20.815  0.00  0.00    +0.000 OA
BRANCH  20  21
ATOM     21  C   UNL     1      -1.445  12.337  19.694  0.00  0.00    +0.000 C 
BRANCH  21  22
ATOM     22  C   UNL     1      -2.872  12.066  19.293  0.00  0.00    +0.000 A 
ATOM     23  C   UNL     1      -3.151  11.268  18.175  0.00  0.00    +0.000 A 
ATOM     24  C   UNL     1      -4.470  11.013  17.801  0.00  0.00    +0.000 A 
ATOM     25  C   UNL     1      -5.520  11.554  18.539  0.00  0.00    +0.000 A 
ATOM     26  C   UNL     1      -5.253  12.349  19.654  0.00  0.00    +0.000 A 
ATOM     27  C   UNL     1      -3.934  12.605  20.030  0.00  0.00    +0.000 A 
ENDBRANCH  21  22
ENDBRANCH  20  21
ENDBRANCH   4  20
TORSDOF 7
ENDMDL
MODEL 8
REMARK VINA RESULT:      -7.7      6.811      9.846
REMARK  Name = 
REMARK  7 active torsions:
REMARK  status: ('A' for Active; 'I' for Inactive)
REMARK    1  A    between atoms: N_2  and  C_4
REMARK    2  A    between atoms: C_7  and  O_8
REMARK    3  A    between atoms: C_9  and  C_10
REMARK    4  A    between atoms: N_11  and  C_12
REMARK    5  A    between atoms: C_15  and  O_16
REMARK    6  A    between atoms: O_16  and  C_17
REMARK    7  A    between atoms: C_17  and  C_18
REMARK                            x       y       z     vdW  Elec       q    Type
REMARK                         _______ _______ _______ _____ _____    ______ ____
ROOT
ATOM      1  C   UNL     1       1.585   8.376  19.855  0.00  0.00    +0.000 A 
ATOM      2  C   UNL     1       1.278   9.465  19.031  0.00  0.00    +0.000 A 
ATOM      3  C   UNL     1       0.498  10.521  19.510  0.00  0.00    +0.000 A 
ATOM      4  C   UNL     1      -0.016  10.482  20.806  0.00  0.00    +0.000 A 
ATOM      5  C   UNL     1       0.309   9.416  21.642  0.00  0.00    +0.000 A 
ATOM      6  C   UNL     1       1.093   8.366  21.161  0.00  0.00    +0.000 A 
ENDROOT
BRANCH   1   8
ATOM      7  C   UNL     1       2.830   7.225  18.253  0.00  0.00    +0.000 C 
ATOM      8  N   UNL     1       2.298   7.247  19.431  0.00  0.00    +0.000 NA
BRANCH   7  13
ATOM      9  C   UNL     1       5.663   5.052  17.060  0.00  0.00    +0.000 A 
ATOM     10  C   UNL     1       5.023   3.812  16.912  0.00  0.00    +0.000 A 
ATOM     11  C   UNL     1       3.661   3.693  17.206  0.00  0.00    +0.000 A 
ATOM     12  C   UNL     1       2.945   4.809  17.642  0.00  0.00    +0.000 A 
ATOM     13  C   UNL     1       3.586   6.044  17.790  0.00  0.00    +0.000 A 
ATOM     14  C   UNL     1       4.950   6.171  17.502  0.00  0.00    +0.000 A 
BRANCH   9  16
ATOM     15  O   UNL     1       7.412   5.979  15.856  0.00  0.00    +0.000 OA
ATOM     16  N   UNL     1       7.090   5.177  16.745  0.00  0.00    +0.000 N 
ATOM     17  O   UNL     1       7.890   4.481  17.385  0.00  0.00    +0.000 OA
ENDBRANCH   9  16
BRANCH  12  18
ATOM     18  O   UNL     1       1.615   4.694  17.929  0.00  0.00    +0.000 OA
ATOM     19  H   UNL     1       1.310   5.493  18.392  0.00  0.00    +0.000 HD
ENDBRANCH  12  18
ENDBRANCH   7  13
ENDBRANCH   1   8
BRANCH   4  20
ATOM     20  O   UNL     1      -0.832  11.523  21.151  0.00  0.00    +0.000 OA
BRANCH  20  21
ATOM     21  C   UNL     1      -1.206  11.555  22.530  0.00  0.00    +0.000 C 
BRANCH  21  22
ATOM     22  C   UNL     1      -2.579  12.162  22.656  0.00  0.00    +0.000 A 
ATOM     23  C   UNL     1      -3.211  12.223  23.906  0.00  0.00    +0.000 A 
ATOM     24  C   UNL     1      -4.481  12.784  24.029  0.00  0.00    +0.000 A 
ATOM     25  C   UNL     1      -5.130  13.289  22.904  0.00  0.00    +0.000 A 
ATOM     26  C   UNL     1      -4.510  13.235  21.657  0.00  0.00    +0.000 A 
ATOM     27  C   UNL     1      -3.239  12.673  21.532  0.00  0.00    +0.000 A 
ENDBRANCH  21  22
ENDBRANCH  20  21
ENDBRANCH   4  20
TORSDOF 7
ENDMDL
MODEL 9
REMARK VINA RESULT:      -7.7      6.937      9.839
REMARK  Name = 
REMARK  7 active torsions:
REMARK  status: ('A' for Active; 'I' for Inactive)
REMARK    1  A    between atoms: N_2  and  C_4
REMARK    2  A    between atoms: C_7  and  O_8
REMARK    3  A    between atoms: C_9  and  C_10
REMARK    4  A    between atoms: N_11  and  C_12
REMARK    5  A    between atoms: C_15  and  O_16
REMARK    6  A    between atoms: O_16  and  C_17
REMARK    7  A    between atoms: C_17  and  C_18
REMARK                            x       y       z     vdW  Elec       q    Type
REMARK                         _______ _______ _______ _____ _____    ______ ____
ROOT
ATOM      1  C   UNL     1       1.632   8.122  20.231  0.00  0.00    +0.000 A 
ATOM      2  C   UNL     1       1.309   8.160  21.592  0.00  0.00    +0.000 A 
ATOM      3  C   UNL     1       0.684   9.281  22.143  0.00  0.00    +0.000 A 
ATOM      4  C   UNL     1       0.407  10.392  21.347  0.00  0.00    +0.000 A 
ATOM      5  C   UNL     1       0.698  10.352  19.985  0.00  0.00    +0.000 A 
ATOM      6  C   UNL     1       1.319   9.227  19.438  0.00  0.00    +0.000 A 
ENDROOT
BRANCH   1   8
ATOM      7  C   UNL     1       2.898   7.257  18.473  0.00  0.00    +0.000 C 
ATOM      8  N   UNL     1       2.323   7.070  19.616  0.00  0.00    +0.000 NA
BRANCH   7  13
ATOM      9  C   UNL     1       5.626   5.344  16.720  0.00  0.00    +0.000 A 
ATOM     10  C   UNL     1       5.024   4.088  16.552  0.00  0.00    +0.000 A 
ATOM     11  C   UNL     1       3.723   3.873  17.017  0.00  0.00    +0.000 A 
ATOM     12  C   UNL     1       3.029   4.909  17.643  0.00  0.00    +0.000 A 
ATOM     13  C   UNL     1       3.632   6.161  17.810  0.00  0.00    +0.000 A 
ATOM     14  C   UNL     1       4.935   6.384  17.351  0.00  0.00    +0.000 A 
BRANCH   9  16
ATOM     15  O   UNL     1       7.519   6.660  16.492  0.00  0.00    +0.000 OA
ATOM     16  N   UNL     1       6.989   5.572  16.226  0.00  0.00    +0.000 N 
ATOM     17  O   UNL     1       7.531   4.667  15.578  0.00  0.00    +0.000 OA
ENDBRANCH   9  16
BRANCH  12  18
ATOM     18  O   UNL     1       1.758   4.699  18.097  0.00  0.00    +0.000 OA
ATOM     19  H   UNL     1       1.175   4.486  17.348  0.00  0.00    +0.000 HD
ENDBRANCH  12  18
ENDBRANCH   7  13
ENDBRANCH   1   8
BRANCH   4  20
ATOM     20  O   UNL     1      -0.133  11.467  21.998  0.00  0.00    +0.000 OA
BRANCH  20  21
ATOM     21  C   UNL     1      -1.136  11.139  22.961  0.00  0.00    +0.000 C 
BRANCH  21  22
ATOM     22  C   UNL     1      -1.922  12.378  23.299  0.00  0.00    +0.000 A 
ATOM     23  C   UNL     1      -1.285  13.625  23.354  0.00  0.00    +0.000 A 
ATOM     24  C   UNL     1      -2.009  14.776  23.665  0.00  0.00    +0.000 A 
ATOM     25  C   UNL     1      -3.375  14.689  23.925  0.00  0.00    +0.000 A 
ATOM     26  C   UNL     1      -4.019  13.453  23.872  0.00  0.00    +0.000 A 
ATOM     27  C   UNL     1      -3.296  12.301  23.560  0.00  0.00    +0.000 A 
ENDBRANCH  21  22
ENDBRANCH  20  21
ENDBRANCH   4  20
TORSDOF 7
ENDMDL
