MODEL 1
REMARK VINA RESULT:      -7.6      0.000      0.000
REMARK  Name = 
REMARK  7 active torsions:
REMARK  status: ('A' for Active; 'I' for Inactive)
REMARK    1  A    between atoms: C_1  and  C_2
REMARK    2  A    between atoms: C_2  and  C_3
REMARK    3  A    between atoms: N_11  and  C1*_12
REMARK    4  A    between atoms: C4*_14  and  C5*_15
REMARK    5  A    between atoms: C5*_15  and  O5*_16
REMARK    6  A    between atoms: C3*_17  and  O3*_18
REMARK    7  A    between atoms: C2*_19  and  O2*_20
REMARK                            x       y       z     vdW  Elec       q    Type
REMARK                         _______ _______ _______ _____ _____    ______ ____
ROOT
ATOM      1  C1* UNL     1       5.544   4.841  18.549  0.00  0.00    +0.000 C 
ATOM      2  O4* UNL     1       6.310   5.981  18.998  0.00  0.00    +0.000 OA
ATOM      3  C4* UNL     1       7.411   6.182  18.077  0.00  0.00    +0.000 C 
ATOM      4  C3* UNL     1       7.263   5.150  16.957  0.00  0.00    +0.000 C 
ATOM      5  C2* UNL     1       5.809   4.705  17.051  0.00  0.00    +0.000 C 
ENDROOT
BRANCH   1  14
ATOM      6  C   UNL     1       3.325   6.059  18.531  0.00  0.00    +0.000 A 
ATOM      7  N   UNL     1       2.122   5.927  19.055  0.00  0.00    +0.000 NA
ATOM      8  C   UNL     1       2.149   4.775  19.787  0.00  0.00    +0.000 A 
ATOM      9  C   UNL     1       1.129   4.178  20.541  0.00  0.00    +0.000 A 
ATOM     10  C   UNL     1       1.391   2.979  21.213  0.00  0.00    +0.000 A 
ATOM     11  C   UNL     1       2.647   2.385  21.133  0.00  0.00    +0.000 A 
ATOM     12  C   UNL     1       3.674   2.969  20.386  0.00  0.00    +0.000 A 
ATOM     13  C   UNL     1       3.401   4.170  19.718  0.00  0.00    +0.000 A 
ATOM     14  N   UNL     1       4.147   5.013  18.916  0.00  0.00    +0.000 N 
BRANCH   6  16
ATOM     15  C   UNL     1       2.705   8.330  17.720  0.00  0.00    +0.000 C 
ATOM     16  C   UNL     1       3.709   7.191  17.634  0.00  0.00    +0.000 C 
ENDBRANCH   6  16
ENDBRANCH   1  14
BRANCH   4  17
ATOM     17  O3* UNL     1       8.095   3.994  17.173  0.00  0.00    +0.000 OA
ATOM     18  H3* UNL     1       8.014   3.702  18.100  0.00  0.00    +0.000 HD
ENDBRANCH   4  17
BRANCH   5  19
ATOM     19  O2* UNL     1       5.638   3.373  16.570  0.00  0.00    +0.000 OA
ATOM     20  H2* UNL     1       6.055   3.342  15.683  0.00  0.00    +0.000 HD
ENDBRANCH   5  19
BRANCH   3  21
ATOM     21  C5* UNL     1       7.382   7.627  17.574  0.00  0.00    +0.000 C 
BRANCH  21  22
ATOM     22  O5* UNL     1       8.343   8.411  18.275  0.00  0.00    +0.000 OA
ATOM     23  H5* UNL     1       8.228   8.215  19.226  0.00  0.00    +0.000 HD
ENDBRANCH  21  22
ENDBRANCH   3  21
TORSDOF 6
ENDMDL
MODEL 2
REMARK VINA RESULT:      -7.3      2.570      5.114
REMARK  Name = 
REMARK  7 active torsions:
REMARK  status: ('A' for Active; 'I' for Inactive)
REMARK    1  A    between atoms: C_1  and  C_2
REMARK    2  A    between atoms: C_2  and  C_3
REMARK    3  A    between atoms: N_11  and  C1*_12
REMARK    4  A    between atoms: C4*_14  and  C5*_15
REMARK    5  A    between atoms: C5*_15  and  O5*_16
REMARK    6  A    between atoms: C3*_17  and  O3*_18
REMARK    7  A    between atoms: C2*_19  and  O2*_20
REMARK                            x       y       z     vdW  Elec       q    Type
REMARK                         _______ _______ _______ _____ _____    ______ ____
ROOT
ATOM      1  C1* UNL     1       2.588   4.722  18.903  0.00  0.00    +0.000 C 
ATOM      2  O4* UNL     1       3.403   4.307  20.020  0.00  0.00    +0.000 OA
ATOM      3  C4* UNL     1       2.937   3.010  20.469  0.00  0.00    +0.000 C 
ATOM      4  C3* UNL     1       1.819   2.574  19.519  0.00  0.00    +0.000 C 
ATOM      5  C2* UNL     1       2.018   3.447  18.286  0.00  0.00    +0.000 C 
ENDROOT
BRANCH   1  14
ATOM      6  C   UNL     1       3.306   6.924  17.880  0.00  0.00    +0.000 A 
ATOM      7  N   UNL     1       4.137   7.357  16.952  0.00  0.00    +0.000 NA
ATOM      8  C   UNL     1       4.769   6.251  16.460  0.00  0.00    +0.000 A 
ATOM      9  C   UNL     1       5.748   6.159  15.460  0.00  0.00    +0.000 A 
ATOM     10  C   UNL     1       6.259   4.902  15.121  0.00  0.00    +0.000 A 
ATOM     11  C   UNL     1       5.804   3.757  15.768  0.00  0.00    +0.000 A 
ATOM     12  C   UNL     1       4.829   3.833  16.766  0.00  0.00    +0.000 A 
ATOM     13  C   UNL     1       4.323   5.097  17.098  0.00  0.00    +0.000 A 
ATOM     14  N   UNL     1       3.376   5.546  17.999  0.00  0.00    +0.000 N 
BRANCH   6  16
ATOM     15  C   UNL     1       1.856   8.947  17.831  0.00  0.00    +0.000 C 
ATOM     16  C   UNL     1       2.432   7.830  18.686  0.00  0.00    +0.000 C 
ENDBRANCH   6  16
ENDBRANCH   1  14
BRANCH   4  17
ATOM     17  O3* UNL     1       0.513   2.856  20.055  0.00  0.00    +0.000 OA
ATOM     18  H3* UNL     1       0.053   3.495  19.478  0.00  0.00    +0.000 HD
ENDBRANCH   4  17
BRANCH   5  19
ATOM     19  O2* UNL     1       0.790   3.659  17.593  0.00  0.00    +0.000 OA
ATOM     20  H2* UNL     1       0.882   4.513  17.120  0.00  0.00    +0.000 HD
ENDBRANCH   5  19
BRANCH   3  21
ATOM     21  C5* UNL     1       4.118   2.038  20.498  0.00  0.00    +0.000 C 
BRANCH  21  22
ATOM     22  O5* UNL     1       5.237   2.604  19.823  0.00  0.00    +0.000 OA
ATOM     23  H5* UNL     1       5.990   2.573  20.446  0.00  0.00    +0.000 HD
ENDBRANCH  21  22
ENDBRANCH   3  21
TORSDOF 6
ENDMDL
MODEL 3
REMARK VINA RESULT:      -7.2      1.624      1.679
REMARK  Name = 
REMARK  7 active torsions:
REMARK  status: ('A' for Active; 'I' for Inactive)
REMARK    1  A    between atoms: C_1  and  C_2
REMARK    2  A    between atoms: C_2  and  C_3
REMARK    3  A    between atoms: N_11  and  C1*_12
REMARK    4  A    between atoms: C4*_14  and  C5*_15
REMARK    5  A    between atoms: C5*_15  and  O5*_16
REMARK    6  A    between atoms: C3*_17  and  O3*_18
REMARK    7  A    between atoms: C2*_19  and  O2*_20
REMARK                            x       y       z     vdW  Elec       q    Type
REMARK                         _______ _______ _______ _____ _____    ______ ____
ROOT
ATOM      1  C1* UNL     1       5.253   4.602  17.391  0.00  0.00    +0.000 C 
ATOM      2  O4* UNL     1       6.213   4.449  18.460  0.00  0.00    +0.000 OA
ATOM      3  C4* UNL     1       7.473   5.019  18.027  0.00  0.00    +0.000 C 
ATOM      4  C3* UNL     1       7.248   5.625  16.640  0.00  0.00    +0.000 C 
ATOM      5  C2* UNL     1       5.734   5.778  16.544  0.00  0.00    +0.000 C 
ENDROOT
BRANCH   1  14
ATOM      6  C   UNL     1       3.241   5.940  18.143  0.00  0.00    +0.000 A 
ATOM      7  N   UNL     1       2.060   5.724  18.689  0.00  0.00    +0.000 NA
ATOM      8  C   UNL     1       1.953   4.372  18.846  0.00  0.00    +0.000 A 
ATOM      9  C   UNL     1       0.895   3.620  19.377  0.00  0.00    +0.000 A 
ATOM     10  C   UNL     1       1.011   2.228  19.434  0.00  0.00    +0.000 A 
ATOM     11  C   UNL     1       2.160   1.594  18.969  0.00  0.00    +0.000 A 
ATOM     12  C   UNL     1       3.222   2.331  18.438  0.00  0.00    +0.000 A 
ATOM     13  C   UNL     1       3.096   3.725  18.385  0.00  0.00    +0.000 A 
ATOM     14  N   UNL     1       3.918   4.748  17.947  0.00  0.00    +0.000 N 
BRANCH   6  16
ATOM     15  C   UNL     1       2.616   8.323  17.785  0.00  0.00    +0.000 C 
ATOM     16  C   UNL     1       3.742   7.301  17.783  0.00  0.00    +0.000 C 
ENDBRANCH   6  16
ENDBRANCH   1  14
BRANCH   4  17
ATOM     17  O3* UNL     1       7.671   4.738  15.587  0.00  0.00    +0.000 OA
ATOM     18  H3* UNL     1       7.374   5.086  14.727  0.00  0.00    +0.000 HD
ENDBRANCH   4  17
BRANCH   5  19
ATOM     19  O2* UNL     1       5.289   5.713  15.190  0.00  0.00    +0.000 OA
ATOM     20  H2* UNL     1       5.681   4.900  14.807  0.00  0.00    +0.000 HD
ENDBRANCH   5  19
BRANCH   3  21
ATOM     21  C5* UNL     1       7.939   6.043  19.064  0.00  0.00    +0.000 C 
BRANCH  21  22
ATOM     22  O5* UNL     1       7.911   5.470  20.368  0.00  0.00    +0.000 OA
ATOM     23  H5* UNL     1       8.353   4.600  20.305  0.00  0.00    +0.000 HD
ENDBRANCH  21  22
ENDBRANCH   3  21
TORSDOF 6
ENDMDL
MODEL 4
REMARK VINA RESULT:      -7.2      2.404      5.602
REMARK  Name = 
REMARK  7 active torsions:
REMARK  status: ('A' for Active; 'I' for Inactive)
REMARK    1  A    between atoms: C_1  and  C_2
REMARK    2  A    between atoms: C_2  and  C_3
REMARK    3  A    between atoms: N_11  and  C1*_12
REMARK    4  A    between atoms: C4*_14  and  C5*_15
REMARK    5  A    between atoms: C5*_15  and  O5*_16
REMARK    6  A    between atoms: C3*_17  and  O3*_18
REMARK    7  A    between atoms: C2*_19  and  O2*_20
REMARK                            x       y       z     vdW  Elec       q    Type
REMARK                         _______ _______ _______ _____ _____    ______ ____
ROOT
ATOM      1  C1* UNL     1       5.274   5.422  18.568  0.00  0.00    +0.000 C 
ATOM      2  O4* UNL     1       5.554   4.172  19.235  0.00  0.00    +0.000 OA
ATOM      3  C4* UNL     1       4.337   3.714  19.877  0.00  0.00    +0.000 C 
ATOM      4  C3* UNL     1       3.229   4.706  19.515  0.00  0.00    +0.000 C 
ATOM      5  C2* UNL     1       3.771   5.438  18.293  0.00  0.00    +0.000 C 
ENDROOT
BRANCH   1  14
ATOM      6  C   UNL     1       7.228   6.368  17.268  0.00  0.00    +0.000 A 
ATOM      7  N   UNL     1       7.754   6.267  16.063  0.00  0.00    +0.000 NA
ATOM      8  C   UNL     1       6.986   5.363  15.386  0.00  0.00    +0.000 A 
ATOM      9  C   UNL     1       7.116   4.896  14.070  0.00  0.00    +0.000 A 
ATOM     10  C   UNL     1       6.200   3.956  13.588  0.00  0.00    +0.000 A 
ATOM     11  C   UNL     1       5.173   3.487  14.403  0.00  0.00    +0.000 A 
ATOM     12  C   UNL     1       5.031   3.944  15.716  0.00  0.00    +0.000 A 
ATOM     13  C   UNL     1       5.954   4.887  16.189  0.00  0.00    +0.000 A 
ATOM     14  N   UNL     1       6.118   5.550  17.391  0.00  0.00    +0.000 N 
BRANCH   6  16
ATOM     15  C   UNL     1       8.017   8.662  17.829  0.00  0.00    +0.000 C 
ATOM     16  C   UNL     1       7.792   7.247  18.337  0.00  0.00    +0.000 C 
ENDBRANCH   6  16
ENDBRANCH   1  14
BRANCH   4  17
ATOM     17  O3* UNL     1       3.014   5.679  20.554  0.00  0.00    +0.000 OA
ATOM     18  H3* UNL     1       3.072   6.578  20.180  0.00  0.00    +0.000 HD
ENDBRANCH   4  17
BRANCH   5  19
ATOM     19  O2* UNL     1       3.234   6.756  18.193  0.00  0.00    +0.000 OA
ATOM     20  H2* UNL     1       2.258   6.662  18.233  0.00  0.00    +0.000 HD
ENDBRANCH   5  19
BRANCH   3  21
ATOM     21  C5* UNL     1       4.039   2.285  19.419  0.00  0.00    +0.000 C 
BRANCH  21  22
ATOM     22  O5* UNL     1       5.093   1.412  19.815  0.00  0.00    +0.000 OA
ATOM     23  H5* UNL     1       5.295   1.618  20.749  0.00  0.00    +0.000 HD
ENDBRANCH  21  22
ENDBRANCH   3  21
TORSDOF 6
ENDMDL
MODEL 5
REMARK VINA RESULT:      -7.1      2.646      5.169
REMARK  Name = 
REMARK  7 active torsions:
REMARK  status: ('A' for Active; 'I' for Inactive)
REMARK    1  A    between atoms: C_1  and  C_2
REMARK    2  A    between atoms: C_2  and  C_3
REMARK    3  A    between atoms: N_11  and  C1*_12
REMARK    4  A    between atoms: C4*_14  and  C5*_15
REMARK    5  A    between atoms: C5*_15  and  O5*_16
REMARK    6  A    between atoms: C3*_17  and  O3*_18
REMARK    7  A    between atoms: C2*_19  and  O2*_20
REMARK                            x       y       z     vdW  Elec       q    Type
REMARK                         _______ _______ _______ _____ _____    ______ ____
ROOT
ATOM      1  C1* UNL     1       4.018   3.450  17.527  0.00  0.00    +0.000 C 
ATOM      2  O4* UNL     1       2.681   3.051  17.152  0.00  0.00    +0.000 OA
ATOM      3  C4* UNL     1       2.248   2.003  18.055  0.00  0.00    +0.000 C 
ATOM      4  C3* UNL     1       3.358   1.804  19.090  0.00  0.00    +0.000 C 
ATOM      5  C2* UNL     1       4.181   3.083  19.001  0.00  0.00    +0.000 C 
ENDROOT
BRANCH   1  14
ATOM      6  C   UNL     1       5.194   5.381  16.388  0.00  0.00    +0.000 A 
ATOM      7  N   UNL     1       5.112   6.696  16.339  0.00  0.00    +0.000 NA
ATOM      8  C   UNL     1       4.060   7.044  17.138  0.00  0.00    +0.000 A 
ATOM      9  C   UNL     1       3.548   8.316  17.429  0.00  0.00    +0.000 A 
ATOM     10  C   UNL     1       2.446   8.427  18.284  0.00  0.00    +0.000 A 
ATOM     11  C   UNL     1       1.864   7.291  18.838  0.00  0.00    +0.000 A 
ATOM     12  C   UNL     1       2.365   6.016  18.557  0.00  0.00    +0.000 A 
ATOM     13  C   UNL     1       3.469   5.916  17.700  0.00  0.00    +0.000 A 
ATOM     14  N   UNL     1       4.215   4.857  17.217  0.00  0.00    +0.000 N 
BRANCH   6  16
ATOM     15  C   UNL     1       5.701   4.232  14.238  0.00  0.00    +0.000 C 
ATOM     16  C   UNL     1       6.210   4.594  15.626  0.00  0.00    +0.000 C 
ENDBRANCH   6  16
ENDBRANCH   1  14
BRANCH   4  17
ATOM     17  O3* UNL     1       4.218   0.699  18.755  0.00  0.00    +0.000 OA
ATOM     18  H3* UNL     1       5.029   1.033  18.327  0.00  0.00    +0.000 HD
ENDBRANCH   4  17
BRANCH   5  19
ATOM     19  O2* UNL     1       5.539   2.857  19.375  0.00  0.00    +0.000 OA
ATOM     20  H2* UNL     1       5.727   3.464  20.121  0.00  0.00    +0.000 HD
ENDBRANCH   5  19
BRANCH   3  21
ATOM     21  C5* UNL     1       0.908   2.402  18.676  0.00  0.00    +0.000 C 
BRANCH  21  22
ATOM     22  O5* UNL     1       1.053   2.590  20.080  0.00  0.00    +0.000 OA
ATOM     23  H5* UNL     1       1.995   2.797  20.242  0.00  0.00    +0.000 HD
ENDBRANCH  21  22
ENDBRANCH   3  21
TORSDOF 6
ENDMDL
MODEL 6
REMARK VINA RESULT:      -7.1      1.922      2.909
REMARK  Name = 
REMARK  7 active torsions:
REMARK  status: ('A' for Active; 'I' for Inactive)
REMARK    1  A    between atoms: C_1  and  C_2
REMARK    2  A    between atoms: C_2  and  C_3
REMARK    3  A    between atoms: N_11  and  C1*_12
REMARK    4  A    between atoms: C4*_14  and  C5*_15
REMARK    5  A    between atoms: C5*_15  and  O5*_16
REMARK    6  A    between atoms: C3*_17  and  O3*_18
REMARK    7  A    between atoms: C2*_19  and  O2*_20
REMARK                            x       y       z     vdW  Elec       q    Type
REMARK                         _______ _______ _______ _____ _____    ______ ____
ROOT
ATOM      1  C1* UNL     1       4.935   5.956  16.892  0.00  0.00    +0.000 C 
ATOM      2  O4* UNL     1       4.856   5.464  15.536  0.00  0.00    +0.000 OA
ATOM      3  C4* UNL     1       6.192   5.105  15.103  0.00  0.00    +0.000 C 
ATOM      4  C3* UNL     1       7.130   5.318  16.292  0.00  0.00    +0.000 C 
ATOM      5  C2* UNL     1       6.199   5.351  17.498  0.00  0.00    +0.000 C 
ENDROOT
BRANCH   1  14
ATOM      6  C   UNL     1       2.824   6.563  18.151  0.00  0.00    +0.000 A 
ATOM      7  N   UNL     1       1.817   5.951  18.742  0.00  0.00    +0.000 NA
ATOM      8  C   UNL     1       2.028   4.613  18.569  0.00  0.00    +0.000 A 
ATOM      9  C   UNL     1       1.252   3.528  19.000  0.00  0.00    +0.000 A 
ATOM     10  C   UNL     1       1.672   2.228  18.699  0.00  0.00    +0.000 A 
ATOM     11  C   UNL     1       2.842   2.013  17.978  0.00  0.00    +0.000 A 
ATOM     12  C   UNL     1       3.626   3.085  17.542  0.00  0.00    +0.000 A 
ATOM     13  C   UNL     1       3.198   4.383  17.850  0.00  0.00    +0.000 A 
ATOM     14  N   UNL     1       3.702   5.645  17.598  0.00  0.00    +0.000 N 
BRANCH   6  16
ATOM     15  C   UNL     1       1.630   8.713  17.764  0.00  0.00    +0.000 C 
ATOM     16  C   UNL     1       2.960   8.050  18.091  0.00  0.00    +0.000 C 
ENDBRANCH   6  16
ENDBRANCH   1  14
BRANCH   4  17
ATOM     17  O3* UNL     1       7.811   6.585  16.224  0.00  0.00    +0.000 OA
ATOM     18  H3* UNL     1       7.158   7.309  16.230  0.00  0.00    +0.000 HD
ENDBRANCH   4  17
BRANCH   5  19
ATOM     19  O2* UNL     1       6.744   6.136  18.557  0.00  0.00    +0.000 OA
ATOM     20  H2* UNL     1       7.379   6.759  18.143  0.00  0.00    +0.000 HD
ENDBRANCH   5  19
BRANCH   3  21
ATOM     21  C5* UNL     1       6.180   3.661  14.595  0.00  0.00    +0.000 C 
BRANCH  21  22
ATOM     22  O5* UNL     1       6.467   3.628  13.200  0.00  0.00    +0.000 OA
ATOM     23  H5* UNL     1       7.440   3.592  13.112  0.00  0.00    +0.000 HD
ENDBRANCH  21  22
ENDBRANCH   3  21
TORSDOF 6
ENDMDL
MODEL 7
REMARK VINA RESULT:      -7.1      1.132      1.132
REMARK  Name = 
REMARK  7 active torsions:
REMARK  status: ('A' for Active; 'I' for Inactive)
REMARK    1  A    between atoms: C_1  and  C_2
REMARK    2  A    between atoms: C_2  and  C_3
REMARK    3  A    between atoms: N_11  and  C1*_12
REMARK    4  A    between atoms: C4*_14  and  C5*_15
REMARK    5  A    between atoms: C5*_15  and  O5*_16
REMARK    6  A    between atoms: C3*_17  and  O3*_18
REMARK    7  A    between atoms: C2*_19  and  O2*_20
REMARK                            x       y       z     vdW  Elec       q    Type
REMARK                         _______ _______ _______ _____ _____    ______ ____
ROOT
ATOM      1  C1* UNL     1       5.445   4.699  18.044  0.00  0.00    +0.000 C 
ATOM      2  O4* UNL     1       6.039   5.866  18.655  0.00  0.00    +0.000 OA
ATOM      3  C4* UNL     1       7.278   6.163  17.963  0.00  0.00    +0.000 C 
ATOM      4  C3* UNL     1       7.409   5.163  16.813  0.00  0.00    +0.000 C 
ATOM      5  C2* UNL     1       5.993   4.631  16.620  0.00  0.00    +0.000 C 
ENDROOT
BRANCH   1  14
ATOM      6  C   UNL     1       3.225   5.914  17.967  0.00  0.00    +0.000 A 
ATOM      7  N   UNL     1       1.947   5.647  18.150  0.00  0.00    +0.000 NA
ATOM      8  C   UNL     1       1.873   4.315  18.442  0.00  0.00    +0.000 A 
ATOM      9  C   UNL     1       0.747   3.528  18.720  0.00  0.00    +0.000 A 
ATOM     10  C   UNL     1       0.918   2.166  18.991  0.00  0.00    +0.000 A 
ATOM     11  C   UNL     1       2.188   1.598  18.984  0.00  0.00    +0.000 A 
ATOM     12  C   UNL     1       3.320   2.371  18.710  0.00  0.00    +0.000 A 
ATOM     13  C   UNL     1       3.138   3.734  18.440  0.00  0.00    +0.000 A 
ATOM     14  N   UNL     1       3.996   4.777  18.144  0.00  0.00    +0.000 N 
BRANCH   6  16
ATOM     15  C   UNL     1       2.660   8.332  17.779  0.00  0.00    +0.000 C 
ATOM     16  C   UNL     1       3.736   7.270  17.602  0.00  0.00    +0.000 C 
ENDBRANCH   6  16
ENDBRANCH   1  14
BRANCH   4  17
ATOM     17  O3* UNL     1       8.257   4.051  17.156  0.00  0.00    +0.000 OA
ATOM     18  H3* UNL     1       8.216   3.378  16.452  0.00  0.00    +0.000 HD
ENDBRANCH   4  17
BRANCH   5  19
ATOM     19  O2* UNL     1       6.001   3.308  16.086  0.00  0.00    +0.000 OA
ATOM     20  H2* UNL     1       6.467   3.359  15.224  0.00  0.00    +0.000 HD
ENDBRANCH   5  19
BRANCH   3  21
ATOM     21  C5* UNL     1       7.252   7.620  17.497  0.00  0.00    +0.000 C 
BRANCH  21  22
ATOM     22  O5* UNL     1       8.251   8.372  18.178  0.00  0.00    +0.000 OA
ATOM     23  H5* UNL     1       7.884   8.601  19.055  0.00  0.00    +0.000 HD
ENDBRANCH  21  22
ENDBRANCH   3  21
TORSDOF 6
ENDMDL
MODEL 8
REMARK VINA RESULT:      -7.0      2.022      4.861
REMARK  Name = 
REMARK  7 active torsions:
REMARK  status: ('A' for Active; 'I' for Inactive)
REMARK    1  A    between atoms: C_1  and  C_2
REMARK    2  A    between atoms: C_2  and  C_3
REMARK    3  A    between atoms: N_11  and  C1*_12
REMARK    4  A    between atoms: C4*_14  and  C5*_15
REMARK    5  A    between atoms: C5*_15  and  O5*_16
REMARK    6  A    between atoms: C3*_17  and  O3*_18
REMARK    7  A    between atoms: C2*_19  and  O2*_20
REMARK                            x       y       z     vdW  Elec       q    Type
REMARK                         _______ _______ _______ _____ _____    ______ ____
ROOT
ATOM      1  C1* UNL     1       3.566   5.472  18.243  0.00  0.00    +0.000 C 
ATOM      2  O4* UNL     1       2.769   4.437  17.627  0.00  0.00    +0.000 OA
ATOM      3  C4* UNL     1       3.612   3.277  17.413  0.00  0.00    +0.000 C 
ATOM      4  C3* UNL     1       4.987   3.597  18.005  0.00  0.00    +0.000 C 
ATOM      5  C2* UNL     1       4.722   4.765  18.948  0.00  0.00    +0.000 C 
ENDROOT
BRANCH   1  14
ATOM      6  C   UNL     1       2.170   5.902  20.309  0.00  0.00    +0.000 A 
ATOM      7  N   UNL     1       1.443   6.874  20.825  0.00  0.00    +0.000 NA
ATOM      8  C   UNL     1       1.530   7.920  19.952  0.00  0.00    +0.000 A 
ATOM      9  C   UNL     1       0.945   9.193  20.028  0.00  0.00    +0.000 A 
ATOM     10  C   UNL     1       1.182  10.113  19.002  0.00  0.00    +0.000 A 
ATOM     11  C   UNL     1       1.989   9.774  17.920  0.00  0.00    +0.000 A 
ATOM     12  C   UNL     1       2.577   8.510  17.830  0.00  0.00    +0.000 A 
ATOM     13  C   UNL     1       2.333   7.594  18.862  0.00  0.00    +0.000 A 
ATOM     14  N   UNL     1       2.727   6.291  19.103  0.00  0.00    +0.000 N 
BRANCH   6  16
ATOM     15  C   UNL     1       1.163   3.665  20.737  0.00  0.00    +0.000 C 
ATOM     16  C   UNL     1       2.357   4.577  20.975  0.00  0.00    +0.000 C 
ENDBRANCH   6  16
ENDBRANCH   1  14
BRANCH   4  17
ATOM     17  O3* UNL     1       5.918   4.042  17.001  0.00  0.00    +0.000 OA
ATOM     18  H3* UNL     1       6.168   4.969  17.173  0.00  0.00    +0.000 HD
ENDBRANCH   4  17
BRANCH   5  19
ATOM     19  O2* UNL     1       5.877   5.589  19.096  0.00  0.00    +0.000 OA
ATOM     20  H2* UNL     1       5.605   6.353  19.647  0.00  0.00    +0.000 HD
ENDBRANCH   5  19
BRANCH   3  21
ATOM     21  C5* UNL     1       2.950   2.055  18.052  0.00  0.00    +0.000 C 
BRANCH  21  22
ATOM     22  O5* UNL     1       3.937   1.098  18.425  0.00  0.00    +0.000 OA
ATOM     23  H5* UNL     1       3.991   0.449  17.696  0.00  0.00    +0.000 HD
ENDBRANCH  21  22
ENDBRANCH   3  21
TORSDOF 6
ENDMDL
MODEL 9
REMARK VINA RESULT:      -7.0      2.955      5.956
REMARK  Name = 
REMARK  7 active torsions:
REMARK  status: ('A' for Active; 'I' for Inactive)
REMARK    1  A    between atoms: C_1  and  C_2
REMARK    2  A    between atoms: C_2  and  C_3
REMARK    3  A    between atoms: N_11  and  C1*_12
REMARK    4  A    between atoms: C4*_14  and  C5*_15
REMARK    5  A    between atoms: C5*_15  and  O5*_16
REMARK    6  A    between atoms: C3*_17  and  O3*_18
REMARK    7  A    between atoms: C2*_19  and  O2*_20
REMARK                            x       y       z     vdW  Elec       q    Type
REMARK                         _______ _______ _______ _____ _____    ______ ____
ROOT
ATOM      1  C1* UNL     1       4.164   4.262  16.668  0.00  0.00    +0.000 C 
ATOM      2  O4* UNL     1       3.518   5.454  17.166  0.00  0.00    +0.000 OA
ATOM      3  C4* UNL     1       2.770   5.104  18.357  0.00  0.00    +0.000 C 
ATOM      4  C3* UNL     1       3.039   3.625  18.646  0.00  0.00    +0.000 C 
ATOM      5  C2* UNL     1       4.307   3.318  17.859  0.00  0.00    +0.000 C 
ENDROOT
BRANCH   1  14
ATOM      6  C   UNL     1       6.469   5.306  16.583  0.00  0.00    +0.000 A 
ATOM      7  N   UNL     1       7.439   5.488  15.708  0.00  0.00    +0.000 NA
ATOM      8  C   UNL     1       7.019   4.906  14.546  0.00  0.00    +0.000 A 
ATOM      9  C   UNL     1       7.675   4.816  13.310  0.00  0.00    +0.000 A 
ATOM     10  C   UNL     1       7.041   4.161  12.249  0.00  0.00    +0.000 A 
ATOM     11  C   UNL     1       5.777   3.602  12.417  0.00  0.00    +0.000 A 
ATOM     12  C   UNL     1       5.111   3.685  13.643  0.00  0.00    +0.000 A 
ATOM     13  C   UNL     1       5.754   4.344  14.699  0.00  0.00    +0.000 A 
ATOM     14  N   UNL     1       5.411   4.619  16.010  0.00  0.00    +0.000 N 
BRANCH   6  16
ATOM     15  C   UNL     1       7.677   6.771  18.192  0.00  0.00    +0.000 C 
ATOM     16  C   UNL     1       6.543   5.776  17.999  0.00  0.00    +0.000 C 
ENDBRANCH   6  16
ENDBRANCH   1  14
BRANCH   4  17
ATOM     17  O3* UNL     1       1.989   2.776  18.144  0.00  0.00    +0.000 OA
ATOM     18  H3* UNL     1       1.133   3.238  18.213  0.00  0.00    +0.000 HD
ENDBRANCH   4  17
BRANCH   5  19
ATOM     19  O2* UNL     1       4.367   1.944  17.481  0.00  0.00    +0.000 OA
ATOM     20  H2* UNL     1       5.185   1.580  17.883  0.00  0.00    +0.000 HD
ENDBRANCH   5  19
BRANCH   3  21
ATOM     21  C5* UNL     1       3.192   6.028  19.501  0.00  0.00    +0.000 C 
BRANCH  21  22
ATOM     22  O5* UNL     1       2.789   5.479  20.752  0.00  0.00    +0.000 OA
ATOM     23  H5* UNL     1       2.683   4.517  20.618  0.00  0.00    +0.000 HD
ENDBRANCH  21  22
ENDBRANCH   3  21
TORSDOF 6
ENDMDL
