MODEL 1
REMARK VINA RESULT:      -9.5      0.000      0.000
REMARK  Name = 
REMARK  4 active torsions:
REMARK  status: ('A' for Active; 'I' for Inactive)
REMARK    1  A    between atoms: C_7  and  C_8
REMARK    2  A    between atoms: N_13  and  C_14
REMARK    3  A    between atoms: N_19  and  C_20
REMARK    4  A    between atoms: C_20  and  C_21
REMARK                            x       y       z     vdW  Elec       q    Type
REMARK                         _______ _______ _______ _____ _____    ______ ____
ROOT
ATOM      1  C   UNL     1       5.238   4.850  16.717  0.00  0.00    +0.000 A 
ATOM      2  C   UNL     1       4.955   3.586  17.276  0.00  0.00    +0.000 A 
ATOM      3  N   UNL     1       3.938   3.622  18.143  0.00  0.00    +0.000 NA
ATOM      4  N   UNL     1       3.571   4.927  18.140  0.00  0.00    +0.000 N 
ATOM      5  C   UNL     1       2.515   5.497  18.876  0.00  0.00    +0.000 A 
ATOM      6  N   UNL     1       1.757   4.767  19.771  0.00  0.00    +0.000 N 
ATOM      7  N   UNL     1       2.237   6.763  18.680  0.00  0.00    +0.000 NA
ATOM      8  C   UNL     1       3.021   7.506  17.822  0.00  0.00    +0.000 A 
ATOM      9  N   UNL     1       2.772   8.837  17.652  0.00  0.00    +0.000 N 
ATOM     10  N   UNL     1       4.031   7.021  17.147  0.00  0.00    +0.000 NA
ATOM     11  C   UNL     1       4.306   5.699  17.281  0.00  0.00    +0.000 A 
ATOM     12  H   UNL     1       1.018   5.312  20.204  0.00  0.00    +0.000 HD
ATOM     13  H   UNL     1       3.287   9.212  16.862  0.00  0.00    +0.000 HD
ENDROOT
BRANCH   1  20
ATOM     14  O   UNL     1       5.536   2.718  11.850  0.00  0.00    +0.000 OA
ATOM     15  C   UNL     1       6.010   3.519  12.636  0.00  0.00    +0.000 C 
ATOM     16  N   UNL     1       7.121   4.296  12.432  0.00  0.00    +0.000 N 
ATOM     17  C   UNL     1       7.427   5.032  13.539  0.00  0.00    +0.000 C 
ATOM     18  O   UNL     1       8.370   5.784  13.705  0.00  0.00    +0.000 OA
ATOM     19  C   UNL     1       6.360   4.691  14.523  0.00  0.00    +0.000 C 
ATOM     20  C   UNL     1       6.251   5.179  15.765  0.00  0.00    +0.000 C 
ATOM     21  N   UNL     1       5.543   3.796  13.902  0.00  0.00    +0.000 N 
ATOM     22  H   UNL     1       7.671   4.263  11.592  0.00  0.00    +0.000 HD
ATOM     23  H   UNL     1       4.781   3.300  14.351  0.00  0.00    +0.000 HD
ENDBRANCH   1  20
BRANCH   6  24
ATOM     24  C   UNL     1       2.308   3.635  20.513  0.00  0.00    +0.000 C 
ATOM     25  C   UNL     1       1.600   3.008  21.685  0.00  0.00    +0.000 C 
ATOM     26  C   UNL     1       1.692   2.267  20.388  0.00  0.00    +0.000 C 
ENDBRANCH   6  24
BRANCH   9  27
ATOM     27  C   UNL     1       1.442   9.388  17.809  0.00  0.00    +0.000 C 
BRANCH  27  28
ATOM     28  C   UNL     1       1.411  10.481  18.842  0.00  0.00    +0.000 A 
ATOM     29  C   UNL     1       1.976  11.735  18.599  0.00  0.00    +0.000 A 
ATOM     30  F   UNL     1       2.599  11.968  17.434  0.00  0.00    +0.000 F 
ATOM     31  C   UNL     1       1.906  12.766  19.536  0.00  0.00    +0.000 A 
ATOM     32  C   UNL     1       1.252  12.556  20.748  0.00  0.00    +0.000 A 
ATOM     33  C   UNL     1       0.676  11.315  21.011  0.00  0.00    +0.000 A 
ATOM     34  C   UNL     1       0.759  10.296  20.062  0.00  0.00    +0.000 A 
ATOM     35  F   UNL     1       0.173   9.122  20.337  0.00  0.00    +0.000 F 
ENDBRANCH  27  28
ENDBRANCH   9  27
TORSDOF 4
ENDMDL
MODEL 2
REMARK VINA RESULT:      -9.4      0.051      1.480
REMARK  Name = 
REMARK  4 active torsions:
REMARK  status: ('A' for Active; 'I' for Inactive)
REMARK    1  A    between atoms: C_7  and  C_8
REMARK    2  A    between atoms: N_13  and  C_14
REMARK    3  A    between atoms: N_19  and  C_20
REMARK    4  A    between atoms: C_20  and  C_21
REMARK                            x       y       z     vdW  Elec       q    Type
REMARK                         _______ _______ _______ _____ _____    ______ ____
ROOT
ATOM      1  C   UNL     1       5.238   4.857  16.759  0.00  0.00    +0.000 A 
ATOM      2  C   UNL     1       4.963   3.595  17.326  0.00  0.00    +0.000 A 
ATOM      3  N   UNL     1       3.942   3.627  18.187  0.00  0.00    +0.000 NA
ATOM      4  N   UNL     1       3.562   4.929  18.173  0.00  0.00    +0.000 N 
ATOM      5  C   UNL     1       2.498   5.494  18.899  0.00  0.00    +0.000 A 
ATOM      6  N   UNL     1       1.741   4.764  19.796  0.00  0.00    +0.000 N 
ATOM      7  N   UNL     1       2.208   6.756  18.692  0.00  0.00    +0.000 NA
ATOM      8  C   UNL     1       2.989   7.500  17.832  0.00  0.00    +0.000 A 
ATOM      9  N   UNL     1       2.728   8.826  17.650  0.00  0.00    +0.000 N 
ATOM     10  N   UNL     1       4.008   7.020  17.166  0.00  0.00    +0.000 NA
ATOM     11  C   UNL     1       4.294   5.701  17.311  0.00  0.00    +0.000 A 
ATOM     12  H   UNL     1       0.995   5.304  20.220  0.00  0.00    +0.000 HD
ATOM     13  H   UNL     1       3.244   9.200  16.860  0.00  0.00    +0.000 HD
ENDROOT
BRANCH   1  20
ATOM     14  O   UNL     1       5.554   2.724  11.893  0.00  0.00    +0.000 OA
ATOM     15  C   UNL     1       6.024   3.527  12.680  0.00  0.00    +0.000 C 
ATOM     16  N   UNL     1       7.133   4.306  12.478  0.00  0.00    +0.000 N 
ATOM     17  C   UNL     1       7.435   5.044  13.587  0.00  0.00    +0.000 C 
ATOM     18  O   UNL     1       8.375   5.798  13.755  0.00  0.00    +0.000 OA
ATOM     19  C   UNL     1       6.365   4.701  14.568  0.00  0.00    +0.000 C 
ATOM     20  C   UNL     1       6.252   5.188  15.809  0.00  0.00    +0.000 C 
ATOM     21  N   UNL     1       5.553   3.803  13.945  0.00  0.00    +0.000 N 
ATOM     22  H   UNL     1       7.685   4.275  11.640  0.00  0.00    +0.000 HD
ATOM     23  H   UNL     1       4.791   3.305  14.392  0.00  0.00    +0.000 HD
ENDBRANCH   1  20
BRANCH   6  24
ATOM     24  C   UNL     1       2.300   3.642  20.549  0.00  0.00    +0.000 C 
ATOM     25  C   UNL     1       1.574   2.992  21.698  0.00  0.00    +0.000 C 
ATOM     26  C   UNL     1       1.724   2.259  20.401  0.00  0.00    +0.000 C 
ENDBRANCH   6  24
BRANCH   9  27
ATOM     27  C   UNL     1       1.392   9.366  17.797  0.00  0.00    +0.000 C 
BRANCH  27  28
ATOM     28  C   UNL     1       1.348  10.475  18.812  0.00  0.00    +0.000 A 
ATOM     29  C   UNL     1       0.747  10.302  20.060  0.00  0.00    +0.000 A 
ATOM     30  F   UNL     1       0.155   9.136  20.356  0.00  0.00    +0.000 F 
ATOM     31  C   UNL     1       0.748  11.312  21.022  0.00  0.00    +0.000 A 
ATOM     32  C   UNL     1       1.368  12.529  20.747  0.00  0.00    +0.000 A 
ATOM     33  C   UNL     1       1.980  12.723  19.510  0.00  0.00    +0.000 A 
ATOM     34  C   UNL     1       1.967  11.701  18.561  0.00  0.00    +0.000 A 
ATOM     35  F   UNL     1       2.585  11.913  17.391  0.00  0.00    +0.000 F 
ENDBRANCH  27  28
ENDBRANCH   9  27
TORSDOF 4
ENDMDL
MODEL 3
REMARK VINA RESULT:      -8.1      4.197      7.499
REMARK  Name = 
REMARK  4 active torsions:
REMARK  status: ('A' for Active; 'I' for Inactive)
REMARK    1  A    between atoms: C_7  and  C_8
REMARK    2  A    between atoms: N_13  and  C_14
REMARK    3  A    between atoms: N_19  and  C_20
REMARK    4  A    between atoms: C_20  and  C_21
REMARK                            x       y       z     vdW  Elec       q    Type
REMARK                         _______ _______ _______ _____ _____    ______ ____
ROOT
ATOM      1  C   UNL     1       1.535   9.050  19.678  0.00  0.00    +0.000 A 
ATOM      2  C   UNL     1       1.081   8.363  20.823  0.00  0.00    +0.000 A 
ATOM      3  N   UNL     1       1.468   7.084  20.844  0.00  0.00    +0.000 NA
ATOM      4  N   UNL     1       2.174   6.952  19.694  0.00  0.00    +0.000 N 
ATOM      5  C   UNL     1       2.826   5.788  19.247  0.00  0.00    +0.000 A 
ATOM      6  N   UNL     1       2.751   4.588  19.926  0.00  0.00    +0.000 N 
ATOM      7  N   UNL     1       3.546   5.864  18.154  0.00  0.00    +0.000 NA
ATOM      8  C   UNL     1       3.587   7.048  17.447  0.00  0.00    +0.000 A 
ATOM      9  N   UNL     1       4.291   7.122  16.281  0.00  0.00    +0.000 N 
ATOM     10  N   UNL     1       2.967   8.141  17.813  0.00  0.00    +0.000 NA
ATOM     11  C   UNL     1       2.263   8.112  18.973  0.00  0.00    +0.000 A 
ATOM     12  H   UNL     1       3.295   3.849  19.492  0.00  0.00    +0.000 HD
ATOM     13  H   UNL     1       4.396   8.083  15.973  0.00  0.00    +0.000 HD
ENDROOT
BRANCH   1  20
ATOM     14  O   UNL     1      -2.851  10.800  17.223  0.00  0.00    +0.000 OA
ATOM     15  C   UNL     1      -1.786  11.102  17.734  0.00  0.00    +0.000 C 
ATOM     16  N   UNL     1      -1.241  12.358  17.790  0.00  0.00    +0.000 N 
ATOM     17  C   UNL     1      -0.003  12.342  18.366  0.00  0.00    +0.000 C 
ATOM     18  O   UNL     1       0.763  13.273  18.526  0.00  0.00    +0.000 OA
ATOM     19  C   UNL     1       0.219  10.914  18.735  0.00  0.00    +0.000 C 
ATOM     20  C   UNL     1       1.309  10.417  19.330  0.00  0.00    +0.000 C 
ATOM     21  N   UNL     1      -0.898  10.242  18.340  0.00  0.00    +0.000 N 
ATOM     22  H   UNL     1      -1.679  13.169  17.390  0.00  0.00    +0.000 HD
ATOM     23  H   UNL     1      -1.005   9.233  18.365  0.00  0.00    +0.000 HD
ENDBRANCH   1  20
BRANCH   6  24
ATOM     24  C   UNL     1       1.576   4.213  20.711  0.00  0.00    +0.000 C 
ATOM     25  C   UNL     1       0.708   3.032  20.363  0.00  0.00    +0.000 C 
ATOM     26  C   UNL     1       1.593   2.975  21.569  0.00  0.00    +0.000 C 
ENDBRANCH   6  24
BRANCH   9  27
ATOM     27  C   UNL     1       5.451   6.290  16.039  0.00  0.00    +0.000 C 
BRANCH  27  28
ATOM     28  C   UNL     1       6.407   6.317  17.201  0.00  0.00    +0.000 A 
ATOM     29  C   UNL     1       6.643   5.182  17.980  0.00  0.00    +0.000 A 
ATOM     30  F   UNL     1       5.978   4.047  17.721  0.00  0.00    +0.000 F 
ATOM     31  C   UNL     1       7.566   5.190  19.027  0.00  0.00    +0.000 A 
ATOM     32  C   UNL     1       8.282   6.351  19.310  0.00  0.00    +0.000 A 
ATOM     33  C   UNL     1       8.067   7.494  18.542  0.00  0.00    +0.000 A 
ATOM     34  C   UNL     1       7.139   7.466  17.500  0.00  0.00    +0.000 A 
ATOM     35  F   UNL     1       6.974   8.576  16.766  0.00  0.00    +0.000 F 
ENDBRANCH  27  28
ENDBRANCH   9  27
TORSDOF 4
ENDMDL
MODEL 4
REMARK VINA RESULT:      -8.1      4.531      8.502
REMARK  Name = 
REMARK  4 active torsions:
REMARK  status: ('A' for Active; 'I' for Inactive)
REMARK    1  A    between atoms: C_7  and  C_8
REMARK    2  A    between atoms: N_13  and  C_14
REMARK    3  A    between atoms: N_19  and  C_20
REMARK    4  A    between atoms: C_20  and  C_21
REMARK                            x       y       z     vdW  Elec       q    Type
REMARK                         _______ _______ _______ _____ _____    ______ ____
ROOT
ATOM      1  C   UNL     1       1.813   8.692  18.603  0.00  0.00    +0.000 A 
ATOM      2  C   UNL     1       2.638   8.881  17.474  0.00  0.00    +0.000 A 
ATOM      3  N   UNL     1       3.575   7.935  17.356  0.00  0.00    +0.000 NA
ATOM      4  N   UNL     1       3.347   7.134  18.427  0.00  0.00    +0.000 N 
ATOM      5  C   UNL     1       4.054   5.963  18.755  0.00  0.00    +0.000 A 
ATOM      6  N   UNL     1       5.146   5.527  18.030  0.00  0.00    +0.000 N 
ATOM      7  N   UNL     1       3.637   5.255  19.778  0.00  0.00    +0.000 NA
ATOM      8  C   UNL     1       2.576   5.711  20.532  0.00  0.00    +0.000 A 
ATOM      9  N   UNL     1       2.169   5.008  21.629  0.00  0.00    +0.000 N 
ATOM     10  N   UNL     1       1.916   6.812  20.279  0.00  0.00    +0.000 NA
ATOM     11  C   UNL     1       2.284   7.534  19.190  0.00  0.00    +0.000 A 
ATOM     12  H   UNL     1       5.531   4.654  18.376  0.00  0.00    +0.000 HD
ATOM     13  H   UNL     1       1.274   5.343  21.971  0.00  0.00    +0.000 HD
ENDROOT
BRANCH   1  20
ATOM     14  O   UNL     1       0.643   9.618  23.711  0.00  0.00    +0.000 OA
ATOM     15  C   UNL     1       0.364   9.855  22.549  0.00  0.00    +0.000 C 
ATOM     16  N   UNL     1      -0.677  10.627  22.105  0.00  0.00    +0.000 N 
ATOM     17  C   UNL     1      -0.754  10.629  20.742  0.00  0.00    +0.000 C 
ATOM     18  O   UNL     1      -1.583  11.174  20.037  0.00  0.00    +0.000 OA
ATOM     19  C   UNL     1       0.395   9.788  20.300  0.00  0.00    +0.000 C 
ATOM     20  C   UNL     1       0.721   9.505  19.034  0.00  0.00    +0.000 C 
ATOM     21  N   UNL     1       1.024   9.378  21.437  0.00  0.00    +0.000 N 
ATOM     22  H   UNL     1      -1.336  11.071  22.719  0.00  0.00    +0.000 HD
ATOM     23  H   UNL     1       1.785   8.708  21.468  0.00  0.00    +0.000 HD
ENDBRANCH   1  20
BRANCH   6  24
ATOM     24  C   UNL     1       6.042   6.455  17.343  0.00  0.00    +0.000 C 
ATOM     25  C   UNL     1       7.470   6.674  17.769  0.00  0.00    +0.000 C 
ATOM     26  C   UNL     1       7.176   5.939  16.498  0.00  0.00    +0.000 C 
ENDBRANCH   6  24
BRANCH   9  27
ATOM     27  C   UNL     1       2.341   3.574  21.720  0.00  0.00    +0.000 C 
BRANCH  27  28
ATOM     28  C   UNL     1       2.321   2.923  20.364  0.00  0.00    +0.000 A 
ATOM     29  C   UNL     1       1.190   2.971  19.546  0.00  0.00    +0.000 A 
ATOM     30  F   UNL     1       0.076   3.573  19.987  0.00  0.00    +0.000 F 
ATOM     31  C   UNL     1       1.184   2.412  18.268  0.00  0.00    +0.000 A 
ATOM     32  C   UNL     1       2.332   1.793  17.778  0.00  0.00    +0.000 A 
ATOM     33  C   UNL     1       3.474   1.739  18.574  0.00  0.00    +0.000 A 
ATOM     34  C   UNL     1       3.460   2.302  19.850  0.00  0.00    +0.000 A 
ATOM     35  F   UNL     1       4.583   2.253  20.579  0.00  0.00    +0.000 F 
ENDBRANCH  27  28
ENDBRANCH   9  27
TORSDOF 4
ENDMDL
MODEL 5
REMARK VINA RESULT:      -8.0      8.221     11.847
REMARK  Name = 
REMARK  4 active torsions:
REMARK  status: ('A' for Active; 'I' for Inactive)
REMARK    1  A    between atoms: C_7  and  C_8
REMARK    2  A    between atoms: N_13  and  C_14
REMARK    3  A    between atoms: N_19  and  C_20
REMARK    4  A    between atoms: C_20  and  C_21
REMARK                            x       y       z     vdW  Elec       q    Type
REMARK                         _______ _______ _______ _____ _____    ______ ____
ROOT
ATOM      1  C   UNL     1      -5.549  12.724  19.688  0.00  0.00    +0.000 A 
ATOM      2  C   UNL     1      -6.033  11.964  18.603  0.00  0.00    +0.000 A 
ATOM      3  N   UNL     1      -5.052  11.462  17.847  0.00  0.00    +0.000 NA
ATOM      4  N   UNL     1      -3.927  11.911  18.456  0.00  0.00    +0.000 N 
ATOM      5  C   UNL     1      -2.603  11.638  18.065  0.00  0.00    +0.000 A 
ATOM      6  N   UNL     1      -2.299  10.913  16.929  0.00  0.00    +0.000 N 
ATOM      7  N   UNL     1      -1.630  12.076  18.828  0.00  0.00    +0.000 NA
ATOM      8  C   UNL     1      -1.927  12.840  19.937  0.00  0.00    +0.000 A 
ATOM      9  N   UNL     1      -0.920  13.343  20.707  0.00  0.00    +0.000 N 
ATOM     10  N   UNL     1      -3.143  13.143  20.314  0.00  0.00    +0.000 NA
ATOM     11  C   UNL     1      -4.174  12.652  19.580  0.00  0.00    +0.000 A 
ATOM     12  H   UNL     1      -1.302  10.780  16.796  0.00  0.00    +0.000 HD
ATOM     13  H   UNL     1      -1.273  13.714  21.584  0.00  0.00    +0.000 HD
ENDROOT
BRANCH   1  20
ATOM     14  O   UNL     1      -4.826  12.057  24.919  0.00  0.00    +0.000 OA
ATOM     15  C   UNL     1      -5.434  12.655  24.048  0.00  0.00    +0.000 C 
ATOM     16  N   UNL     1      -6.440  13.565  24.239  0.00  0.00    +0.000 N 
ATOM     17  C   UNL     1      -6.960  13.995  23.052  0.00  0.00    +0.000 C 
ATOM     18  O   UNL     1      -7.886  14.762  22.871  0.00  0.00    +0.000 OA
ATOM     19  C   UNL     1      -6.154  13.290  22.014  0.00  0.00    +0.000 C 
ATOM     20  C   UNL     1      -6.309  13.403  20.689  0.00  0.00    +0.000 C 
ATOM     21  N   UNL     1      -5.253  12.523  22.688  0.00  0.00    +0.000 N 
ATOM     22  H   UNL     1      -6.788  13.821  25.146  0.00  0.00    +0.000 HD
ATOM     23  H   UNL     1      -4.631  11.848  22.257  0.00  0.00    +0.000 HD
ENDBRANCH   1  20
BRANCH   6  24
ATOM     24  C   UNL     1      -3.160  10.925  15.748  0.00  0.00    +0.000 C 
ATOM     25  C   UNL     1      -2.812  10.190  14.480  0.00  0.00    +0.000 C 
ATOM     26  C   UNL     1      -3.926   9.693  15.347  0.00  0.00    +0.000 C 
ENDBRANCH   6  24
BRANCH   9  27
ATOM     27  C   UNL     1       0.360  12.675  20.818  0.00  0.00    +0.000 C 
BRANCH  27  28
ATOM     28  C   UNL     1       0.212  11.275  21.348  0.00  0.00    +0.000 A 
ATOM     29  C   UNL     1      -0.453  11.012  22.547  0.00  0.00    +0.000 A 
ATOM     30  F   UNL     1      -0.941  12.029  23.273  0.00  0.00    +0.000 F 
ATOM     31  C   UNL     1      -0.636   9.711  23.016  0.00  0.00    +0.000 A 
ATOM     32  C   UNL     1      -0.152   8.634  22.275  0.00  0.00    +0.000 A 
ATOM     33  C   UNL     1       0.510   8.872  21.073  0.00  0.00    +0.000 A 
ATOM     34  C   UNL     1       0.683  10.180  20.622  0.00  0.00    +0.000 A 
ATOM     35  F   UNL     1       1.304  10.371  19.449  0.00  0.00    +0.000 F 
ENDBRANCH  27  28
ENDBRANCH   9  27
TORSDOF 4
ENDMDL
MODEL 6
REMARK VINA RESULT:      -8.0      4.166      7.338
REMARK  Name = 
REMARK  4 active torsions:
REMARK  status: ('A' for Active; 'I' for Inactive)
REMARK    1  A    between atoms: C_7  and  C_8
REMARK    2  A    between atoms: N_13  and  C_14
REMARK    3  A    between atoms: N_19  and  C_20
REMARK    4  A    between atoms: C_20  and  C_21
REMARK                            x       y       z     vdW  Elec       q    Type
REMARK                         _______ _______ _______ _____ _____    ______ ____
ROOT
ATOM      1  C   UNL     1       1.625   8.847  19.732  0.00  0.00    +0.000 A 
ATOM      2  C   UNL     1       1.157   8.128  20.852  0.00  0.00    +0.000 A 
ATOM      3  N   UNL     1       1.530   6.845  20.833  0.00  0.00    +0.000 NA
ATOM      4  N   UNL     1       2.242   6.743  19.683  0.00  0.00    +0.000 N 
ATOM      5  C   UNL     1       2.885   5.588  19.201  0.00  0.00    +0.000 A 
ATOM      6  N   UNL     1       2.793   4.366  19.840  0.00  0.00    +0.000 N 
ATOM      7  N   UNL     1       3.613   5.692  18.115  0.00  0.00    +0.000 NA
ATOM      8  C   UNL     1       3.669   6.898  17.448  0.00  0.00    +0.000 A 
ATOM      9  N   UNL     1       4.382   7.003  16.289  0.00  0.00    +0.000 N 
ATOM     10  N   UNL     1       3.059   7.985  17.846  0.00  0.00    +0.000 NA
ATOM     11  C   UNL     1       2.348   7.925  19.001  0.00  0.00    +0.000 A 
ATOM     12  H   UNL     1       3.332   3.637  19.385  0.00  0.00    +0.000 HD
ATOM     13  H   UNL     1       4.499   7.973  16.013  0.00  0.00    +0.000 HD
ENDROOT
BRANCH   1  20
ATOM     14  O   UNL     1      -2.689  10.712  17.234  0.00  0.00    +0.000 OA
ATOM     15  C   UNL     1      -1.635  10.989  17.781  0.00  0.00    +0.000 C 
ATOM     16  N   UNL     1      -1.085  12.238  17.896  0.00  0.00    +0.000 N 
ATOM     17  C   UNL     1       0.138  12.193  18.501  0.00  0.00    +0.000 C 
ATOM     18  O   UNL     1       0.905  13.113  18.714  0.00  0.00    +0.000 OA
ATOM     19  C   UNL     1       0.343  10.752  18.824  0.00  0.00    +0.000 C 
ATOM     20  C   UNL     1       1.415  10.227  19.428  0.00  0.00    +0.000 C 
ATOM     21  N   UNL     1      -0.767  10.101  18.378  0.00  0.00    +0.000 N 
ATOM     22  H   UNL     1      -1.508  13.065  17.515  0.00  0.00    +0.000 HD
ATOM     23  H   UNL     1      -0.880   9.094  18.363  0.00  0.00    +0.000 HD
ENDBRANCH   1  20
BRANCH   6  24
ATOM     24  C   UNL     1       1.610   3.978  20.606  0.00  0.00    +0.000 C 
ATOM     25  C   UNL     1       0.854   2.702  20.343  0.00  0.00    +0.000 C 
ATOM     26  C   UNL     1       1.675   2.839  21.588  0.00  0.00    +0.000 C 
ENDBRANCH   6  24
BRANCH   9  27
ATOM     27  C   UNL     1       5.535   6.167  16.027  0.00  0.00    +0.000 C 
BRANCH  27  28
ATOM     28  C   UNL     1       6.535   6.231  17.149  0.00  0.00    +0.000 A 
ATOM     29  C   UNL     1       7.195   7.418  17.474  0.00  0.00    +0.000 A 
ATOM     30  F   UNL     1       6.971   8.523  16.750  0.00  0.00    +0.000 F 
ATOM     31  C   UNL     1       8.086   7.492  18.546  0.00  0.00    +0.000 A 
ATOM     32  C   UNL     1       8.327   6.362  19.325  0.00  0.00    +0.000 A 
ATOM     33  C   UNL     1       7.675   5.169  19.023  0.00  0.00    +0.000 A 
ATOM     34  C   UNL     1       6.789   5.114  17.947  0.00  0.00    +0.000 A 
ATOM     35  F   UNL     1       6.161   3.956  17.699  0.00  0.00    +0.000 F 
ENDBRANCH  27  28
ENDBRANCH   9  27
TORSDOF 4
ENDMDL
MODEL 7
REMARK VINA RESULT:      -7.9      4.656      9.049
REMARK  Name = 
REMARK  4 active torsions:
REMARK  status: ('A' for Active; 'I' for Inactive)
REMARK    1  A    between atoms: C_7  and  C_8
REMARK    2  A    between atoms: N_13  and  C_14
REMARK    3  A    between atoms: N_19  and  C_20
REMARK    4  A    between atoms: C_20  and  C_21
REMARK                            x       y       z     vdW  Elec       q    Type
REMARK                         _______ _______ _______ _____ _____    ______ ____
ROOT
ATOM      1  C   UNL     1       0.581  12.547  19.950  0.00  0.00    +0.000 A 
ATOM      2  C   UNL     1      -0.732  12.968  19.651  0.00  0.00    +0.000 A 
ATOM      3  N   UNL     1      -1.350  12.156  18.789  0.00  0.00    +0.000 NA
ATOM      4  N   UNL     1      -0.417  11.206  18.530  0.00  0.00    +0.000 N 
ATOM      5  C   UNL     1      -0.577  10.089  17.690  0.00  0.00    +0.000 A 
ATOM      6  N   UNL     1      -1.726   9.873  16.953  0.00  0.00    +0.000 N 
ATOM      7  N   UNL     1       0.399   9.216  17.629  0.00  0.00    +0.000 NA
ATOM      8  C   UNL     1       1.566   9.451  18.326  0.00  0.00    +0.000 A 
ATOM      9  N   UNL     1       2.607   8.574  18.228  0.00  0.00    +0.000 N 
ATOM     10  N   UNL     1       1.765  10.494  19.091  0.00  0.00    +0.000 NA
ATOM     11  C   UNL     1       0.749  11.384  19.223  0.00  0.00    +0.000 A 
ATOM     12  H   UNL     1      -1.699   9.012  16.416  0.00  0.00    +0.000 HD
ATOM     13  H   UNL     1       3.315   8.761  18.930  0.00  0.00    +0.000 HD
ENDROOT
BRANCH   1  20
ATOM     14  O   UNL     1       4.934  15.109  18.274  0.00  0.00    +0.000 OA
ATOM     15  C   UNL     1       4.252  14.789  19.232  0.00  0.00    +0.000 C 
ATOM     16  N   UNL     1       4.534  15.042  20.549  0.00  0.00    +0.000 N 
ATOM     17  C   UNL     1       3.603  14.485  21.377  0.00  0.00    +0.000 C 
ATOM     18  O   UNL     1       3.582  14.485  22.593  0.00  0.00    +0.000 OA
ATOM     19  C   UNL     1       2.619  13.846  20.457  0.00  0.00    +0.000 C 
ATOM     20  C   UNL     1       1.523  13.171  20.824  0.00  0.00    +0.000 C 
ATOM     21  N   UNL     1       3.068  14.087  19.194  0.00  0.00    +0.000 N 
ATOM     22  H   UNL     1       5.364  15.519  20.855  0.00  0.00    +0.000 HD
ATOM     23  H   UNL     1       2.665  13.691  18.351  0.00  0.00    +0.000 HD
ENDBRANCH   1  20
BRANCH   6  24
ATOM     24  C   UNL     1      -2.546  10.975  16.454  0.00  0.00    +0.000 C 
ATOM     25  C   UNL     1      -3.405  10.857  15.222  0.00  0.00    +0.000 C 
ATOM     26  C   UNL     1      -4.046  10.926  16.573  0.00  0.00    +0.000 C 
ENDBRANCH   6  24
BRANCH   9  27
ATOM     27  C   UNL     1       2.394   7.168  17.957  0.00  0.00    +0.000 C 
BRANCH  27  28
ATOM     28  C   UNL     1       3.674   6.383  18.057  0.00  0.00    +0.000 A 
ATOM     29  C   UNL     1       4.649   6.443  17.058  0.00  0.00    +0.000 A 
ATOM     30  F   UNL     1       4.433   7.182  15.961  0.00  0.00    +0.000 F 
ATOM     31  C   UNL     1       5.858   5.755  17.171  0.00  0.00    +0.000 A 
ATOM     32  C   UNL     1       6.116   4.990  18.307  0.00  0.00    +0.000 A 
ATOM     33  C   UNL     1       5.159   4.920  19.318  0.00  0.00    +0.000 A 
ATOM     34  C   UNL     1       3.957   5.614  19.186  0.00  0.00    +0.000 A 
ATOM     35  F   UNL     1       3.069   5.544  20.189  0.00  0.00    +0.000 F 
ENDBRANCH  27  28
ENDBRANCH   9  27
TORSDOF 4
ENDMDL
MODEL 8
REMARK VINA RESULT:      -7.9      4.753      9.195
REMARK  Name = 
REMARK  4 active torsions:
REMARK  status: ('A' for Active; 'I' for Inactive)
REMARK    1  A    between atoms: C_7  and  C_8
REMARK    2  A    between atoms: N_13  and  C_14
REMARK    3  A    between atoms: N_19  and  C_20
REMARK    4  A    between atoms: C_20  and  C_21
REMARK                            x       y       z     vdW  Elec       q    Type
REMARK                         _______ _______ _______ _____ _____    ______ ____
ROOT
ATOM      1  C   UNL     1       0.289  12.780  20.429  0.00  0.00    +0.000 A 
ATOM      2  C   UNL     1      -1.078  13.129  20.420  0.00  0.00    +0.000 A 
ATOM      3  N   UNL     1      -1.801  12.358  19.604  0.00  0.00    +0.000 NA
ATOM      4  N   UNL     1      -0.883  11.508  19.081  0.00  0.00    +0.000 N 
ATOM      5  C   UNL     1      -1.136  10.465  18.170  0.00  0.00    +0.000 A 
ATOM      6  N   UNL     1      -2.390  10.235  17.636  0.00  0.00    +0.000 N 
ATOM      7  N   UNL     1      -0.142   9.676  17.841  0.00  0.00    +0.000 NA
ATOM      8  C   UNL     1       1.120   9.930  18.336  0.00  0.00    +0.000 A 
ATOM      9  N   UNL     1       2.170   9.146  17.958  0.00  0.00    +0.000 N 
ATOM     10  N   UNL     1       1.402  10.909  19.157  0.00  0.00    +0.000 NA
ATOM     11  C   UNL     1       0.381  11.706  19.565  0.00  0.00    +0.000 A 
ATOM     12  H   UNL     1      -2.417   9.433  17.015  0.00  0.00    +0.000 HD
ATOM     13  H   UNL     1       2.987   9.317  18.535  0.00  0.00    +0.000 HD
ENDROOT
BRANCH   1  20
ATOM     14  O   UNL     1       4.716  14.768  18.244  0.00  0.00    +0.000 OA
ATOM     15  C   UNL     1       4.080  14.598  19.270  0.00  0.00    +0.000 C 
ATOM     16  N   UNL     1       4.478  14.938  20.536  0.00  0.00    +0.000 N 
ATOM     17  C   UNL     1       3.564  14.544  21.471  0.00  0.00    +0.000 C 
ATOM     18  O   UNL     1       3.632  14.652  22.681  0.00  0.00    +0.000 OA
ATOM     19  C   UNL     1       2.464  13.922  20.680  0.00  0.00    +0.000 C 
ATOM     20  C   UNL     1       1.343  13.387  21.178  0.00  0.00    +0.000 C 
ATOM     21  N   UNL     1       2.839  14.009  19.373  0.00  0.00    +0.000 N 
ATOM     22  H   UNL     1       5.366  15.360  20.742  0.00  0.00    +0.000 HD
ATOM     23  H   UNL     1       2.343  13.580  18.599  0.00  0.00    +0.000 HD
ENDBRANCH   1  20
BRANCH   6  24
ATOM     24  C   UNL     1      -3.349  11.316  17.413  0.00  0.00    +0.000 C 
ATOM     25  C   UNL     1      -4.436  11.237  16.374  0.00  0.00    +0.000 C 
ATOM     26  C   UNL     1      -4.787  11.158  17.827  0.00  0.00    +0.000 C 
ENDBRANCH   6  24
BRANCH   9  27
ATOM     27  C   UNL     1       1.988   7.759  17.583  0.00  0.00    +0.000 C 
BRANCH  27  28
ATOM     28  C   UNL     1       3.099   6.891  18.108  0.00  0.00    +0.000 A 
ATOM     29  C   UNL     1       2.978   6.200  19.316  0.00  0.00    +0.000 A 
ATOM     30  F   UNL     1       1.867   6.339  20.053  0.00  0.00    +0.000 F 
ATOM     31  C   UNL     1       3.986   5.355  19.782  0.00  0.00    +0.000 A 
ATOM     32  C   UNL     1       5.146   5.180  19.030  0.00  0.00    +0.000 A 
ATOM     33  C   UNL     1       5.285   5.855  17.818  0.00  0.00    +0.000 A 
ATOM     34  C   UNL     1       4.267   6.696  17.370  0.00  0.00    +0.000 A 
ATOM     35  F   UNL     1       4.424   7.311  16.190  0.00  0.00    +0.000 F 
ENDBRANCH  27  28
ENDBRANCH   9  27
TORSDOF 4
ENDMDL
MODEL 9
REMARK VINA RESULT:      -7.9      4.535      8.488
REMARK  Name = 
REMARK  4 active torsions:
REMARK  status: ('A' for Active; 'I' for Inactive)
REMARK    1  A    between atoms: C_7  and  C_8
REMARK    2  A    between atoms: N_13  and  C_14
REMARK    3  A    between atoms: N_19  and  C_20
REMARK    4  A    between atoms: C_20  and  C_21
REMARK                            x       y       z     vdW  Elec       q    Type
REMARK                         _______ _______ _______ _____ _____    ______ ____
ROOT
ATOM      1  C   UNL     1       1.759   8.791  18.590  0.00  0.00    +0.000 A 
ATOM      2  C   UNL     1       2.548   8.978  17.436  0.00  0.00    +0.000 A 
ATOM      3  N   UNL     1       3.478   8.030  17.288  0.00  0.00    +0.000 NA
ATOM      4  N   UNL     1       3.283   7.229  18.365  0.00  0.00    +0.000 N 
ATOM      5  C   UNL     1       3.996   6.056  18.671  0.00  0.00    +0.000 A 
ATOM      6  N   UNL     1       5.064   5.617  17.911  0.00  0.00    +0.000 N 
ATOM      7  N   UNL     1       3.610   5.349  19.706  0.00  0.00    +0.000 NA
ATOM      8  C   UNL     1       2.575   5.807  20.494  0.00  0.00    +0.000 A 
ATOM      9  N   UNL     1       2.201   5.106  21.602  0.00  0.00    +0.000 N 
ATOM     10  N   UNL     1       1.910   6.910  20.262  0.00  0.00    +0.000 NA
ATOM     11  C   UNL     1       2.246   7.632  19.162  0.00  0.00    +0.000 A 
ATOM     12  H   UNL     1       5.457   4.743  18.244  0.00  0.00    +0.000 HD
ATOM     13  H   UNL     1       1.318   5.443  21.973  0.00  0.00    +0.000 HD
ENDROOT
BRANCH   1  20
ATOM     14  O   UNL     1       0.654   9.585  23.735  0.00  0.00    +0.000 OA
ATOM     15  C   UNL     1       0.367   9.859  22.582  0.00  0.00    +0.000 C 
ATOM     16  N   UNL     1      -0.668  10.659  22.173  0.00  0.00    +0.000 N 
ATOM     17  C   UNL     1      -0.758  10.702  20.811  0.00  0.00    +0.000 C 
ATOM     18  O   UNL     1      -1.586  11.279  20.130  0.00  0.00    +0.000 OA
ATOM     19  C   UNL     1       0.375   9.858  20.333  0.00  0.00    +0.000 C 
ATOM     20  C   UNL     1       0.683   9.607  19.056  0.00  0.00    +0.000 C 
ATOM     21  N   UNL     1       1.008   9.406  21.451  0.00  0.00    +0.000 N 
ATOM     22  H   UNL     1      -1.313  11.095  22.806  0.00  0.00    +0.000 HD
ATOM     23  H   UNL     1       1.759   8.724  21.454  0.00  0.00    +0.000 HD
ENDBRANCH   1  20
BRANCH   6  24
ATOM     24  C   UNL     1       5.940   6.543  17.196  0.00  0.00    +0.000 C 
ATOM     25  C   UNL     1       7.365   6.799  17.610  0.00  0.00    +0.000 C 
ATOM     26  C   UNL     1       7.080   6.026  16.360  0.00  0.00    +0.000 C 
ENDBRANCH   6  24
BRANCH   9  27
ATOM     27  C   UNL     1       2.372   3.671  21.688  0.00  0.00    +0.000 C 
BRANCH  27  28
ATOM     28  C   UNL     1       2.351   3.026  20.329  0.00  0.00    +0.000 A 
ATOM     29  C   UNL     1       3.472   2.373  19.811  0.00  0.00    +0.000 A 
ATOM     30  F   UNL     1       4.612   2.348  20.517  0.00  0.00    +0.000 F 
ATOM     31  C   UNL     1       3.440   1.731  18.573  0.00  0.00    +0.000 A 
ATOM     32  C   UNL     1       2.265   1.727  17.825  0.00  0.00    +0.000 A 
ATOM     33  C   UNL     1       1.133   2.367  18.324  0.00  0.00    +0.000 A 
ATOM     34  C   UNL     1       1.184   3.005  19.564  0.00  0.00    +0.000 A 
ATOM     35  F   UNL     1       0.070   3.590  20.025  0.00  0.00    +0.000 F 
ENDBRANCH  27  28
ENDBRANCH   9  27
TORSDOF 4
ENDMDL
