MODEL 1
REMARK VINA RESULT:      -8.7      0.000      0.000
REMARK  Name = 
REMARK  6 active torsions:
REMARK  status: ('A' for Active; 'I' for Inactive)
REMARK    1  A    between atoms: C_1  and  C_2
REMARK    2  A    between atoms: C_5  and  C_6
REMARK    3  A    between atoms: C_7  and  C_8
REMARK    4  A    between atoms: C_8  and  N_9
REMARK    5  A    between atoms: C_12  and  N_13
REMARK    6  A    between atoms: C_14  and  C_16
REMARK                            x       y       z     vdW  Elec       q    Type
REMARK                         _______ _______ _______ _____ _____    ______ ____
ROOT
ATOM      1  N   UNL     1       2.940   5.443  20.266  0.00  0.00    +0.000 N 
ATOM      2  C   UNL     1       2.366   6.360  19.418  0.00  0.00    +0.000 C 
ATOM      3  O   UNL     1       2.341   6.225  18.196  0.00  0.00    +0.000 OA
ATOM      4  H   UNL     1       2.871   5.620  21.255  0.00  0.00    +0.000 HD
ENDROOT
BRANCH   2   5
ATOM      5  C   UNL     1       1.739   7.483  20.099  0.00  0.00    +0.000 A 
ATOM      6  C   UNL     1       1.142   7.568  21.347  0.00  0.00    +0.000 A 
ATOM      7  C   UNL     1       0.625   8.878  21.524  0.00  0.00    +0.000 A 
ATOM      8  C   UNL     1      -0.086   9.508  22.563  0.00  0.00    +0.000 A 
ATOM      9  C   UNL     1      -0.465  10.845  22.419  0.00  0.00    +0.000 A 
ATOM     10  C   UNL     1      -0.144  11.547  21.259  0.00  0.00    +0.000 A 
ATOM     11  C   UNL     1       0.561  10.938  20.213  0.00  0.00    +0.000 A 
ATOM     12  C   UNL     1       0.935   9.596  20.373  0.00  0.00    +0.000 A 
ATOM     13  N   UNL     1       1.619   8.740  19.539  0.00  0.00    +0.000 N 
ATOM     14  H   UNL     1       1.967   8.980  18.617  0.00  0.00    +0.000 HD
ENDBRANCH   2   5
BRANCH   1  18
ATOM     15  N   UNL     1       4.720   3.722  17.842  0.00  0.00    +0.000 NA
ATOM     16  C   UNL     1       3.562   2.812  17.871  0.00  0.00    +0.000 C 
ATOM     17  C   UNL     1       2.551   3.460  18.810  0.00  0.00    +0.000 C 
ATOM     18  C   UNL     1       3.415   4.125  19.877  0.00  0.00    +0.000 C 
ATOM     19  C   UNL     1       4.814   4.214  19.229  0.00  0.00    +0.000 C 
BRANCH  15  20
ATOM     20  C   UNL     1       4.555   4.773  16.825  0.00  0.00    +0.000 C 
BRANCH  20  27
ATOM     21  C   UNL     1       5.656   3.880  13.826  0.00  0.00    +0.000 C 
ATOM     22  C   UNL     1       6.284   4.776  14.824  0.00  0.00    +0.000 A 
ATOM     23  N   UNL     1       7.448   5.362  14.525  0.00  0.00    +0.000 NA
ATOM     24  O   UNL     1       7.812   6.073  15.641  0.00  0.00    +0.000 OA
ATOM     25  C   UNL     1       6.873   5.919  16.610  0.00  0.00    +0.000 A 
ATOM     26  C   UNL     1       7.183   6.602  17.881  0.00  0.00    +0.000 C 
ATOM     27  C   UNL     1       5.837   5.128  16.136  0.00  0.00    +0.000 A 
ENDBRANCH  20  27
ENDBRANCH  15  20
ENDBRANCH   1  18
TORSDOF 4
ENDMDL
MODEL 2
REMARK VINA RESULT:      -8.7      0.530      1.166
REMARK  Name = 
REMARK  6 active torsions:
REMARK  status: ('A' for Active; 'I' for Inactive)
REMARK    1  A    between atoms: C_1  and  C_2
REMARK    2  A    between atoms: C_5  and  C_6
REMARK    3  A    between atoms: C_7  and  C_8
REMARK    4  A    between atoms: C_8  and  N_9
REMARK    5  A    between atoms: C_12  and  N_13
REMARK    6  A    between atoms: C_14  and  C_16
REMARK                            x       y       z     vdW  Elec       q    Type
REMARK                         _______ _______ _______ _____ _____    ______ ____
ROOT
ATOM      1  N   UNL     1       2.908   5.546  20.254  0.00  0.00    +0.000 N 
ATOM      2  C   UNL     1       2.541   6.510  19.345  0.00  0.00    +0.000 C 
ATOM      3  O   UNL     1       2.756   6.416  18.138  0.00  0.00    +0.000 OA
ATOM      4  H   UNL     1       2.649   5.693  21.216  0.00  0.00    +0.000 HD
ENDROOT
BRANCH   2   5
ATOM      5  C   UNL     1       1.823   7.632  19.933  0.00  0.00    +0.000 A 
ATOM      6  C   UNL     1       1.465   8.859  19.398  0.00  0.00    +0.000 A 
ATOM      7  C   UNL     1       0.824   9.631  20.402  0.00  0.00    +0.000 A 
ATOM      8  C   UNL     1       0.286  10.932  20.430  0.00  0.00    +0.000 A 
ATOM      9  C   UNL     1      -0.284  11.410  21.611  0.00  0.00    +0.000 A 
ATOM     10  C   UNL     1      -0.320  10.610  22.752  0.00  0.00    +0.000 A 
ATOM     11  C   UNL     1       0.212   9.313  22.745  0.00  0.00    +0.000 A 
ATOM     12  C   UNL     1       0.779   8.848  21.551  0.00  0.00    +0.000 A 
ATOM     13  N   UNL     1       1.371   7.644  21.238  0.00  0.00    +0.000 N 
ATOM     14  H   UNL     1       1.495   6.871  21.882  0.00  0.00    +0.000 HD
ENDBRANCH   2   5
BRANCH   1  18
ATOM     15  N   UNL     1       4.747   3.778  17.907  0.00  0.00    +0.000 NA
ATOM     16  C   UNL     1       3.607   2.846  17.957  0.00  0.00    +0.000 C 
ATOM     17  C   UNL     1       2.574   3.506  18.865  0.00  0.00    +0.000 C 
ATOM     18  C   UNL     1       3.414   4.225  19.916  0.00  0.00    +0.000 C 
ATOM     19  C   UNL     1       4.817   4.320  19.277  0.00  0.00    +0.000 C 
BRANCH  15  20
ATOM     20  C   UNL     1       4.569   4.790  16.852  0.00  0.00    +0.000 C 
BRANCH  20  27
ATOM     21  C   UNL     1       5.638   3.871  13.850  0.00  0.00    +0.000 C 
ATOM     22  C   UNL     1       6.280   4.770  14.836  0.00  0.00    +0.000 A 
ATOM     23  N   UNL     1       7.445   5.347  14.522  0.00  0.00    +0.000 NA
ATOM     24  O   UNL     1       7.822   6.064  15.631  0.00  0.00    +0.000 OA
ATOM     25  C   UNL     1       6.892   5.921  16.609  0.00  0.00    +0.000 A 
ATOM     26  C   UNL     1       7.217   6.611  17.873  0.00  0.00    +0.000 C 
ATOM     27  C   UNL     1       5.847   5.133  16.150  0.00  0.00    +0.000 A 
ENDBRANCH  20  27
ENDBRANCH  15  20
ENDBRANCH   1  18
TORSDOF 4
ENDMDL
MODEL 3
REMARK VINA RESULT:      -8.3      1.091      1.260
REMARK  Name = 
REMARK  6 active torsions:
REMARK  status: ('A' for Active; 'I' for Inactive)
REMARK    1  A    between atoms: C_1  and  C_2
REMARK    2  A    between atoms: C_5  and  C_6
REMARK    3  A    between atoms: C_7  and  C_8
REMARK    4  A    between atoms: C_8  and  N_9
REMARK    5  A    between atoms: C_12  and  N_13
REMARK    6  A    between atoms: C_14  and  C_16
REMARK                            x       y       z     vdW  Elec       q    Type
REMARK                         _______ _______ _______ _____ _____    ______ ____
ROOT
ATOM      1  N   UNL     1       2.127   5.140  19.284  0.00  0.00    +0.000 N 
ATOM      2  C   UNL     1       2.034   5.759  20.508  0.00  0.00    +0.000 C 
ATOM      3  O   UNL     1       2.336   5.211  21.566  0.00  0.00    +0.000 OA
ATOM      4  H   UNL     1       1.899   5.686  18.470  0.00  0.00    +0.000 HD
ENDROOT
BRANCH   2   5
ATOM      5  C   UNL     1       1.597   7.146  20.436  0.00  0.00    +0.000 A 
ATOM      6  C   UNL     1       0.856   7.911  21.323  0.00  0.00    +0.000 A 
ATOM      7  C   UNL     1       0.645   9.197  20.761  0.00  0.00    +0.000 A 
ATOM      8  C   UNL     1      -0.043  10.346  21.196  0.00  0.00    +0.000 A 
ATOM      9  C   UNL     1      -0.067  11.478  20.379  0.00  0.00    +0.000 A 
ATOM     10  C   UNL     1       0.581  11.472  19.145  0.00  0.00    +0.000 A 
ATOM     11  C   UNL     1       1.270  10.339  18.693  0.00  0.00    +0.000 A 
ATOM     12  C   UNL     1       1.286   9.211  19.525  0.00  0.00    +0.000 A 
ATOM     13  N   UNL     1       1.865   7.971  19.360  0.00  0.00    +0.000 N 
ATOM     14  H   UNL     1       2.394   7.679  18.547  0.00  0.00    +0.000 HD
ENDBRANCH   2   5
BRANCH   1  18
ATOM     15  N   UNL     1       4.443   3.497  17.298  0.00  0.00    +0.000 NA
ATOM     16  C   UNL     1       3.367   2.500  17.152  0.00  0.00    +0.000 C 
ATOM     17  C   UNL     1       2.156   3.093  17.865  0.00  0.00    +0.000 C 
ATOM     18  C   UNL     1       2.759   3.853  19.043  0.00  0.00    +0.000 C 
ATOM     19  C   UNL     1       4.244   4.033  18.657  0.00  0.00    +0.000 C 
BRANCH  15  20
ATOM     20  C   UNL     1       4.392   4.504  16.224  0.00  0.00    +0.000 C 
BRANCH  20  27
ATOM     21  C   UNL     1       6.066   3.699  13.476  0.00  0.00    +0.000 C 
ATOM     22  C   UNL     1       6.446   4.629  14.563  0.00  0.00    +0.000 A 
ATOM     23  N   UNL     1       7.604   5.292  14.472  0.00  0.00    +0.000 NA
ATOM     24  O   UNL     1       7.716   6.020  15.630  0.00  0.00    +0.000 OA
ATOM     25  C   UNL     1       6.632   5.800  16.418  0.00  0.00    +0.000 A 
ATOM     26  C   UNL     1       6.665   6.496  17.719  0.00  0.00    +0.000 C 
ATOM     27  C   UNL     1       5.751   4.945  15.773  0.00  0.00    +0.000 A 
ENDBRANCH  20  27
ENDBRANCH  15  20
ENDBRANCH   1  18
TORSDOF 4
ENDMDL
MODEL 4
REMARK VINA RESULT:      -8.3      0.443      1.636
REMARK  Name = 
REMARK  6 active torsions:
REMARK  status: ('A' for Active; 'I' for Inactive)
REMARK    1  A    between atoms: C_1  and  C_2
REMARK    2  A    between atoms: C_5  and  C_6
REMARK    3  A    between atoms: C_7  and  C_8
REMARK    4  A    between atoms: C_8  and  N_9
REMARK    5  A    between atoms: C_12  and  N_13
REMARK    6  A    between atoms: C_14  and  C_16
REMARK                            x       y       z     vdW  Elec       q    Type
REMARK                         _______ _______ _______ _____ _____    ______ ____
ROOT
ATOM      1  N   UNL     1       2.774   5.560  20.295  0.00  0.00    +0.000 N 
ATOM      2  C   UNL     1       2.298   6.542  19.459  0.00  0.00    +0.000 C 
ATOM      3  O   UNL     1       2.356   6.470  18.233  0.00  0.00    +0.000 OA
ATOM      4  H   UNL     1       2.641   5.689  21.285  0.00  0.00    +0.000 HD
ENDROOT
BRANCH   2   5
ATOM      5  C   UNL     1       1.666   7.653  20.154  0.00  0.00    +0.000 A 
ATOM      6  C   UNL     1       1.138   7.741  21.433  0.00  0.00    +0.000 A 
ATOM      7  C   UNL     1       0.579   9.033  21.615  0.00  0.00    +0.000 A 
ATOM      8  C   UNL     1      -0.096   9.657  22.681  0.00  0.00    +0.000 A 
ATOM      9  C   UNL     1      -0.537  10.974  22.534  0.00  0.00    +0.000 A 
ATOM     10  C   UNL     1      -0.314  11.663  21.343  0.00  0.00    +0.000 A 
ATOM     11  C   UNL     1       0.354  11.060  20.269  0.00  0.00    +0.000 A 
ATOM     12  C   UNL     1       0.792   9.738  20.434  0.00  0.00    +0.000 A 
ATOM     13  N   UNL     1       1.462   8.892  19.577  0.00  0.00    +0.000 N 
ATOM     14  H   UNL     1       1.746   9.125  18.633  0.00  0.00    +0.000 HD
ENDBRANCH   2   5
BRANCH   1  18
ATOM     15  N   UNL     1       4.557   3.879  17.844  0.00  0.00    +0.000 NA
ATOM     16  C   UNL     1       3.378   2.995  17.824  0.00  0.00    +0.000 C 
ATOM     17  C   UNL     1       2.367   3.635  18.769  0.00  0.00    +0.000 C 
ATOM     18  C   UNL     1       3.227   4.245  19.870  0.00  0.00    +0.000 C 
ATOM     19  C   UNL     1       4.639   4.324  19.248  0.00  0.00    +0.000 C 
BRANCH  15  20
ATOM     20  C   UNL     1       4.431   4.967  16.860  0.00  0.00    +0.000 C 
BRANCH  20  27
ATOM     21  C   UNL     1       7.002   6.857  17.763  0.00  0.00    +0.000 C 
ATOM     22  C   UNL     1       6.834   6.027  16.548  0.00  0.00    +0.000 A 
ATOM     23  N   UNL     1       7.834   5.965  15.662  0.00  0.00    +0.000 NA
ATOM     24  O   UNL     1       7.377   5.184  14.630  0.00  0.00    +0.000 OA
ATOM     25  C   UNL     1       6.109   4.775  14.889  0.00  0.00    +0.000 A 
ATOM     26  C   UNL     1       5.493   3.965  13.820  0.00  0.00    +0.000 C 
ATOM     27  C   UNL     1       5.710   5.247  16.131  0.00  0.00    +0.000 A 
ENDBRANCH  20  27
ENDBRANCH  15  20
ENDBRANCH   1  18
TORSDOF 4
ENDMDL
MODEL 5
REMARK VINA RESULT:      -8.3      1.057      1.565
REMARK  Name = 
REMARK  6 active torsions:
REMARK  status: ('A' for Active; 'I' for Inactive)
REMARK    1  A    between atoms: C_1  and  C_2
REMARK    2  A    between atoms: C_5  and  C_6
REMARK    3  A    between atoms: C_7  and  C_8
REMARK    4  A    between atoms: C_8  and  N_9
REMARK    5  A    between atoms: C_12  and  N_13
REMARK    6  A    between atoms: C_14  and  C_16
REMARK                            x       y       z     vdW  Elec       q    Type
REMARK                         _______ _______ _______ _____ _____    ______ ____
ROOT
ATOM      1  N   UNL     1       2.051   6.208  20.356  0.00  0.00    +0.000 N 
ATOM      2  C   UNL     1       2.093   7.393  19.660  0.00  0.00    +0.000 C 
ATOM      3  O   UNL     1       2.696   7.530  18.597  0.00  0.00    +0.000 OA
ATOM      4  H   UNL     1       1.494   6.183  21.194  0.00  0.00    +0.000 HD
ENDROOT
BRANCH   2   5
ATOM      5  C   UNL     1       1.313   8.462  20.266  0.00  0.00    +0.000 A 
ATOM      6  C   UNL     1       0.991   9.727  19.799  0.00  0.00    +0.000 A 
ATOM      7  C   UNL     1       0.254  10.415  20.798  0.00  0.00    +0.000 A 
ATOM      8  C   UNL     1      -0.299  11.707  20.879  0.00  0.00    +0.000 A 
ATOM      9  C   UNL     1      -0.979  12.088  22.038  0.00  0.00    +0.000 A 
ATOM     10  C   UNL     1      -1.110  11.199  23.103  0.00  0.00    +0.000 A 
ATOM     11  C   UNL     1      -0.566   9.909  23.043  0.00  0.00    +0.000 A 
ATOM     12  C   UNL     1       0.113   9.542  21.873  0.00  0.00    +0.000 A 
ATOM     13  N   UNL     1       0.744   8.369  21.522  0.00  0.00    +0.000 N 
ATOM     14  H   UNL     1       0.817   7.547  22.111  0.00  0.00    +0.000 HD
ENDBRANCH   2   5
BRANCH   1  18
ATOM     15  N   UNL     1       4.381   4.722  18.266  0.00  0.00    +0.000 NA
ATOM     16  C   UNL     1       3.213   3.980  17.761  0.00  0.00    +0.000 C 
ATOM     17  C   UNL     1       2.005   4.579  18.473  0.00  0.00    +0.000 C 
ATOM     18  C   UNL     1       2.532   4.929  19.861  0.00  0.00    +0.000 C 
ATOM     19  C   UNL     1       4.067   4.947  19.689  0.00  0.00    +0.000 C 
BRANCH  15  20
ATOM     20  C   UNL     1       4.618   5.948  17.485  0.00  0.00    +0.000 C 
BRANCH  20  27
ATOM     21  C   UNL     1       5.230   4.277  14.686  0.00  0.00    +0.000 C 
ATOM     22  C   UNL     1       6.113   5.200  15.435  0.00  0.00    +0.000 A 
ATOM     23  N   UNL     1       7.333   5.462  14.955  0.00  0.00    +0.000 NA
ATOM     24  O   UNL     1       7.933   6.286  15.874  0.00  0.00    +0.000 OA
ATOM     25  C   UNL     1       7.082   6.522  16.904  0.00  0.00    +0.000 A 
ATOM     26  C   UNL     1       7.640   7.361  17.984  0.00  0.00    +0.000 C 
ATOM     27  C   UNL     1       5.872   5.887  16.667  0.00  0.00    +0.000 A 
ENDBRANCH  20  27
ENDBRANCH  15  20
ENDBRANCH   1  18
TORSDOF 4
ENDMDL
MODEL 6
REMARK VINA RESULT:      -8.3      0.708      2.008
REMARK  Name = 
REMARK  6 active torsions:
REMARK  status: ('A' for Active; 'I' for Inactive)
REMARK    1  A    between atoms: C_1  and  C_2
REMARK    2  A    between atoms: C_5  and  C_6
REMARK    3  A    between atoms: C_7  and  C_8
REMARK    4  A    between atoms: C_8  and  N_9
REMARK    5  A    between atoms: C_12  and  N_13
REMARK    6  A    between atoms: C_14  and  C_16
REMARK                            x       y       z     vdW  Elec       q    Type
REMARK                         _______ _______ _______ _____ _____    ______ ____
ROOT
ATOM      1  N   UNL     1       2.730   5.386  20.259  0.00  0.00    +0.000 N 
ATOM      2  C   UNL     1       2.708   6.502  19.455  0.00  0.00    +0.000 C 
ATOM      3  O   UNL     1       3.264   6.555  18.360  0.00  0.00    +0.000 OA
ATOM      4  H   UNL     1       2.207   5.424  21.118  0.00  0.00    +0.000 HD
ENDROOT
BRANCH   2   5
ATOM      5  C   UNL     1       1.917   7.600  19.992  0.00  0.00    +0.000 A 
ATOM      6  C   UNL     1       1.456   8.762  19.394  0.00  0.00    +0.000 A 
ATOM      7  C   UNL     1       0.777   9.544  20.365  0.00  0.00    +0.000 A 
ATOM      8  C   UNL     1       0.142  10.800  20.329  0.00  0.00    +0.000 A 
ATOM      9  C   UNL     1      -0.441  11.304  21.494  0.00  0.00    +0.000 A 
ATOM     10  C   UNL     1      -0.394  10.574  22.680  0.00  0.00    +0.000 A 
ATOM     11  C   UNL     1       0.235   9.323  22.737  0.00  0.00    +0.000 A 
ATOM     12  C   UNL     1       0.814   8.830  21.560  0.00  0.00    +0.000 A 
ATOM     13  N   UNL     1       1.490   7.657  21.305  0.00  0.00    +0.000 N 
ATOM     14  H   UNL     1       1.685   6.936  21.990  0.00  0.00    +0.000 HD
ENDBRANCH   2   5
BRANCH   1  18
ATOM     15  N   UNL     1       4.561   3.715  17.837  0.00  0.00    +0.000 NA
ATOM     16  C   UNL     1       3.419   2.784  17.850  0.00  0.00    +0.000 C 
ATOM     17  C   UNL     1       2.390   3.407  18.786  0.00  0.00    +0.000 C 
ATOM     18  C   UNL     1       3.233   4.080  19.864  0.00  0.00    +0.000 C 
ATOM     19  C   UNL     1       4.635   4.199  19.228  0.00  0.00    +0.000 C 
BRANCH  15  20
ATOM     20  C   UNL     1       4.384   4.771  16.826  0.00  0.00    +0.000 C 
BRANCH  20  27
ATOM     21  C   UNL     1       6.814   6.797  17.822  0.00  0.00    +0.000 C 
ATOM     22  C   UNL     1       6.726   5.978  16.592  0.00  0.00    +0.000 A 
ATOM     23  N   UNL     1       7.750   5.990  15.731  0.00  0.00    +0.000 NA
ATOM     24  O   UNL     1       7.367   5.199  14.676  0.00  0.00    +0.000 OA
ATOM     25  C   UNL     1       6.119   4.711  14.897  0.00  0.00    +0.000 A 
ATOM     26  C   UNL     1       5.580   3.882  13.801  0.00  0.00    +0.000 C 
ATOM     27  C   UNL     1       5.662   5.138  16.134  0.00  0.00    +0.000 A 
ENDBRANCH  20  27
ENDBRANCH  15  20
ENDBRANCH   1  18
TORSDOF 4
ENDMDL
MODEL 7
REMARK VINA RESULT:      -8.2      3.806      7.222
REMARK  Name = 
REMARK  6 active torsions:
REMARK  status: ('A' for Active; 'I' for Inactive)
REMARK    1  A    between atoms: C_1  and  C_2
REMARK    2  A    between atoms: C_5  and  C_6
REMARK    3  A    between atoms: C_7  and  C_8
REMARK    4  A    between atoms: C_8  and  N_9
REMARK    5  A    between atoms: C_12  and  N_13
REMARK    6  A    between atoms: C_14  and  C_16
REMARK                            x       y       z     vdW  Elec       q    Type
REMARK                         _______ _______ _______ _____ _____    ______ ____
ROOT
ATOM      1  N   UNL     1       7.158   7.583  17.087  0.00  0.00    +0.000 N 
ATOM      2  C   UNL     1       7.958   7.725  18.196  0.00  0.00    +0.000 C 
ATOM      3  O   UNL     1       8.238   6.794  18.949  0.00  0.00    +0.000 OA
ATOM      4  H   UNL     1       7.022   8.395  16.507  0.00  0.00    +0.000 HD
ENDROOT
BRANCH   2   5
ATOM      5  C   UNL     1       8.491   9.068  18.372  0.00  0.00    +0.000 A 
ATOM      6  C   UNL     1       8.415  10.187  17.558  0.00  0.00    +0.000 A 
ATOM      7  C   UNL     1       9.154  11.243  18.153  0.00  0.00    +0.000 A 
ATOM      8  C   UNL     1       9.436  12.567  17.768  0.00  0.00    +0.000 A 
ATOM      9  C   UNL     1      10.223  13.368  18.599  0.00  0.00    +0.000 A 
ATOM     10  C   UNL     1      10.725  12.861  19.796  0.00  0.00    +0.000 A 
ATOM     11  C   UNL     1      10.457  11.545  20.197  0.00  0.00    +0.000 A 
ATOM     12  C   UNL     1       9.665  10.755  19.352  0.00  0.00    +0.000 A 
ATOM     13  N   UNL     1       9.238   9.451  19.469  0.00  0.00    +0.000 N 
ATOM     14  H   UNL     1       9.463   8.831  20.239  0.00  0.00    +0.000 HD
ENDBRANCH   2   5
BRANCH   1  18
ATOM     15  N   UNL     1       4.928   4.978  17.587  0.00  0.00    +0.000 NA
ATOM     16  C   UNL     1       6.118   4.135  17.370  0.00  0.00    +0.000 C 
ATOM     17  C   UNL     1       7.291   5.101  17.250  0.00  0.00    +0.000 C 
ATOM     18  C   UNL     1       6.697   6.316  16.543  0.00  0.00    +0.000 C 
ATOM     19  C   UNL     1       5.173   6.156  16.735  0.00  0.00    +0.000 C 
BRANCH  15  20
ATOM     20  C   UNL     1       4.735   5.278  19.015  0.00  0.00    +0.000 C 
BRANCH  20  27
ATOM     21  C   UNL     1       3.471   2.224  19.290  0.00  0.00    +0.000 C 
ATOM     22  C   UNL     1       2.876   3.521  19.686  0.00  0.00    +0.000 A 
ATOM     23  N   UNL     1       1.672   3.530  20.268  0.00  0.00    +0.000 NA
ATOM     24  O   UNL     1       1.357   4.851  20.465  0.00  0.00    +0.000 OA
ATOM     25  C   UNL     1       2.364   5.638  20.006  0.00  0.00    +0.000 A 
ATOM     26  C   UNL     1       2.113   7.088  20.121  0.00  0.00    +0.000 C 
ATOM     27  C   UNL     1       3.396   4.844  19.528  0.00  0.00    +0.000 A 
ENDBRANCH  20  27
ENDBRANCH  15  20
ENDBRANCH   1  18
TORSDOF 4
ENDMDL
MODEL 8
REMARK VINA RESULT:      -8.2      3.587      7.149
REMARK  Name = 
REMARK  6 active torsions:
REMARK  status: ('A' for Active; 'I' for Inactive)
REMARK    1  A    between atoms: C_1  and  C_2
REMARK    2  A    between atoms: C_5  and  C_6
REMARK    3  A    between atoms: C_7  and  C_8
REMARK    4  A    between atoms: C_8  and  N_9
REMARK    5  A    between atoms: C_12  and  N_13
REMARK    6  A    between atoms: C_14  and  C_16
REMARK                            x       y       z     vdW  Elec       q    Type
REMARK                         _______ _______ _______ _____ _____    ______ ____
ROOT
ATOM      1  N   UNL     1       6.976   7.377  16.787  0.00  0.00    +0.000 N 
ATOM      2  C   UNL     1       7.719   7.436  17.942  0.00  0.00    +0.000 C 
ATOM      3  O   UNL     1       7.941   6.456  18.652  0.00  0.00    +0.000 OA
ATOM      4  H   UNL     1       6.887   8.223  16.249  0.00  0.00    +0.000 HD
ENDROOT
BRANCH   2   5
ATOM      5  C   UNL     1       8.269   8.754  18.223  0.00  0.00    +0.000 A 
ATOM      6  C   UNL     1       8.229   9.928  17.488  0.00  0.00    +0.000 A 
ATOM      7  C   UNL     1       8.971  10.927  18.173  0.00  0.00    +0.000 A 
ATOM      8  C   UNL     1       9.283  12.270  17.888  0.00  0.00    +0.000 A 
ATOM      9  C   UNL     1      10.062  12.997  18.791  0.00  0.00    +0.000 A 
ATOM     10  C   UNL     1      10.527  12.399  19.961  0.00  0.00    +0.000 A 
ATOM     11  C   UNL     1      10.230  11.063  20.262  0.00  0.00    +0.000 A 
ATOM     12  C   UNL     1       9.445  10.348  19.346  0.00  0.00    +0.000 A 
ATOM     13  N   UNL     1       8.996   9.046  19.361  0.00  0.00    +0.000 N 
ATOM     14  H   UNL     1       9.193   8.370  20.091  0.00  0.00    +0.000 HD
ENDBRANCH   2   5
BRANCH   1  18
ATOM     15  N   UNL     1       4.790   4.707  17.107  0.00  0.00    +0.000 NA
ATOM     16  C   UNL     1       5.984   3.903  16.796  0.00  0.00    +0.000 C 
ATOM     17  C   UNL     1       7.143   4.892  16.735  0.00  0.00    +0.000 C 
ATOM     18  C   UNL     1       6.519   6.154  16.146  0.00  0.00    +0.000 C 
ATOM     19  C   UNL     1       5.001   5.957  16.354  0.00  0.00    +0.000 C 
BRANCH  15  20
ATOM     20  C   UNL     1       4.623   4.883  18.560  0.00  0.00    +0.000 C 
BRANCH  20  27
ATOM     21  C   UNL     1       2.114   6.395  20.116  0.00  0.00    +0.000 C 
ATOM     22  C   UNL     1       2.240   4.978  19.703  0.00  0.00    +0.000 A 
ATOM     23  N   UNL     1       1.222   4.142  19.938  0.00  0.00    +0.000 NA
ATOM     24  O   UNL     1       1.641   2.907  19.511  0.00  0.00    +0.000 OA
ATOM     25  C   UNL     1       2.904   2.994  19.020  0.00  0.00    +0.000 A 
ATOM     26  C   UNL     1       3.480   1.710  18.574  0.00  0.00    +0.000 C 
ATOM     27  C   UNL     1       3.337   4.310  19.074  0.00  0.00    +0.000 A 
ENDBRANCH  20  27
ENDBRANCH  15  20
ENDBRANCH   1  18
TORSDOF 4
ENDMDL
MODEL 9
REMARK VINA RESULT:      -8.2      1.208      2.087
REMARK  Name = 
REMARK  6 active torsions:
REMARK  status: ('A' for Active; 'I' for Inactive)
REMARK    1  A    between atoms: C_1  and  C_2
REMARK    2  A    between atoms: C_5  and  C_6
REMARK    3  A    between atoms: C_7  and  C_8
REMARK    4  A    between atoms: C_8  and  N_9
REMARK    5  A    between atoms: C_12  and  N_13
REMARK    6  A    between atoms: C_14  and  C_16
REMARK                            x       y       z     vdW  Elec       q    Type
REMARK                         _______ _______ _______ _____ _____    ______ ____
ROOT
ATOM      1  N   UNL     1       2.274   5.102  19.248  0.00  0.00    +0.000 N 
ATOM      2  C   UNL     1       2.061   5.712  20.462  0.00  0.00    +0.000 C 
ATOM      3  O   UNL     1       2.217   5.141  21.540  0.00  0.00    +0.000 OA
ATOM      4  H   UNL     1       2.162   5.665  18.421  0.00  0.00    +0.000 HD
ENDROOT
BRANCH   2   5
ATOM      5  C   UNL     1       1.686   7.114  20.359  0.00  0.00    +0.000 A 
ATOM      6  C   UNL     1       1.059   7.954  21.267  0.00  0.00    +0.000 A 
ATOM      7  C   UNL     1       0.863   9.223  20.663  0.00  0.00    +0.000 A 
ATOM      8  C   UNL     1       0.269  10.424  21.098  0.00  0.00    +0.000 A 
ATOM      9  C   UNL     1       0.230  11.519  20.233  0.00  0.00    +0.000 A 
ATOM     10  C   UNL     1       0.772  11.427  18.952  0.00  0.00    +0.000 A 
ATOM     11  C   UNL     1       1.365  10.241  18.500  0.00  0.00    +0.000 A 
ATOM     12  C   UNL     1       1.398   9.151  19.380  0.00  0.00    +0.000 A 
ATOM     13  N   UNL     1       1.901   7.877  19.228  0.00  0.00    +0.000 N 
ATOM     14  H   UNL     1       2.346   7.523  18.388  0.00  0.00    +0.000 HD
ENDBRANCH   2   5
BRANCH   1  18
ATOM     15  N   UNL     1       4.443   3.293  17.241  0.00  0.00    +0.000 NA
ATOM     16  C   UNL     1       3.356   2.298  17.244  0.00  0.00    +0.000 C 
ATOM     17  C   UNL     1       2.199   2.954  17.989  0.00  0.00    +0.000 C 
ATOM     18  C   UNL     1       2.883   3.795  19.063  0.00  0.00    +0.000 C 
ATOM     19  C   UNL     1       4.339   3.931  18.566  0.00  0.00    +0.000 C 
BRANCH  15  20
ATOM     20  C   UNL     1       4.325   4.216  16.100  0.00  0.00    +0.000 C 
BRANCH  20  27
ATOM     21  C   UNL     1       6.178   6.517  17.607  0.00  0.00    +0.000 C 
ATOM     22  C   UNL     1       6.454   5.763  16.363  0.00  0.00    +0.000 A 
ATOM     23  N   UNL     1       7.609   5.971  15.722  0.00  0.00    +0.000 NA
ATOM     24  O   UNL     1       7.561   5.192  14.593  0.00  0.00    +0.000 OA
ATOM     25  C   UNL     1       6.385   4.516  14.551  0.00  0.00    +0.000 A 
ATOM     26  C   UNL     1       6.199   3.679  13.349  0.00  0.00    +0.000 C 
ATOM     27  C   UNL     1       5.639   4.803  15.684  0.00  0.00    +0.000 A 
ENDBRANCH  20  27
ENDBRANCH  15  20
ENDBRANCH   1  18
TORSDOF 4
ENDMDL
