MODEL 1
REMARK VINA RESULT:      -8.5      0.000      0.000
REMARK  Name = 
REMARK  11 active torsions:
REMARK  status: ('A' for Active; 'I' for Inactive)
REMARK    1  A    between atoms: C_2  and  C_3
REMARK    2  A    between atoms: N_5  and  C_6
REMARK    3  A    between atoms: C_6  and  C_7
REMARK    4  A    between atoms: C_7  and  O_8
REMARK    5  A    between atoms: C_7  and  C_9
REMARK    6  A    between atoms: C_9  and  C_10
REMARK    7  A    between atoms: C_10  and  C_11
REMARK    8  A    between atoms: C_10  and  C_18
REMARK    9  A    between atoms: C_11  and  C_12
REMARK   10  A    between atoms: N_20  and  C_21
REMARK   11  A    between atoms: C_29  and  O_30
REMARK                            x       y       z     vdW  Elec       q    Type
REMARK                         _______ _______ _______ _____ _____    ______ ____
ROOT
ATOM      1  C   UNL     1       5.452   6.385  17.629  0.00  0.00    +0.000 C 
ENDROOT
BRANCH   1   2
ATOM      2  C   UNL     1       5.385   5.223  18.681  0.00  0.00    +0.000 C 
ATOM      3  O   UNL     1       5.926   5.298  19.788  0.00  0.00    +0.000 OA
ATOM      4  N   UNL     1       4.727   4.105  18.275  0.00  0.00    +0.000 N 
ATOM      5  H   UNL     1       4.718   3.922  17.287  0.00  0.00    +0.000 HD
BRANCH   4   6
ATOM      6  C   UNL     1       4.417   2.865  19.047  0.00  0.00    +0.000 C 
ATOM      7  C   UNL     1       3.201   2.877  19.937  0.00  0.00    +0.000 A 
ATOM      8  C   UNL     1       3.084   2.675  21.306  0.00  0.00    +0.000 A 
ATOM      9  C   UNL     1       1.809   2.729  21.887  0.00  0.00    +0.000 A 
ATOM     10  C   UNL     1       0.683   3.033  21.107  0.00  0.00    +0.000 A 
ATOM     11  C   UNL     1       0.791   3.074  19.718  0.00  0.00    +0.000 A 
ATOM     12  C   UNL     1       2.042   2.862  19.163  0.00  0.00    +0.000 A 
ATOM     13  C   UNL     1       2.376   2.414  17.772  0.00  0.00    +0.000 C 
ATOM     14  C   UNL     1       3.849   1.923  17.953  0.00  0.00    +0.000 C 
BRANCH  14  15
ATOM     15  O   UNL     1       4.614   2.046  16.743  0.00  0.00    +0.000 OA
ATOM     16  H   UNL     1       4.481   1.235  16.223  0.00  0.00    +0.000 HD
ENDBRANCH  14  15
ENDBRANCH   4   6
ENDBRANCH   1   2
BRANCH   1  17
ATOM     17  C   UNL     1       6.523   6.303  16.472  0.00  0.00    +0.000 C 
BRANCH  17  18
ATOM     18  C   UNL     1       6.770   4.888  15.894  0.00  0.00    +0.000 C 
BRANCH  18  19
ATOM     19  O   UNL     1       7.747   4.164  16.649  0.00  0.00    +0.000 OA
ATOM     20  H   UNL     1       8.155   4.772  17.293  0.00  0.00    +0.000 HD
ENDBRANCH  18  19
BRANCH  18  21
ATOM     21  C   UNL     1       7.260   4.831  14.429  0.00  0.00    +0.000 C 
BRANCH  21  24
ATOM     22  O   UNL     1       7.304   4.173  11.626  0.00  0.00    +0.000 OA
ATOM     23  C   UNL     1       6.530   3.581  12.374  0.00  0.00    +0.000 C 
ATOM     24  N   UNL     1       6.419   3.875  13.712  0.00  0.00    +0.000 N 
ATOM     25  H   UNL     1       5.999   3.146  14.286  0.00  0.00    +0.000 HD
BRANCH  23  26
ATOM     26  C   UNL     1       5.540   2.546  11.855  0.00  0.00    +0.000 C 
ATOM     27 CL   UNL     1       4.035   3.304  11.273  0.00  0.00    +0.000 Cl
ENDBRANCH  23  26
ENDBRANCH  21  24
ENDBRANCH  18  21
ENDBRANCH  17  18
ENDBRANCH   1  17
BRANCH   1  28
ATOM     28  C   UNL     1       4.001   6.638  17.142  0.00  0.00    +0.000 C 
BRANCH  28  29
ATOM     29  C   UNL     1       3.036   7.300  18.113  0.00  0.00    +0.000 A 
ATOM     30  C   UNL     1       2.687   6.758  19.359  0.00  0.00    +0.000 A 
ATOM     31  C   UNL     1       1.851   7.440  20.242  0.00  0.00    +0.000 A 
ATOM     32  C   UNL     1       1.376   8.700  19.906  0.00  0.00    +0.000 A 
ATOM     33  C   UNL     1       1.708   9.260  18.675  0.00  0.00    +0.000 A 
ATOM     34  C   UNL     1       2.523   8.560  17.779  0.00  0.00    +0.000 A 
ENDBRANCH  28  29
ENDBRANCH   1  28
TORSDOF 11
ENDMDL
MODEL 2
REMARK VINA RESULT:      -8.5      0.600      1.063
REMARK  Name = 
REMARK  11 active torsions:
REMARK  status: ('A' for Active; 'I' for Inactive)
REMARK    1  A    between atoms: C_2  and  C_3
REMARK    2  A    between atoms: N_5  and  C_6
REMARK    3  A    between atoms: C_6  and  C_7
REMARK    4  A    between atoms: C_7  and  O_8
REMARK    5  A    between atoms: C_7  and  C_9
REMARK    6  A    between atoms: C_9  and  C_10
REMARK    7  A    between atoms: C_10  and  C_11
REMARK    8  A    between atoms: C_10  and  C_18
REMARK    9  A    between atoms: C_11  and  C_12
REMARK   10  A    between atoms: N_20  and  C_21
REMARK   11  A    between atoms: C_29  and  O_30
REMARK                            x       y       z     vdW  Elec       q    Type
REMARK                         _______ _______ _______ _____ _____    ______ ____
ROOT
ATOM      1  C   UNL     1       5.516   6.262  17.674  0.00  0.00    +0.000 C 
ENDROOT
BRANCH   1   2
ATOM      2  C   UNL     1       5.474   5.079  18.703  0.00  0.00    +0.000 C 
ATOM      3  O   UNL     1       6.124   5.089  19.753  0.00  0.00    +0.000 OA
ATOM      4  N   UNL     1       4.707   4.016  18.341  0.00  0.00    +0.000 N 
ATOM      5  H   UNL     1       4.591   3.861  17.355  0.00  0.00    +0.000 HD
BRANCH   4   6
ATOM      6  C   UNL     1       4.393   2.778  19.113  0.00  0.00    +0.000 C 
ATOM      7  C   UNL     1       3.181   2.799  20.011  0.00  0.00    +0.000 A 
ATOM      8  C   UNL     1       3.071   2.596  21.379  0.00  0.00    +0.000 A 
ATOM      9  C   UNL     1       1.800   2.660  21.969  0.00  0.00    +0.000 A 
ATOM     10  C   UNL     1       0.673   2.975  21.196  0.00  0.00    +0.000 A 
ATOM     11  C   UNL     1       0.772   3.016  19.807  0.00  0.00    +0.000 A 
ATOM     12  C   UNL     1       2.018   2.794  19.243  0.00  0.00    +0.000 A 
ATOM     13  C   UNL     1       2.339   2.346  17.850  0.00  0.00    +0.000 C 
ATOM     14  C   UNL     1       3.809   1.843  18.021  0.00  0.00    +0.000 C 
BRANCH  14  15
ATOM     15  O   UNL     1       4.568   1.961  16.806  0.00  0.00    +0.000 OA
ATOM     16  H   UNL     1       5.495   2.122  17.049  0.00  0.00    +0.000 HD
ENDBRANCH  14  15
ENDBRANCH   4   6
ENDBRANCH   1   2
BRANCH   1  17
ATOM     17  C   UNL     1       6.589   6.226  16.517  0.00  0.00    +0.000 C 
BRANCH  17  18
ATOM     18  C   UNL     1       6.827   4.839  15.873  0.00  0.00    +0.000 C 
BRANCH  18  19
ATOM     19  O   UNL     1       7.853   4.104  16.549  0.00  0.00    +0.000 OA
ATOM     20  H   UNL     1       8.708   4.301  16.124  0.00  0.00    +0.000 HD
ENDBRANCH  18  19
BRANCH  18  21
ATOM     21  C   UNL     1       7.241   4.844  14.384  0.00  0.00    +0.000 C 
BRANCH  21  24
ATOM     22  O   UNL     1       7.264   4.165  11.586  0.00  0.00    +0.000 OA
ATOM     23  C   UNL     1       6.526   3.549  12.352  0.00  0.00    +0.000 C 
ATOM     24  N   UNL     1       6.426   3.850  13.689  0.00  0.00    +0.000 N 
ATOM     25  H   UNL     1       6.044   3.111  14.276  0.00  0.00    +0.000 HD
BRANCH  23  26
ATOM     26  C   UNL     1       5.568   2.472  11.857  0.00  0.00    +0.000 C 
ATOM     27 CL   UNL     1       6.427   1.167  10.999  0.00  0.00    +0.000 Cl
ENDBRANCH  23  26
ENDBRANCH  21  24
ENDBRANCH  18  21
ENDBRANCH  17  18
ENDBRANCH   1  17
BRANCH   1  28
ATOM     28  C   UNL     1       4.061   6.493  17.193  0.00  0.00    +0.000 C 
BRANCH  28  29
ATOM     29  C   UNL     1       3.140   7.309  18.088  0.00  0.00    +0.000 A 
ATOM     30  C   UNL     1       2.562   8.528  17.709  0.00  0.00    +0.000 A 
ATOM     31  C   UNL     1       1.669   9.201  18.542  0.00  0.00    +0.000 A 
ATOM     32  C   UNL     1       1.309   8.642  19.760  0.00  0.00    +0.000 A 
ATOM     33  C   UNL     1       1.868   7.431  20.159  0.00  0.00    +0.000 A 
ATOM     34  C   UNL     1       2.787   6.774  19.334  0.00  0.00    +0.000 A 
ENDBRANCH  28  29
ENDBRANCH   1  28
TORSDOF 11
ENDMDL
MODEL 3
REMARK VINA RESULT:      -7.8      3.813      6.106
REMARK  Name = 
REMARK  11 active torsions:
REMARK  status: ('A' for Active; 'I' for Inactive)
REMARK    1  A    between atoms: C_2  and  C_3
REMARK    2  A    between atoms: N_5  and  C_6
REMARK    3  A    between atoms: C_6  and  C_7
REMARK    4  A    between atoms: C_7  and  O_8
REMARK    5  A    between atoms: C_7  and  C_9
REMARK    6  A    between atoms: C_9  and  C_10
REMARK    7  A    between atoms: C_10  and  C_11
REMARK    8  A    between atoms: C_10  and  C_18
REMARK    9  A    between atoms: C_11  and  C_12
REMARK   10  A    between atoms: N_20  and  C_21
REMARK   11  A    between atoms: C_29  and  O_30
REMARK                            x       y       z     vdW  Elec       q    Type
REMARK                         _______ _______ _______ _____ _____    ______ ____
ROOT
ATOM      1  C   UNL     1       5.991   5.712  17.205  0.00  0.00    +0.000 C 
ENDROOT
BRANCH   1   2
ATOM      2  C   UNL     1       5.503   4.853  18.424  0.00  0.00    +0.000 C 
ATOM      3  O   UNL     1       5.540   5.269  19.586  0.00  0.00    +0.000 OA
ATOM      4  N   UNL     1       5.076   3.598  18.121  0.00  0.00    +0.000 N 
ATOM      5  H   UNL     1       5.476   3.173  17.303  0.00  0.00    +0.000 HD
BRANCH   4   6
ATOM      6  C   UNL     1       4.483   2.565  19.021  0.00  0.00    +0.000 C 
ATOM      7  C   UNL     1       3.254   2.942  19.810  0.00  0.00    +0.000 A 
ATOM      8  C   UNL     1       3.035   2.962  21.180  0.00  0.00    +0.000 A 
ATOM      9  C   UNL     1       1.773   3.348  21.654  0.00  0.00    +0.000 A 
ATOM     10  C   UNL     1       0.771   3.755  20.760  0.00  0.00    +0.000 A 
ATOM     11  C   UNL     1       0.950   3.578  19.390  0.00  0.00    +0.000 A 
ATOM     12  C   UNL     1       2.154   3.047  18.960  0.00  0.00    +0.000 A 
ATOM     13  C   UNL     1       2.453   2.351  17.666  0.00  0.00    +0.000 C 
ATOM     14  C   UNL     1       3.784   1.610  18.017  0.00  0.00    +0.000 C 
BRANCH  14  15
ATOM     15  O   UNL     1       4.613   1.408  16.862  0.00  0.00    +0.000 OA
ATOM     16  H   UNL     1       5.529   1.293  17.169  0.00  0.00    +0.000 HD
ENDBRANCH  14  15
ENDBRANCH   4   6
ENDBRANCH   1   2
BRANCH   1  17
ATOM     17  C   UNL     1       6.305   7.242  17.430  0.00  0.00    +0.000 C 
BRANCH  17  18
ATOM     18  C   UNL     1       7.804   7.598  17.584  0.00  0.00    +0.000 C 
BRANCH  18  19
ATOM     19  O   UNL     1       8.325   7.181  18.851  0.00  0.00    +0.000 OA
ATOM     20  H   UNL     1       8.381   6.207  18.859  0.00  0.00    +0.000 HD
ENDBRANCH  18  19
BRANCH  18  21
ATOM     21  C   UNL     1       8.161   9.097  17.468  0.00  0.00    +0.000 C 
BRANCH  21  24
ATOM     22  O   UNL     1       9.813  11.376  18.075  0.00  0.00    +0.000 OA
ATOM     23  C   UNL     1       9.385  10.678  18.992  0.00  0.00    +0.000 C 
ATOM     24  N   UNL     1       8.633   9.548  18.775  0.00  0.00    +0.000 N 
ATOM     25  H   UNL     1       8.083   9.230  19.572  0.00  0.00    +0.000 HD
BRANCH  23  26
ATOM     26  C   UNL     1       9.754  10.941  20.446  0.00  0.00    +0.000 C 
ATOM     27 CL   UNL     1      11.013  12.194  20.593  0.00  0.00    +0.000 Cl
ENDBRANCH  23  26
ENDBRANCH  21  24
ENDBRANCH  18  21
ENDBRANCH  17  18
ENDBRANCH   1  17
BRANCH   1  28
ATOM     28  C   UNL     1       7.133   4.916  16.521  0.00  0.00    +0.000 C 
BRANCH  28  29
ATOM     29  C   UNL     1       6.993   4.613  15.037  0.00  0.00    +0.000 A 
ATOM     30  C   UNL     1       6.050   3.721  14.508  0.00  0.00    +0.000 A 
ATOM     31  C   UNL     1       5.917   3.533  13.133  0.00  0.00    +0.000 A 
ATOM     32  C   UNL     1       6.706   4.265  12.258  0.00  0.00    +0.000 A 
ATOM     33  C   UNL     1       7.650   5.158  12.758  0.00  0.00    +0.000 A 
ATOM     34  C   UNL     1       7.801   5.323  14.140  0.00  0.00    +0.000 A 
ENDBRANCH  28  29
ENDBRANCH   1  28
TORSDOF 11
ENDMDL
MODEL 4
REMARK VINA RESULT:      -7.7      2.886      6.261
REMARK  Name = 
REMARK  11 active torsions:
REMARK  status: ('A' for Active; 'I' for Inactive)
REMARK    1  A    between atoms: C_2  and  C_3
REMARK    2  A    between atoms: N_5  and  C_6
REMARK    3  A    between atoms: C_6  and  C_7
REMARK    4  A    between atoms: C_7  and  O_8
REMARK    5  A    between atoms: C_7  and  C_9
REMARK    6  A    between atoms: C_9  and  C_10
REMARK    7  A    between atoms: C_10  and  C_11
REMARK    8  A    between atoms: C_10  and  C_18
REMARK    9  A    between atoms: C_11  and  C_12
REMARK   10  A    between atoms: N_20  and  C_21
REMARK   11  A    between atoms: C_29  and  O_30
REMARK                            x       y       z     vdW  Elec       q    Type
REMARK                         _______ _______ _______ _____ _____    ______ ____
ROOT
ATOM      1  C   UNL     1       2.704   7.207  17.943  0.00  0.00    +0.000 C 
ENDROOT
BRANCH   1   2
ATOM      2  C   UNL     1       2.287   8.701  18.181  0.00  0.00    +0.000 C 
ATOM      3  O   UNL     1       2.320   9.549  17.285  0.00  0.00    +0.000 OA
ATOM      4  N   UNL     1       1.928   9.011  19.455  0.00  0.00    +0.000 N 
ATOM      5  H   UNL     1       2.338   8.456  20.186  0.00  0.00    +0.000 HD
BRANCH   4   6
ATOM      6  C   UNL     1       1.411  10.303  19.997  0.00  0.00    +0.000 C 
ATOM      7  C   UNL     1       0.302  10.988  19.240  0.00  0.00    +0.000 A 
ATOM      8  C   UNL     1       0.250  12.249  18.662  0.00  0.00    +0.000 A 
ATOM      9  C   UNL     1      -0.931  12.647  18.019  0.00  0.00    +0.000 A 
ATOM     10  C   UNL     1      -2.017  11.765  17.918  0.00  0.00    +0.000 A 
ATOM     11  C   UNL     1      -2.012  10.572  18.636  0.00  0.00    +0.000 A 
ATOM     12  C   UNL     1      -0.888  10.277  19.390  0.00  0.00    +0.000 A 
ATOM     13  C   UNL     1      -0.773   9.350  20.562  0.00  0.00    +0.000 C 
ATOM     14  C   UNL     1       0.562   9.840  21.210  0.00  0.00    +0.000 C 
BRANCH  14  15
ATOM     15  O   UNL     1       1.238   8.789  21.919  0.00  0.00    +0.000 OA
ATOM     16  H   UNL     1       2.058   9.158  22.288  0.00  0.00    +0.000 HD
ENDBRANCH  14  15
ENDBRANCH   4   6
ENDBRANCH   1   2
BRANCH   1  17
ATOM     17  C   UNL     1       3.993   6.904  17.084  0.00  0.00    +0.000 C 
BRANCH  17  18
ATOM     18  C   UNL     1       5.174   6.267  17.856  0.00  0.00    +0.000 C 
BRANCH  18  19
ATOM     19  O   UNL     1       6.415   6.919  17.570  0.00  0.00    +0.000 OA
ATOM     20  H   UNL     1       7.057   6.248  17.270  0.00  0.00    +0.000 HD
ENDBRANCH  18  19
BRANCH  18  21
ATOM     21  C   UNL     1       5.429   4.766  17.588  0.00  0.00    +0.000 C 
BRANCH  21  24
ATOM     22  O   UNL     1       7.795   4.591  15.957  0.00  0.00    +0.000 OA
ATOM     23  C   UNL     1       6.690   4.459  15.436  0.00  0.00    +0.000 C 
ATOM     24  N   UNL     1       5.517   4.578  16.142  0.00  0.00    +0.000 N 
ATOM     25  H   UNL     1       4.699   4.156  15.706  0.00  0.00    +0.000 HD
BRANCH  23  26
ATOM     26  C   UNL     1       6.524   4.267  13.933  0.00  0.00    +0.000 C 
ATOM     27 CL   UNL     1       7.722   5.210  13.010  0.00  0.00    +0.000 Cl
ENDBRANCH  23  26
ENDBRANCH  21  24
ENDBRANCH  18  21
ENDBRANCH  17  18
ENDBRANCH   1  17
BRANCH   1  28
ATOM     28  C   UNL     1       2.677   6.505  19.326  0.00  0.00    +0.000 C 
BRANCH  28  29
ATOM     29  C   UNL     1       2.013   5.139  19.413  0.00  0.00    +0.000 A 
ATOM     30  C   UNL     1       1.750   4.327  18.301  0.00  0.00    +0.000 A 
ATOM     31  C   UNL     1       1.203   3.053  18.442  0.00  0.00    +0.000 A 
ATOM     32  C   UNL     1       0.942   2.552  19.710  0.00  0.00    +0.000 A 
ATOM     33  C   UNL     1       1.196   3.338  20.831  0.00  0.00    +0.000 A 
ATOM     34  C   UNL     1       1.717   4.628  20.683  0.00  0.00    +0.000 A 
ENDBRANCH  28  29
ENDBRANCH   1  28
TORSDOF 11
ENDMDL
MODEL 5
REMARK VINA RESULT:      -7.6      3.797      6.411
REMARK  Name = 
REMARK  11 active torsions:
REMARK  status: ('A' for Active; 'I' for Inactive)
REMARK    1  A    between atoms: C_2  and  C_3
REMARK    2  A    between atoms: N_5  and  C_6
REMARK    3  A    between atoms: C_6  and  C_7
REMARK    4  A    between atoms: C_7  and  O_8
REMARK    5  A    between atoms: C_7  and  C_9
REMARK    6  A    between atoms: C_9  and  C_10
REMARK    7  A    between atoms: C_10  and  C_11
REMARK    8  A    between atoms: C_10  and  C_18
REMARK    9  A    between atoms: C_11  and  C_12
REMARK   10  A    between atoms: N_20  and  C_21
REMARK   11  A    between atoms: C_29  and  O_30
REMARK                            x       y       z     vdW  Elec       q    Type
REMARK                         _______ _______ _______ _____ _____    ______ ____
ROOT
ATOM      1  C   UNL     1       5.960   5.579  16.928  0.00  0.00    +0.000 C 
ENDROOT
BRANCH   1   2
ATOM      2  C   UNL     1       4.496   5.018  16.991  0.00  0.00    +0.000 C 
ATOM      3  O   UNL     1       4.176   3.940  16.483  0.00  0.00    +0.000 OA
ATOM      4  N   UNL     1       3.589   5.823  17.605  0.00  0.00    +0.000 N 
ATOM      5  H   UNL     1       3.774   6.810  17.580  0.00  0.00    +0.000 HD
BRANCH   4   6
ATOM      6  C   UNL     1       2.148   5.561  17.899  0.00  0.00    +0.000 C 
ATOM      7  C   UNL     1       1.823   4.535  18.955  0.00  0.00    +0.000 A 
ATOM      8  C   UNL     1       1.088   3.360  18.872  0.00  0.00    +0.000 A 
ATOM      9  C   UNL     1       0.926   2.585  20.030  0.00  0.00    +0.000 A 
ATOM     10  C   UNL     1       1.542   2.964  21.232  0.00  0.00    +0.000 A 
ATOM     11  C   UNL     1       2.138   4.219  21.341  0.00  0.00    +0.000 A 
ATOM     12  C   UNL     1       2.145   5.029  20.218  0.00  0.00    +0.000 A 
ATOM     13  C   UNL     1       2.292   6.519  20.149  0.00  0.00    +0.000 C 
ATOM     14  C   UNL     1       1.741   6.816  18.716  0.00  0.00    +0.000 C 
BRANCH  14  15
ATOM     15  O   UNL     1       2.328   7.995  18.143  0.00  0.00    +0.000 OA
ATOM     16  H   UNL     1       2.739   7.743  17.299  0.00  0.00    +0.000 HD
ENDBRANCH  14  15
ENDBRANCH   4   6
ENDBRANCH   1   2
BRANCH   1  17
ATOM     17  C   UNL     1       6.574   6.250  18.218  0.00  0.00    +0.000 C 
BRANCH  17  18
ATOM     18  C   UNL     1       7.882   7.048  17.995  0.00  0.00    +0.000 C 
BRANCH  18  19
ATOM     19  O   UNL     1       8.720   7.038  19.155  0.00  0.00    +0.000 OA
ATOM     20  H   UNL     1       8.352   6.404  19.799  0.00  0.00    +0.000 HD
ENDBRANCH  18  19
BRANCH  18  21
ATOM     21  C   UNL     1       7.713   8.539  17.625  0.00  0.00    +0.000 C 
BRANCH  21  24
ATOM     22  O   UNL     1       8.263  11.363  17.503  0.00  0.00    +0.000 OA
ATOM     23  C   UNL     1       8.837  10.670  18.340  0.00  0.00    +0.000 C 
ATOM     24  N   UNL     1       8.662   9.309  18.425  0.00  0.00    +0.000 N 
ATOM     25  H   UNL     1       8.925   8.889  19.315  0.00  0.00    +0.000 HD
BRANCH  23  26
ATOM     26  C   UNL     1       9.887  11.247  19.282  0.00  0.00    +0.000 C 
ATOM     27 CL   UNL     1       9.408  11.074  20.991  0.00  0.00    +0.000 Cl
ENDBRANCH  23  26
ENDBRANCH  21  24
ENDBRANCH  18  21
ENDBRANCH  17  18
ENDBRANCH   1  17
BRANCH   1  28
ATOM     28  C   UNL     1       6.843   4.467  16.303  0.00  0.00    +0.000 C 
BRANCH  28  29
ATOM     29  C   UNL     1       6.960   4.426  14.787  0.00  0.00    +0.000 A 
ATOM     30  C   UNL     1       6.180   3.600  13.966  0.00  0.00    +0.000 A 
ATOM     31  C   UNL     1       6.278   3.653  12.576  0.00  0.00    +0.000 A 
ATOM     32  C   UNL     1       7.138   4.564  11.980  0.00  0.00    +0.000 A 
ATOM     33  C   UNL     1       7.923   5.397  12.774  0.00  0.00    +0.000 A 
ATOM     34  C   UNL     1       7.843   5.320  14.169  0.00  0.00    +0.000 A 
ENDBRANCH  28  29
ENDBRANCH   1  28
TORSDOF 11
ENDMDL
MODEL 6
REMARK VINA RESULT:      -7.6      1.505      2.067
REMARK  Name = 
REMARK  11 active torsions:
REMARK  status: ('A' for Active; 'I' for Inactive)
REMARK    1  A    between atoms: C_2  and  C_3
REMARK    2  A    between atoms: N_5  and  C_6
REMARK    3  A    between atoms: C_6  and  C_7
REMARK    4  A    between atoms: C_7  and  O_8
REMARK    5  A    between atoms: C_7  and  C_9
REMARK    6  A    between atoms: C_9  and  C_10
REMARK    7  A    between atoms: C_10  and  C_11
REMARK    8  A    between atoms: C_10  and  C_18
REMARK    9  A    between atoms: C_11  and  C_12
REMARK   10  A    between atoms: N_20  and  C_21
REMARK   11  A    between atoms: C_29  and  O_30
REMARK                            x       y       z     vdW  Elec       q    Type
REMARK                         _______ _______ _______ _____ _____    ______ ____
ROOT
ATOM      1  C   UNL     1       4.149   7.147  18.030  0.00  0.00    +0.000 C 
ENDROOT
BRANCH   1   2
ATOM      2  C   UNL     1       3.899   5.921  18.976  0.00  0.00    +0.000 C 
ATOM      3  O   UNL     1       3.273   6.017  20.036  0.00  0.00    +0.000 OA
ATOM      4  N   UNL     1       4.458   4.749  18.573  0.00  0.00    +0.000 N 
ATOM      5  H   UNL     1       5.285   4.817  18.006  0.00  0.00    +0.000 HD
BRANCH   4   6
ATOM      6  C   UNL     1       4.350   3.394  19.193  0.00  0.00    +0.000 C 
ATOM      7  C   UNL     1       3.095   3.074  19.964  0.00  0.00    +0.000 A 
ATOM      8  C   UNL     1       2.923   2.703  21.291  0.00  0.00    +0.000 A 
ATOM      9  C   UNL     1       1.626   2.446  21.755  0.00  0.00    +0.000 A 
ATOM     10  C   UNL     1       0.520   2.614  20.908  0.00  0.00    +0.000 A 
ATOM     11  C   UNL     1       0.717   2.829  19.545  0.00  0.00    +0.000 A 
ATOM     12  C   UNL     1       2.020   2.923  19.089  0.00  0.00    +0.000 A 
ATOM     13  C   UNL     1       2.535   2.706  17.698  0.00  0.00    +0.000 C 
ATOM     14  C   UNL     1       4.060   2.489  17.966  0.00  0.00    +0.000 C 
BRANCH  14  15
ATOM     15  O   UNL     1       4.869   2.890  16.848  0.00  0.00    +0.000 OA
ATOM     16  H   UNL     1       5.793   2.666  17.054  0.00  0.00    +0.000 HD
ENDBRANCH  14  15
ENDBRANCH   4   6
ENDBRANCH   1   2
BRANCH   1  17
ATOM     17  C   UNL     1       5.225   7.017  16.883  0.00  0.00    +0.000 C 
BRANCH  17  18
ATOM     18  C   UNL     1       6.692   6.877  17.360  0.00  0.00    +0.000 C 
BRANCH  18  19
ATOM     19  O   UNL     1       7.513   7.948  16.886  0.00  0.00    +0.000 OA
ATOM     20  H   UNL     1       8.069   8.264  17.623  0.00  0.00    +0.000 HD
ENDBRANCH  18  19
BRANCH  18  21
ATOM     21  C   UNL     1       7.422   5.582  16.935  0.00  0.00    +0.000 C 
BRANCH  21  24
ATOM     22  O   UNL     1       7.853   5.455  14.091  0.00  0.00    +0.000 OA
ATOM     23  C   UNL     1       6.899   4.860  14.586  0.00  0.00    +0.000 C 
ATOM     24  N   UNL     1       6.603   4.915  15.926  0.00  0.00    +0.000 N 
ATOM     25  H   UNL     1       6.007   4.166  16.274  0.00  0.00    +0.000 HD
BRANCH  23  26
ATOM     26  C   UNL     1       5.890   4.103  13.731  0.00  0.00    +0.000 C 
ATOM     27 CL   UNL     1       6.607   3.550  12.196  0.00  0.00    +0.000 Cl
ENDBRANCH  23  26
ENDBRANCH  21  24
ENDBRANCH  18  21
ENDBRANCH  17  18
ENDBRANCH   1  17
BRANCH   1  28
ATOM     28  C   UNL     1       2.758   7.638  17.551  0.00  0.00    +0.000 C 
BRANCH  28  29
ATOM     29  C   UNL     1       2.114   8.788  18.309  0.00  0.00    +0.000 A 
ATOM     30  C   UNL     1       2.084  10.110  17.843  0.00  0.00    +0.000 A 
ATOM     31  C   UNL     1       1.419  11.115  18.544  0.00  0.00    +0.000 A 
ATOM     32  C   UNL     1       0.737  10.804  19.712  0.00  0.00    +0.000 A 
ATOM     33  C   UNL     1       0.750   9.498  20.195  0.00  0.00    +0.000 A 
ATOM     34  C   UNL     1       1.444   8.498  19.504  0.00  0.00    +0.000 A 
ENDBRANCH  28  29
ENDBRANCH   1  28
TORSDOF 11
ENDMDL
MODEL 7
REMARK VINA RESULT:      -7.5      3.788      4.929
REMARK  Name = 
REMARK  11 active torsions:
REMARK  status: ('A' for Active; 'I' for Inactive)
REMARK    1  A    between atoms: C_2  and  C_3
REMARK    2  A    between atoms: N_5  and  C_6
REMARK    3  A    between atoms: C_6  and  C_7
REMARK    4  A    between atoms: C_7  and  O_8
REMARK    5  A    between atoms: C_7  and  C_9
REMARK    6  A    between atoms: C_9  and  C_10
REMARK    7  A    between atoms: C_10  and  C_11
REMARK    8  A    between atoms: C_10  and  C_18
REMARK    9  A    between atoms: C_11  and  C_12
REMARK   10  A    between atoms: N_20  and  C_21
REMARK   11  A    between atoms: C_29  and  O_30
REMARK                            x       y       z     vdW  Elec       q    Type
REMARK                         _______ _______ _______ _____ _____    ______ ____
ROOT
ATOM      1  C   UNL     1       5.359   6.756  17.843  0.00  0.00    +0.000 C 
ENDROOT
BRANCH   1   2
ATOM      2  C   UNL     1       5.113   5.376  18.548  0.00  0.00    +0.000 C 
ATOM      3  O   UNL     1       5.633   5.080  19.628  0.00  0.00    +0.000 OA
ATOM      4  N   UNL     1       4.324   4.504  17.866  0.00  0.00    +0.000 N 
ATOM      5  H   UNL     1       4.315   4.593  16.865  0.00  0.00    +0.000 HD
BRANCH   4   6
ATOM      6  C   UNL     1       3.835   3.156  18.282  0.00  0.00    +0.000 C 
ATOM      7  C   UNL     1       3.092   3.051  19.589  0.00  0.00    +0.000 A 
ATOM      8  C   UNL     1       3.369   2.306  20.727  0.00  0.00    +0.000 A 
ATOM      9  C   UNL     1       2.489   2.385  21.815  0.00  0.00    +0.000 A 
ATOM     10  C   UNL     1       1.379   3.242  21.772  0.00  0.00    +0.000 A 
ATOM     11  C   UNL     1       1.024   3.858  20.573  0.00  0.00    +0.000 A 
ATOM     12  C   UNL     1       1.831   3.635  19.470  0.00  0.00    +0.000 A 
ATOM     13  C   UNL     1       1.480   3.776  18.020  0.00  0.00    +0.000 C 
ATOM     14  C   UNL     1       2.617   2.939  17.346  0.00  0.00    +0.000 C 
BRANCH  14  15
ATOM     15  O   UNL     1       2.918   3.402  16.020  0.00  0.00    +0.000 OA
ATOM     16  H   UNL     1       2.509   4.277  15.910  0.00  0.00    +0.000 HD
ENDBRANCH  14  15
ENDBRANCH   4   6
ENDBRANCH   1   2
BRANCH   1  17
ATOM     17  C   UNL     1       6.605   6.912  16.887  0.00  0.00    +0.000 C 
BRANCH  17  18
ATOM     18  C   UNL     1       7.845   7.591  17.516  0.00  0.00    +0.000 C 
BRANCH  18  19
ATOM     19  O   UNL     1       8.144   7.065  18.814  0.00  0.00    +0.000 OA
ATOM     20  H   UNL     1       7.313   6.756  19.223  0.00  0.00    +0.000 HD
ENDBRANCH  18  19
BRANCH  18  21
ATOM     21  C   UNL     1       7.756   9.123  17.707  0.00  0.00    +0.000 C 
BRANCH  21  24
ATOM     22  O   UNL     1       9.026  11.683  18.058  0.00  0.00    +0.000 OA
ATOM     23  C   UNL     1       9.279  10.770  18.841  0.00  0.00    +0.000 C 
ATOM     24  N   UNL     1       8.749   9.509  18.706  0.00  0.00    +0.000 N 
ATOM     25  H   UNL     1       8.768   8.935  19.548  0.00  0.00    +0.000 HD
BRANCH  23  26
ATOM     26  C   UNL     1      10.299  10.927  19.962  0.00  0.00    +0.000 C 
ATOM     27 CL   UNL     1      11.049  12.544  19.952  0.00  0.00    +0.000 Cl
ENDBRANCH  23  26
ENDBRANCH  21  24
ENDBRANCH  18  21
ENDBRANCH  17  18
ENDBRANCH   1  17
BRANCH   1  28
ATOM     28  C   UNL     1       4.009   7.187  17.213  0.00  0.00    +0.000 C 
BRANCH  28  29
ATOM     29  C   UNL     1       2.993   7.870  18.115  0.00  0.00    +0.000 A 
ATOM     30  C   UNL     1       2.289   9.030  17.761  0.00  0.00    +0.000 A 
ATOM     31  C   UNL     1       1.317   9.576  18.597  0.00  0.00    +0.000 A 
ATOM     32  C   UNL     1       1.004   8.946  19.794  0.00  0.00    +0.000 A 
ATOM     33  C   UNL     1       1.688   7.792  20.168  0.00  0.00    +0.000 A 
ATOM     34  C   UNL     1       2.684   7.264  19.340  0.00  0.00    +0.000 A 
ENDBRANCH  28  29
ENDBRANCH   1  28
TORSDOF 11
ENDMDL
MODEL 8
REMARK VINA RESULT:      -7.4      2.012      3.787
REMARK  Name = 
REMARK  11 active torsions:
REMARK  status: ('A' for Active; 'I' for Inactive)
REMARK    1  A    between atoms: C_2  and  C_3
REMARK    2  A    between atoms: N_5  and  C_6
REMARK    3  A    between atoms: C_6  and  C_7
REMARK    4  A    between atoms: C_7  and  O_8
REMARK    5  A    between atoms: C_7  and  C_9
REMARK    6  A    between atoms: C_9  and  C_10
REMARK    7  A    between atoms: C_10  and  C_11
REMARK    8  A    between atoms: C_10  and  C_18
REMARK    9  A    between atoms: C_11  and  C_12
REMARK   10  A    between atoms: N_20  and  C_21
REMARK   11  A    between atoms: C_29  and  O_30
REMARK                            x       y       z     vdW  Elec       q    Type
REMARK                         _______ _______ _______ _____ _____    ______ ____
ROOT
ATOM      1  C   UNL     1       5.175   4.632  16.110  0.00  0.00    +0.000 C 
ENDROOT
BRANCH   1   2
ATOM      2  C   UNL     1       3.898   4.247  16.937  0.00  0.00    +0.000 C 
ATOM      3  O   UNL     1       3.622   3.079  17.227  0.00  0.00    +0.000 OA
ATOM      4  N   UNL     1       3.087   5.284  17.276  0.00  0.00    +0.000 N 
ATOM      5  H   UNL     1       3.098   6.082  16.665  0.00  0.00    +0.000 HD
BRANCH   4   6
ATOM      6  C   UNL     1       1.851   5.275  18.114  0.00  0.00    +0.000 C 
ATOM      7  C   UNL     1       1.793   4.308  19.269  0.00  0.00    +0.000 A 
ATOM      8  C   UNL     1       0.899   3.282  19.542  0.00  0.00    +0.000 A 
ATOM      9  C   UNL     1       1.071   2.532  20.714  0.00  0.00    +0.000 A 
ATOM     10  C   UNL     1       2.158   2.781  21.565  0.00  0.00    +0.000 A 
ATOM     11  C   UNL     1       2.950   3.910  21.366  0.00  0.00    +0.000 A 
ATOM     12  C   UNL     1       2.657   4.721  20.283  0.00  0.00    +0.000 A 
ATOM     13  C   UNL     1       3.011   6.164  20.079  0.00  0.00    +0.000 C 
ATOM     14  C   UNL     1       2.007   6.571  18.953  0.00  0.00    +0.000 C 
BRANCH  14  15
ATOM     15  O   UNL     1       2.514   7.637  18.134  0.00  0.00    +0.000 OA
ATOM     16  H   UNL     1       3.402   7.865  18.459  0.00  0.00    +0.000 HD
ENDBRANCH  14  15
ENDBRANCH   4   6
ENDBRANCH   1   2
BRANCH   1  17
ATOM     17  C   UNL     1       5.286   4.147  14.613  0.00  0.00    +0.000 C 
BRANCH  17  18
ATOM     18  C   UNL     1       6.725   4.052  14.050  0.00  0.00    +0.000 C 
BRANCH  18  19
ATOM     19  O   UNL     1       7.492   5.226  14.338  0.00  0.00    +0.000 OA
ATOM     20  H   UNL     1       6.892   5.911  14.688  0.00  0.00    +0.000 HD
ENDBRANCH  18  19
BRANCH  18  21
ATOM     21  C   UNL     1       6.844   3.850  12.522  0.00  0.00    +0.000 C 
BRANCH  21  24
ATOM     22  O   UNL     1       5.594   1.569  11.288  0.00  0.00    +0.000 OA
ATOM     23  C   UNL     1       4.948   2.603  11.442  0.00  0.00    +0.000 C 
ATOM     24  N   UNL     1       5.492   3.746  11.977  0.00  0.00    +0.000 N 
ATOM     25  H   UNL     1       4.821   4.420  12.341  0.00  0.00    +0.000 HD
BRANCH  23  26
ATOM     26  C   UNL     1       3.516   2.742  10.940  0.00  0.00    +0.000 C 
ATOM     27 CL   UNL     1       3.303   4.203   9.943  0.00  0.00    +0.000 Cl
ENDBRANCH  23  26
ENDBRANCH  21  24
ENDBRANCH  18  21
ENDBRANCH  17  18
ENDBRANCH   1  17
BRANCH   1  28
ATOM     28  C   UNL     1       5.399   6.153  16.310  0.00  0.00    +0.000 C 
BRANCH  28  29
ATOM     29  C   UNL     1       6.541   6.586  17.216  0.00  0.00    +0.000 A 
ATOM     30  C   UNL     1       7.095   7.874  17.214  0.00  0.00    +0.000 A 
ATOM     31  C   UNL     1       8.094   8.240  18.115  0.00  0.00    +0.000 A 
ATOM     32  C   UNL     1       8.534   7.328  19.064  0.00  0.00    +0.000 A 
ATOM     33  C   UNL     1       7.998   6.042  19.089  0.00  0.00    +0.000 A 
ATOM     34  C   UNL     1       7.017   5.670  18.163  0.00  0.00    +0.000 A 
ENDBRANCH  28  29
ENDBRANCH   1  28
TORSDOF 11
ENDMDL
MODEL 9
REMARK VINA RESULT:      -7.4      4.139      6.681
REMARK  Name = 
REMARK  11 active torsions:
REMARK  status: ('A' for Active; 'I' for Inactive)
REMARK    1  A    between atoms: C_2  and  C_3
REMARK    2  A    between atoms: N_5  and  C_6
REMARK    3  A    between atoms: C_6  and  C_7
REMARK    4  A    between atoms: C_7  and  O_8
REMARK    5  A    between atoms: C_7  and  C_9
REMARK    6  A    between atoms: C_9  and  C_10
REMARK    7  A    between atoms: C_10  and  C_11
REMARK    8  A    between atoms: C_10  and  C_18
REMARK    9  A    between atoms: C_11  and  C_12
REMARK   10  A    between atoms: N_20  and  C_21
REMARK   11  A    between atoms: C_29  and  O_30
REMARK                            x       y       z     vdW  Elec       q    Type
REMARK                         _______ _______ _______ _____ _____    ______ ____
ROOT
ATOM      1  C   UNL     1       6.513   6.371  16.680  0.00  0.00    +0.000 C 
ENDROOT
BRANCH   1   2
ATOM      2  C   UNL     1       4.961   6.478  16.480  0.00  0.00    +0.000 C 
ATOM      3  O   UNL     1       4.455   7.038  15.502  0.00  0.00    +0.000 OA
ATOM      4  N   UNL     1       4.205   5.952  17.479  0.00  0.00    +0.000 N 
ATOM      5  H   UNL     1       4.618   5.937  18.395  0.00  0.00    +0.000 HD
BRANCH   4   6
ATOM      6  C   UNL     1       2.720   5.821  17.565  0.00  0.00    +0.000 C 
ATOM      7  C   UNL     1       2.158   4.822  18.544  0.00  0.00    +0.000 A 
ATOM      8  C   UNL     1       1.339   3.721  18.338  0.00  0.00    +0.000 A 
ATOM      9  C   UNL     1       0.947   2.957  19.446  0.00  0.00    +0.000 A 
ATOM     10  C   UNL     1       1.419   3.270  20.730  0.00  0.00    +0.000 A 
ATOM     11  C   UNL     1       2.104   4.464  20.945  0.00  0.00    +0.000 A 
ATOM     12  C   UNL     1       2.342   5.277  19.849  0.00  0.00    +0.000 A 
ATOM     13  C   UNL     1       2.630   6.748  19.830  0.00  0.00    +0.000 C 
ATOM     14  C   UNL     1       2.316   7.103  18.341  0.00  0.00    +0.000 C 
BRANCH  14  15
ATOM     15  O   UNL     1       3.081   8.227  17.878  0.00  0.00    +0.000 OA
ATOM     16  H   UNL     1       3.877   7.884  17.436  0.00  0.00    +0.000 HD
ENDBRANCH  14  15
ENDBRANCH   4   6
ENDBRANCH   1   2
BRANCH   1  17
ATOM     17  C   UNL     1       7.129   6.765  18.079  0.00  0.00    +0.000 C 
BRANCH  17  18
ATOM     18  C   UNL     1       8.245   7.836  18.036  0.00  0.00    +0.000 C 
BRANCH  18  19
ATOM     19  O   UNL     1       8.945   7.930  19.282  0.00  0.00    +0.000 OA
ATOM     20  H   UNL     1       9.350   8.816  19.345  0.00  0.00    +0.000 HD
ENDBRANCH  18  19
BRANCH  18  21
ATOM     21  C   UNL     1       7.790   9.278  17.714  0.00  0.00    +0.000 C 
BRANCH  21  24
ATOM     22  O   UNL     1       7.982  12.121  17.302  0.00  0.00    +0.000 OA
ATOM     23  C   UNL     1       8.823  11.552  17.994  0.00  0.00    +0.000 C 
ATOM     24  N   UNL     1       8.824  10.192  18.194  0.00  0.00    +0.000 N 
ATOM     25  H   UNL     1       9.350   9.870  19.003  0.00  0.00    +0.000 HD
BRANCH  23  26
ATOM     26  C   UNL     1      10.011  12.294  18.594  0.00  0.00    +0.000 C 
ATOM     27 CL   UNL     1       9.644  12.922  20.221  0.00  0.00    +0.000 Cl
ENDBRANCH  23  26
ENDBRANCH  21  24
ENDBRANCH  18  21
ENDBRANCH  17  18
ENDBRANCH   1  17
BRANCH   1  28
ATOM     28  C   UNL     1       6.939   4.972  16.163  0.00  0.00    +0.000 C 
BRANCH  28  29
ATOM     29  C   UNL     1       6.902   4.731  14.662  0.00  0.00    +0.000 A 
ATOM     30  C   UNL     1       7.758   5.362  13.749  0.00  0.00    +0.000 A 
ATOM     31  C   UNL     1       7.729   5.053  12.390  0.00  0.00    +0.000 A 
ATOM     32  C   UNL     1       6.862   4.074  11.924  0.00  0.00    +0.000 A 
ATOM     33  C   UNL     1       6.002   3.432  12.811  0.00  0.00    +0.000 A 
ATOM     34  C   UNL     1       6.013   3.767  14.170  0.00  0.00    +0.000 A 
ENDBRANCH  28  29
ENDBRANCH   1  28
TORSDOF 11
ENDMDL
