MODEL 1
REMARK VINA RESULT:      -8.7      0.000      0.000
REMARK  Name = 
REMARK  6 active torsions:
REMARK  status: ('A' for Active; 'I' for Inactive)
REMARK    1  A    between atoms: C_1  and  C_2
REMARK    2  A    between atoms: C_2  and  C_3
REMARK    3  A    between atoms: C_5  and  C_6
REMARK    4  A    between atoms: C_11  and  C_12
REMARK    5  A    between atoms: C_12  and  C_13
REMARK    6  A    between atoms: C_16  and  C_17
REMARK                            x       y       z     vdW  Elec       q    Type
REMARK                         _______ _______ _______ _____ _____    ______ ____
ROOT
ATOM      1  C   UNL     1       2.728   5.514  19.817  0.00  0.00    +0.000 A 
ATOM      2  O   UNL     1       3.618   4.857  19.024  0.00  0.00    +0.000 OA
ATOM      3  C   UNL     1       4.076   5.742  18.089  0.00  0.00    +0.000 A 
ATOM      4  C   UNL     1       3.486   6.967  18.300  0.00  0.00    +0.000 A 
ATOM      5  C   UNL     1       2.591   6.831  19.403  0.00  0.00    +0.000 A 
ENDROOT
BRANCH   5   6
ATOM      6  C   UNL     1       1.736   7.836  20.029  0.00  0.00    +0.000 C 
ATOM      7  O   UNL     1       1.288   7.656  21.157  0.00  0.00    +0.000 OA
ATOM      8  N   UNL     1       1.498   8.930  19.228  0.00  0.00    +0.000 N 
ATOM      9  C   UNL     1       0.854  10.079  19.608  0.00  0.00    +0.000 A 
ATOM     10  N   UNL     1       0.441  10.975  18.727  0.00  0.00    +0.000 NA
ATOM     11  C   UNL     1      -0.183  11.968  19.424  0.00  0.00    +0.000 A 
ATOM     12  C   UNL     1      -0.180  11.850  20.782  0.00  0.00    +0.000 A 
ATOM     13  S   UNL     1       0.615  10.474  21.275  0.00  0.00    +0.000 S 
ATOM     14  C   UNL     1      -0.914  12.914  21.487  0.00  0.00    +0.000 C 
ATOM     15  C   UNL     1      -1.713  13.537  20.293  0.00  0.00    +0.000 C 
ATOM     16  C   UNL     1      -0.945  13.155  18.979  0.00  0.00    +0.000 C 
ATOM     17  H   UNL     1       1.673   8.877  18.237  0.00  0.00    +0.000 HD
ENDBRANCH   5   6
BRANCH   3  18
ATOM     18  C   UNL     1       5.075   5.229  17.154  0.00  0.00    +0.000 A 
ATOM     19  C   UNL     1       4.612   4.710  15.926  0.00  0.00    +0.000 A 
ATOM     20  C   UNL     1       5.482   4.136  15.001  0.00  0.00    +0.000 A 
ATOM     21  C   UNL     1       6.842   4.079  15.277  0.00  0.00    +0.000 A 
ATOM     22  C   UNL     1       7.330   4.599  16.478  0.00  0.00    +0.000 A 
ATOM     23  C   UNL     1       6.460   5.165  17.428  0.00  0.00    +0.000 A 
BRANCH  23  24
ATOM     24  C   UNL     1       7.065   5.731  18.674  0.00  0.00    +0.000 C 
ATOM     25  C   UNL     1       7.963   6.940  18.574  0.00  0.00    +0.000 C 
ATOM     26  O   UNL     1       6.831   5.231  19.772  0.00  0.00    +0.000 OA
ENDBRANCH  23  24
ENDBRANCH   3  18
BRANCH   1  28
ATOM     27  C   UNL     1       1.039   3.783  20.391  0.00  0.00    +0.000 C 
ATOM     28  C   UNL     1       2.131   4.704  20.917  0.00  0.00    +0.000 C 
ENDBRANCH   1  28
TORSDOF 4
ENDMDL
MODEL 2
REMARK VINA RESULT:      -8.6      2.319      3.736
REMARK  Name = 
REMARK  6 active torsions:
REMARK  status: ('A' for Active; 'I' for Inactive)
REMARK    1  A    between atoms: C_1  and  C_2
REMARK    2  A    between atoms: C_2  and  C_3
REMARK    3  A    between atoms: C_5  and  C_6
REMARK    4  A    between atoms: C_11  and  C_12
REMARK    5  A    between atoms: C_12  and  C_13
REMARK    6  A    between atoms: C_16  and  C_17
REMARK                            x       y       z     vdW  Elec       q    Type
REMARK                         _______ _______ _______ _____ _____    ______ ____
ROOT
ATOM      1  C   UNL     1       1.720   8.323  19.880  0.00  0.00    +0.000 A 
ATOM      2  O   UNL     1       2.453   7.206  19.620  0.00  0.00    +0.000 OA
ATOM      3  C   UNL     1       2.772   7.216  18.291  0.00  0.00    +0.000 A 
ATOM      4  C   UNL     1       2.253   8.350  17.711  0.00  0.00    +0.000 A 
ATOM      5  C   UNL     1       1.547   9.069  18.722  0.00  0.00    +0.000 A 
ENDROOT
BRANCH   5   6
ATOM      6  C   UNL     1       0.829  10.336  18.625  0.00  0.00    +0.000 C 
ATOM      7  O   UNL     1      -0.387  10.351  18.458  0.00  0.00    +0.000 OA
ATOM      8  N   UNL     1       1.647  11.439  18.720  0.00  0.00    +0.000 N 
ATOM      9  C   UNL     1       1.231  12.743  18.805  0.00  0.00    +0.000 A 
ATOM     10  N   UNL     1       2.065  13.756  18.638  0.00  0.00    +0.000 NA
ATOM     11  C   UNL     1       1.333  14.903  18.750  0.00  0.00    +0.000 A 
ATOM     12  C   UNL     1       0.012  14.752  19.054  0.00  0.00    +0.000 A 
ATOM     13  S   UNL     1      -0.398  13.149  19.221  0.00  0.00    +0.000 S 
ATOM     14  C   UNL     1      -0.746  16.012  19.107  0.00  0.00    +0.000 C 
ATOM     15  C   UNL     1       0.268  16.977  18.407  0.00  0.00    +0.000 C 
ATOM     16  C   UNL     1       1.688  16.322  18.537  0.00  0.00    +0.000 C 
ATOM     17  H   UNL     1       2.641  11.342  18.585  0.00  0.00    +0.000 HD
ENDBRANCH   5   6
BRANCH   3  18
ATOM     18  C   UNL     1       3.593   6.103  17.820  0.00  0.00    +0.000 A 
ATOM     19  C   UNL     1       4.931   6.381  17.472  0.00  0.00    +0.000 A 
ATOM     20  C   UNL     1       5.770   5.399  16.947  0.00  0.00    +0.000 A 
ATOM     21  C   UNL     1       5.292   4.107  16.771  0.00  0.00    +0.000 A 
ATOM     22  C   UNL     1       3.976   3.799  17.122  0.00  0.00    +0.000 A 
ATOM     23  C   UNL     1       3.114   4.786  17.635  0.00  0.00    +0.000 A 
BRANCH  23  24
ATOM     24  C   UNL     1       1.729   4.368  18.019  0.00  0.00    +0.000 C 
ATOM     25  C   UNL     1       1.440   4.004  19.455  0.00  0.00    +0.000 C 
ATOM     26  O   UNL     1       0.828   4.328  17.184  0.00  0.00    +0.000 OA
ENDBRANCH  23  24
ENDBRANCH   3  18
BRANCH   1  28
ATOM     27  C   UNL     1      -0.222   8.427  21.428  0.00  0.00    +0.000 C 
ATOM     28  C   UNL     1       1.293   8.493  21.298  0.00  0.00    +0.000 C 
ENDBRANCH   1  28
TORSDOF 4
ENDMDL
MODEL 3
REMARK VINA RESULT:      -8.6      1.242      1.316
REMARK  Name = 
REMARK  6 active torsions:
REMARK  status: ('A' for Active; 'I' for Inactive)
REMARK    1  A    between atoms: C_1  and  C_2
REMARK    2  A    between atoms: C_2  and  C_3
REMARK    3  A    between atoms: C_5  and  C_6
REMARK    4  A    between atoms: C_11  and  C_12
REMARK    5  A    between atoms: C_12  and  C_13
REMARK    6  A    between atoms: C_16  and  C_17
REMARK                            x       y       z     vdW  Elec       q    Type
REMARK                         _______ _______ _______ _____ _____    ______ ____
ROOT
ATOM      1  C   UNL     1       3.157   4.842  19.243  0.00  0.00    +0.000 A 
ATOM      2  O   UNL     1       4.025   4.410  18.286  0.00  0.00    +0.000 OA
ATOM      3  C   UNL     1       4.328   5.477  17.487  0.00  0.00    +0.000 A 
ATOM      4  C   UNL     1       3.664   6.590  17.948  0.00  0.00    +0.000 A 
ATOM      5  C   UNL     1       2.881   6.191  19.073  0.00  0.00    +0.000 A 
ENDROOT
BRANCH   5   6
ATOM      6  C   UNL     1       2.006   6.994  19.921  0.00  0.00    +0.000 C 
ATOM      7  O   UNL     1       1.561   6.534  20.968  0.00  0.00    +0.000 OA
ATOM      8  N   UNL     1       1.748   8.247  19.414  0.00  0.00    +0.000 N 
ATOM      9  C   UNL     1       1.082   9.256  20.062  0.00  0.00    +0.000 A 
ATOM     10  N   UNL     1       0.653  10.334  19.426  0.00  0.00    +0.000 NA
ATOM     11  C   UNL     1       0.009  11.113  20.343  0.00  0.00    +0.000 A 
ATOM     12  C   UNL     1       0.013  10.663  21.630  0.00  0.00    +0.000 A 
ATOM     13  S   UNL     1       0.834   9.223  21.773  0.00  0.00    +0.000 S 
ATOM     14  C   UNL     1      -0.742  11.507  22.571  0.00  0.00    +0.000 C 
ATOM     15  C   UNL     1      -1.551  12.391  21.563  0.00  0.00    +0.000 C 
ATOM     16  C   UNL     1      -0.775  12.359  20.200  0.00  0.00    +0.000 C 
ATOM     17  H   UNL     1       1.925   8.444  18.441  0.00  0.00    +0.000 HD
ENDBRANCH   5   6
BRANCH   3  18
ATOM     18  C   UNL     1       5.280   5.220  16.409  0.00  0.00    +0.000 A 
ATOM     19  C   UNL     1       4.858   4.387  15.352  0.00  0.00    +0.000 A 
ATOM     20  C   UNL     1       5.718   4.030  14.314  0.00  0.00    +0.000 A 
ATOM     21  C   UNL     1       7.021   4.510  14.303  0.00  0.00    +0.000 A 
ATOM     22  C   UNL     1       7.461   5.348  15.329  0.00  0.00    +0.000 A 
ATOM     23  C   UNL     1       6.609   5.702  16.391  0.00  0.00    +0.000 A 
BRANCH  23  24
ATOM     24  C   UNL     1       7.145   6.633  17.432  0.00  0.00    +0.000 C 
ATOM     25  C   UNL     1       7.688   6.064  18.721  0.00  0.00    +0.000 C 
ATOM     26  O   UNL     1       7.159   7.848  17.247  0.00  0.00    +0.000 OA
ENDBRANCH  23  24
ENDBRANCH   3  18
BRANCH   1  28
ATOM     27  C   UNL     1       1.361   3.238  19.860  0.00  0.00    +0.000 C 
ATOM     28  C   UNL     1       2.724   3.809  20.226  0.00  0.00    +0.000 C 
ENDBRANCH   1  28
TORSDOF 4
ENDMDL
MODEL 4
REMARK VINA RESULT:      -8.3      1.405      1.741
REMARK  Name = 
REMARK  6 active torsions:
REMARK  status: ('A' for Active; 'I' for Inactive)
REMARK    1  A    between atoms: C_1  and  C_2
REMARK    2  A    between atoms: C_2  and  C_3
REMARK    3  A    between atoms: C_5  and  C_6
REMARK    4  A    between atoms: C_11  and  C_12
REMARK    5  A    between atoms: C_12  and  C_13
REMARK    6  A    between atoms: C_16  and  C_17
REMARK                            x       y       z     vdW  Elec       q    Type
REMARK                         _______ _______ _______ _____ _____    ______ ____
ROOT
ATOM      1  C   UNL     1       2.674   6.511  19.130  0.00  0.00    +0.000 A 
ATOM      2  O   UNL     1       3.572   5.638  18.595  0.00  0.00    +0.000 OA
ATOM      3  C   UNL     1       4.159   6.250  17.523  0.00  0.00    +0.000 A 
ATOM      4  C   UNL     1       3.644   7.518  17.388  0.00  0.00    +0.000 A 
ATOM      5  C   UNL     1       2.662   7.697  18.408  0.00  0.00    +0.000 A 
ENDROOT
BRANCH   5   6
ATOM      6  C   UNL     1       1.837   8.864  18.703  0.00  0.00    +0.000 C 
ATOM      7  O   UNL     1       1.664   9.734  17.856  0.00  0.00    +0.000 OA
ATOM      8  N   UNL     1       1.327   8.867  19.982  0.00  0.00    +0.000 N 
ATOM      9  C   UNL     1       0.411   9.758  20.480  0.00  0.00    +0.000 A 
ATOM     10  N   UNL     1       0.162   9.855  21.776  0.00  0.00    +0.000 NA
ATOM     11  C   UNL     1      -0.761  10.848  21.935  0.00  0.00    +0.000 A 
ATOM     12  C   UNL     1      -1.231  11.427  20.794  0.00  0.00    +0.000 A 
ATOM     13  S   UNL     1      -0.541  10.756  19.437  0.00  0.00    +0.000 S 
ATOM     14  C   UNL     1      -2.180  12.530  21.019  0.00  0.00    +0.000 C 
ATOM     15  C   UNL     1      -1.941  12.796  22.543  0.00  0.00    +0.000 C 
ATOM     16  C   UNL     1      -1.323  11.485  23.146  0.00  0.00    +0.000 C 
ATOM     17  H   UNL     1       1.729   8.268  20.686  0.00  0.00    +0.000 HD
ENDBRANCH   5   6
BRANCH   3  18
ATOM     18  C   UNL     1       5.186   5.477  16.827  0.00  0.00    +0.000 A 
ATOM     19  C   UNL     1       4.832   4.884  15.597  0.00  0.00    +0.000 A 
ATOM     20  C   UNL     1       5.722   4.072  14.894  0.00  0.00    +0.000 A 
ATOM     21  C   UNL     1       6.994   3.845  15.401  0.00  0.00    +0.000 A 
ATOM     22  C   UNL     1       7.376   4.432  16.609  0.00  0.00    +0.000 A 
ATOM     23  C   UNL     1       6.482   5.239  17.336  0.00  0.00    +0.000 A 
BRANCH  23  24
ATOM     24  C   UNL     1       6.980   5.859  18.604  0.00  0.00    +0.000 C 
ATOM     25  C   UNL     1       7.898   7.055  18.529  0.00  0.00    +0.000 C 
ATOM     26  O   UNL     1       6.642   5.415  19.699  0.00  0.00    +0.000 OA
ENDBRANCH  23  24
ENDBRANCH   3  18
BRANCH   1  28
ATOM     27  C   UNL     1       1.562   4.553  20.182  0.00  0.00    +0.000 C 
ATOM     28  C   UNL     1       1.942   6.019  20.331  0.00  0.00    +0.000 C 
ENDBRANCH   1  28
TORSDOF 4
ENDMDL
MODEL 5
REMARK VINA RESULT:      -8.2      2.841      3.641
REMARK  Name = 
REMARK  6 active torsions:
REMARK  status: ('A' for Active; 'I' for Inactive)
REMARK    1  A    between atoms: C_1  and  C_2
REMARK    2  A    between atoms: C_2  and  C_3
REMARK    3  A    between atoms: C_5  and  C_6
REMARK    4  A    between atoms: C_11  and  C_12
REMARK    5  A    between atoms: C_12  and  C_13
REMARK    6  A    between atoms: C_16  and  C_17
REMARK                            x       y       z     vdW  Elec       q    Type
REMARK                         _______ _______ _______ _____ _____    ______ ____
ROOT
ATOM      1  C   UNL     1       1.747   8.266  19.830  0.00  0.00    +0.000 A 
ATOM      2  O   UNL     1       2.199   7.001  19.604  0.00  0.00    +0.000 OA
ATOM      3  C   UNL     1       2.457   6.884  18.267  0.00  0.00    +0.000 A 
ATOM      4  C   UNL     1       2.183   8.081  17.647  0.00  0.00    +0.000 A 
ATOM      5  C   UNL     1       1.699   8.982  18.642  0.00  0.00    +0.000 A 
ENDROOT
BRANCH   5   6
ATOM      6  C   UNL     1       1.282  10.374  18.503  0.00  0.00    +0.000 C 
ATOM      7  O   UNL     1       0.091  10.664  18.440  0.00  0.00    +0.000 OA
ATOM      8  N   UNL     1       2.334  11.259  18.438  0.00  0.00    +0.000 N 
ATOM      9  C   UNL     1       2.237  12.627  18.451  0.00  0.00    +0.000 A 
ATOM     10  N   UNL     1       3.257  13.405  18.131  0.00  0.00    +0.000 NA
ATOM     11  C   UNL     1       2.821  14.696  18.212  0.00  0.00    +0.000 A 
ATOM     12  C   UNL     1       1.539  14.876  18.638  0.00  0.00    +0.000 A 
ATOM     13  S   UNL     1       0.793  13.426  18.970  0.00  0.00    +0.000 S 
ATOM     14  C   UNL     1       1.096  16.280  18.653  0.00  0.00    +0.000 C 
ATOM     15  C   UNL     1       2.226  16.937  17.792  0.00  0.00    +0.000 C 
ATOM     16  C   UNL     1       3.466  15.977  17.853  0.00  0.00    +0.000 C 
ATOM     17  H   UNL     1       3.261  10.925  18.226  0.00  0.00    +0.000 HD
ENDBRANCH   5   6
BRANCH   3  18
ATOM     18  C   UNL     1       2.986   5.594  17.827  0.00  0.00    +0.000 A 
ATOM     19  C   UNL     1       2.246   4.440  18.158  0.00  0.00    +0.000 A 
ATOM     20  C   UNL     1       2.705   3.162  17.842  0.00  0.00    +0.000 A 
ATOM     21  C   UNL     1       3.913   3.010  17.173  0.00  0.00    +0.000 A 
ATOM     22  C   UNL     1       4.659   4.136  16.820  0.00  0.00    +0.000 A 
ATOM     23  C   UNL     1       4.215   5.430  17.149  0.00  0.00    +0.000 A 
BRANCH  23  24
ATOM     24  C   UNL     1       5.054   6.587  16.705  0.00  0.00    +0.000 C 
ATOM     25  C   UNL     1       6.124   7.119  17.627  0.00  0.00    +0.000 C 
ATOM     26  O   UNL     1       4.890   7.098  15.599  0.00  0.00    +0.000 OA
ENDBRANCH  23  24
ENDBRANCH   3  18
BRANCH   1  28
ATOM     27  C   UNL     1      -0.077   8.626  21.479  0.00  0.00    +0.000 C 
ATOM     28  C   UNL     1       1.427   8.587  21.249  0.00  0.00    +0.000 C 
ENDBRANCH   1  28
TORSDOF 4
ENDMDL
MODEL 6
REMARK VINA RESULT:      -7.9      1.753      2.649
REMARK  Name = 
REMARK  6 active torsions:
REMARK  status: ('A' for Active; 'I' for Inactive)
REMARK    1  A    between atoms: C_1  and  C_2
REMARK    2  A    between atoms: C_2  and  C_3
REMARK    3  A    between atoms: C_5  and  C_6
REMARK    4  A    between atoms: C_11  and  C_12
REMARK    5  A    between atoms: C_12  and  C_13
REMARK    6  A    between atoms: C_16  and  C_17
REMARK                            x       y       z     vdW  Elec       q    Type
REMARK                         _______ _______ _______ _____ _____    ______ ____
ROOT
ATOM      1  C   UNL     1       2.329   6.875  19.403  0.00  0.00    +0.000 A 
ATOM      2  O   UNL     1       3.252   5.989  18.938  0.00  0.00    +0.000 OA
ATOM      3  C   UNL     1       3.764   6.494  17.775  0.00  0.00    +0.000 A 
ATOM      4  C   UNL     1       3.174   7.709  17.512  0.00  0.00    +0.000 A 
ATOM      5  C   UNL     1       2.223   7.961  18.546  0.00  0.00    +0.000 A 
ENDROOT
BRANCH   5   6
ATOM      6  C   UNL     1       1.346   9.112  18.734  0.00  0.00    +0.000 C 
ATOM      7  O   UNL     1       0.873   9.700  17.767  0.00  0.00    +0.000 OA
ATOM      8  N   UNL     1       1.149   9.441  20.056  0.00  0.00    +0.000 N 
ATOM      9  C   UNL     1       0.266  10.379  20.528  0.00  0.00    +0.000 A 
ATOM     10  N   UNL     1       0.312  10.819  21.775  0.00  0.00    +0.000 NA
ATOM     11  C   UNL     1      -0.668  11.759  21.907  0.00  0.00    +0.000 A 
ATOM     12  C   UNL     1      -1.459  11.967  20.816  0.00  0.00    +0.000 A 
ATOM     13  S   UNL     1      -1.020  10.987  19.546  0.00  0.00    +0.000 S 
ATOM     14  C   UNL     1      -2.463  13.030  20.988  0.00  0.00    +0.000 C 
ATOM     15  C   UNL     1      -1.915  13.724  22.279  0.00  0.00    +0.000 C 
ATOM     16  C   UNL     1      -1.013  12.673  23.017  0.00  0.00    +0.000 C 
ATOM     17  H   UNL     1       1.775   9.088  20.763  0.00  0.00    +0.000 HD
ENDBRANCH   5   6
BRANCH   3  18
ATOM     18  C   UNL     1       4.805   5.695  17.132  0.00  0.00    +0.000 A 
ATOM     19  C   UNL     1       5.976   6.362  16.718  0.00  0.00    +0.000 A 
ATOM     20  C   UNL     1       6.994   5.698  16.035  0.00  0.00    +0.000 A 
ATOM     21  C   UNL     1       6.868   4.342  15.761  0.00  0.00    +0.000 A 
ATOM     22  C   UNL     1       5.726   3.653  16.173  0.00  0.00    +0.000 A 
ATOM     23  C   UNL     1       4.684   4.315  16.848  0.00  0.00    +0.000 A 
BRANCH  23  24
ATOM     24  C   UNL     1       3.510   3.499  17.287  0.00  0.00    +0.000 C 
ATOM     25  C   UNL     1       3.660   2.563  18.461  0.00  0.00    +0.000 C 
ATOM     26  O   UNL     1       2.428   3.589  16.711  0.00  0.00    +0.000 OA
ENDBRANCH  23  24
ENDBRANCH   3  18
BRANCH   1  28
ATOM     27  C   UNL     1       1.541   4.986  20.814  0.00  0.00    +0.000 C 
ATOM     28  C   UNL     1       1.670   6.497  20.686  0.00  0.00    +0.000 C 
ENDBRANCH   1  28
TORSDOF 4
ENDMDL
MODEL 7
REMARK VINA RESULT:      -7.8      2.312      3.743
REMARK  Name = 
REMARK  6 active torsions:
REMARK  status: ('A' for Active; 'I' for Inactive)
REMARK    1  A    between atoms: C_1  and  C_2
REMARK    2  A    between atoms: C_2  and  C_3
REMARK    3  A    between atoms: C_5  and  C_6
REMARK    4  A    between atoms: C_11  and  C_12
REMARK    5  A    between atoms: C_12  and  C_13
REMARK    6  A    between atoms: C_16  and  C_17
REMARK                            x       y       z     vdW  Elec       q    Type
REMARK                         _______ _______ _______ _____ _____    ______ ____
ROOT
ATOM      1  C   UNL     1       1.614   8.459  20.062  0.00  0.00    +0.000 A 
ATOM      2  O   UNL     1       2.292   7.294  19.870  0.00  0.00    +0.000 OA
ATOM      3  C   UNL     1       2.584   7.195  18.539  0.00  0.00    +0.000 A 
ATOM      4  C   UNL     1       2.102   8.307  17.888  0.00  0.00    +0.000 A 
ATOM      5  C   UNL     1       1.449   9.127  18.856  0.00  0.00    +0.000 A 
ENDROOT
BRANCH   5   6
ATOM      6  C   UNL     1       0.785  10.415  18.681  0.00  0.00    +0.000 C 
ATOM      7  O   UNL     1      -0.413  10.468  18.423  0.00  0.00    +0.000 OA
ATOM      8  N   UNL     1       1.632  11.492  18.815  0.00  0.00    +0.000 N 
ATOM      9  C   UNL     1       1.257  12.811  18.843  0.00  0.00    +0.000 A 
ATOM     10  N   UNL     1       2.136  13.792  18.719  0.00  0.00    +0.000 NA
ATOM     11  C   UNL     1       1.439  14.964  18.754  0.00  0.00    +0.000 A 
ATOM     12  C   UNL     1       0.095  14.865  18.961  0.00  0.00    +0.000 A 
ATOM     13  S   UNL     1      -0.383  13.280  19.128  0.00  0.00    +0.000 S 
ATOM     14  C   UNL     1      -0.621  16.151  18.932  0.00  0.00    +0.000 C 
ATOM     15  C   UNL     1       0.476  17.065  18.291  0.00  0.00    +0.000 C 
ATOM     16  C   UNL     1       1.858  16.366  18.540  0.00  0.00    +0.000 C 
ATOM     17  H   UNL     1       2.630  11.359  18.756  0.00  0.00    +0.000 HD
ENDBRANCH   5   6
BRANCH   3  18
ATOM     18  C   UNL     1       3.345   6.015  18.134  0.00  0.00    +0.000 A 
ATOM     19  C   UNL     1       4.265   6.165  17.075  0.00  0.00    +0.000 A 
ATOM     20  C   UNL     1       4.986   5.082  16.574  0.00  0.00    +0.000 A 
ATOM     21  C   UNL     1       4.813   3.823  17.133  0.00  0.00    +0.000 A 
ATOM     22  C   UNL     1       3.921   3.648  18.193  0.00  0.00    +0.000 A 
ATOM     23  C   UNL     1       3.174   4.730  18.696  0.00  0.00    +0.000 A 
BRANCH  23  24
ATOM     24  C   UNL     1       2.266   4.468  19.855  0.00  0.00    +0.000 C 
ATOM     25  C   UNL     1       0.881   3.924  19.599  0.00  0.00    +0.000 C 
ATOM     26  O   UNL     1       2.637   4.680  21.008  0.00  0.00    +0.000 OA
ENDBRANCH  23  24
ENDBRANCH   3  18
BRANCH   1  28
ATOM     27  C   UNL     1      -0.267   8.523  21.686  0.00  0.00    +0.000 C 
ATOM     28  C   UNL     1       1.223   8.748  21.471  0.00  0.00    +0.000 C 
ENDBRANCH   1  28
TORSDOF 4
ENDMDL
MODEL 8
REMARK VINA RESULT:      -7.8      2.056      3.512
REMARK  Name = 
REMARK  6 active torsions:
REMARK  status: ('A' for Active; 'I' for Inactive)
REMARK    1  A    between atoms: C_1  and  C_2
REMARK    2  A    between atoms: C_2  and  C_3
REMARK    3  A    between atoms: C_5  and  C_6
REMARK    4  A    between atoms: C_11  and  C_12
REMARK    5  A    between atoms: C_12  and  C_13
REMARK    6  A    between atoms: C_16  and  C_17
REMARK                            x       y       z     vdW  Elec       q    Type
REMARK                         _______ _______ _______ _____ _____    ______ ____
ROOT
ATOM      1  C   UNL     1       1.647   8.173  20.059  0.00  0.00    +0.000 A 
ATOM      2  O   UNL     1       2.423   7.122  19.673  0.00  0.00    +0.000 OA
ATOM      3  C   UNL     1       2.747   7.305  18.358  0.00  0.00    +0.000 A 
ATOM      4  C   UNL     1       2.187   8.481  17.914  0.00  0.00    +0.000 A 
ATOM      5  C   UNL     1       1.450   9.046  18.998  0.00  0.00    +0.000 A 
ENDROOT
BRANCH   5   6
ATOM      6  C   UNL     1       0.685  10.288  19.049  0.00  0.00    +0.000 C 
ATOM      7  O   UNL     1      -0.215  10.498  18.242  0.00  0.00    +0.000 OA
ATOM      8  N   UNL     1       1.096  11.145  20.044  0.00  0.00    +0.000 N 
ATOM      9  C   UNL     1       0.470  12.309  20.412  0.00  0.00    +0.000 A 
ATOM     10  N   UNL     1       1.054  13.201  21.195  0.00  0.00    +0.000 NA
ATOM     11  C   UNL     1       0.185  14.244  21.334  0.00  0.00    +0.000 A 
ATOM     12  C   UNL     1      -1.029  14.107  20.730  0.00  0.00    +0.000 A 
ATOM     13  S   UNL     1      -1.160  12.647  19.943  0.00  0.00    +0.000 S 
ATOM     14  C   UNL     1      -1.909  15.280  20.860  0.00  0.00    +0.000 C 
ATOM     15  C   UNL     1      -0.875  16.349  21.349  0.00  0.00    +0.000 C 
ATOM     16  C   UNL     1       0.330  15.567  21.980  0.00  0.00    +0.000 C 
ATOM     17  H   UNL     1       1.997  11.020  20.478  0.00  0.00    +0.000 HD
ENDBRANCH   5   6
BRANCH   3  18
ATOM     18  C   UNL     1       3.611   6.288  17.763  0.00  0.00    +0.000 A 
ATOM     19  C   UNL     1       4.887   6.695  17.321  0.00  0.00    +0.000 A 
ATOM     20  C   UNL     1       5.754   5.812  16.679  0.00  0.00    +0.000 A 
ATOM     21  C   UNL     1       5.368   4.493  16.476  0.00  0.00    +0.000 A 
ATOM     22  C   UNL     1       4.117   4.059  16.917  0.00  0.00    +0.000 A 
ATOM     23  C   UNL     1       3.225   4.945  17.550  0.00  0.00    +0.000 A 
BRANCH  23  24
ATOM     24  C   UNL     1       1.918   4.394  18.025  0.00  0.00    +0.000 C 
ATOM     25  C   UNL     1       1.807   3.867  19.435  0.00  0.00    +0.000 C 
ATOM     26  O   UNL     1       0.935   4.375  17.286  0.00  0.00    +0.000 OA
ENDBRANCH  23  24
ENDBRANCH   3  18
BRANCH   1  28
ATOM     27  C   UNL     1      -0.304   8.298  21.595  0.00  0.00    +0.000 C 
ATOM     28  C   UNL     1       1.207   8.154  21.484  0.00  0.00    +0.000 C 
ENDBRANCH   1  28
TORSDOF 4
ENDMDL
MODEL 9
REMARK VINA RESULT:      -7.7      1.319      2.234
REMARK  Name = 
REMARK  6 active torsions:
REMARK  status: ('A' for Active; 'I' for Inactive)
REMARK    1  A    between atoms: C_1  and  C_2
REMARK    2  A    between atoms: C_2  and  C_3
REMARK    3  A    between atoms: C_5  and  C_6
REMARK    4  A    between atoms: C_11  and  C_12
REMARK    5  A    between atoms: C_12  and  C_13
REMARK    6  A    between atoms: C_16  and  C_17
REMARK                            x       y       z     vdW  Elec       q    Type
REMARK                         _______ _______ _______ _____ _____    ______ ____
ROOT
ATOM      1  C   UNL     1       2.401   5.726  20.098  0.00  0.00    +0.000 A 
ATOM      2  O   UNL     1       3.227   5.036  19.264  0.00  0.00    +0.000 OA
ATOM      3  C   UNL     1       3.699   5.911  18.328  0.00  0.00    +0.000 A 
ATOM      4  C   UNL     1       3.183   7.162  18.577  0.00  0.00    +0.000 A 
ATOM      5  C   UNL     1       2.320   7.055  19.709  0.00  0.00    +0.000 A 
ENDROOT
BRANCH   5   6
ATOM      6  C   UNL     1       1.542   8.093  20.379  0.00  0.00    +0.000 C 
ATOM      7  O   UNL     1       1.614   8.238  21.595  0.00  0.00    +0.000 OA
ATOM      8  N   UNL     1       0.751   8.825  19.522  0.00  0.00    +0.000 N 
ATOM      9  C   UNL     1       0.031   9.945  19.852  0.00  0.00    +0.000 A 
ATOM     10  N   UNL     1      -0.897  10.443  19.051  0.00  0.00    +0.000 NA
ATOM     11  C   UNL     1      -1.440  11.522  19.685  0.00  0.00    +0.000 A 
ATOM     12  C   UNL     1      -0.893  11.856  20.888  0.00  0.00    +0.000 A 
ATOM     13  S   UNL     1       0.349  10.830  21.304  0.00  0.00    +0.000 S 
ATOM     14  C   UNL     1      -1.550  12.990  21.559  0.00  0.00    +0.000 C 
ATOM     15  C   UNL     1      -2.869  13.083  20.723  0.00  0.00    +0.000 C 
ATOM     16  C   UNL     1      -2.586  12.391  19.343  0.00  0.00    +0.000 C 
ATOM     17  H   UNL     1       0.545   8.473  18.601  0.00  0.00    +0.000 HD
ENDBRANCH   5   6
BRANCH   3  18
ATOM     18  C   UNL     1       4.637   5.362  17.351  0.00  0.00    +0.000 A 
ATOM     19  C   UNL     1       5.730   6.169  16.971  0.00  0.00    +0.000 A 
ATOM     20  C   UNL     1       6.638   5.758  15.996  0.00  0.00    +0.000 A 
ATOM     21  C   UNL     1       6.480   4.521  15.386  0.00  0.00    +0.000 A 
ATOM     22  C   UNL     1       5.417   3.695  15.753  0.00  0.00    +0.000 A 
ATOM     23  C   UNL     1       4.483   4.105  16.723  0.00  0.00    +0.000 A 
BRANCH  23  24
ATOM     24  C   UNL     1       3.392   3.148  17.086  0.00  0.00    +0.000 C 
ATOM     25  C   UNL     1       3.710   1.969  17.975  0.00  0.00    +0.000 C 
ATOM     26  O   UNL     1       2.244   3.315  16.679  0.00  0.00    +0.000 OA
ENDBRANCH  23  24
ENDBRANCH   3  18
BRANCH   1  28
ATOM     27  C   UNL     1       1.170   3.647  20.682  0.00  0.00    +0.000 C 
ATOM     28  C   UNL     1       1.799   4.930  21.206  0.00  0.00    +0.000 C 
ENDBRANCH   1  28
TORSDOF 4
ENDMDL
