MODEL 1
REMARK VINA RESULT:      -7.9      0.000      0.000
REMARK  Name = 
REMARK  5 active torsions:
REMARK  status: ('A' for Active; 'I' for Inactive)
REMARK    1  A    between atoms: C_1  and  C_2
REMARK    2  A    between atoms: C_12  and  C_13
REMARK    3  A    between atoms: N_15  and  C_16
REMARK    4  A    between atoms: C_19  and  O_20
REMARK    5  A    between atoms: O_20  and  C_21
REMARK                            x       y       z     vdW  Elec       q    Type
REMARK                         _______ _______ _______ _____ _____    ______ ____
ROOT
ATOM      1  C   UNL     1       2.330   8.238  18.216  0.00  0.00    +0.000 C 
ATOM      2  O   UNL     1       2.427   8.722  17.085  0.00  0.00    +0.000 OA
ATOM      3  N   UNL     1       2.919   7.037  18.622  0.00  0.00    +0.000 N 
ATOM      4  H   UNL     1       2.630   6.630  19.498  0.00  0.00    +0.000 HD
ENDROOT
BRANCH   1  16
ATOM      5  C   UNL     1       1.465   7.388  21.143  0.00  0.00    +0.000 C 
ATOM      6  C   UNL     1       1.099   8.654  20.434  0.00  0.00    +0.000 A 
ATOM      7  N   UNL     1       0.323   9.479  21.187  0.00  0.00    +0.000 NA
ATOM      8  C   UNL     1      -0.151  10.613  20.641  0.00  0.00    +0.000 A 
ATOM      9  N   UNL     1      -0.984  11.389  21.381  0.00  0.00    +0.000 N 
ATOM     10  C   UNL     1      -1.582  12.600  20.873  0.00  0.00    +0.000 C 
ATOM     11  C   UNL     1      -1.683  13.469  22.121  0.00  0.00    +0.000 C 
ATOM     12  C   UNL     1      -1.941  12.463  23.237  0.00  0.00    +0.000 C 
ATOM     13  C   UNL     1      -1.194  11.198  22.801  0.00  0.00    +0.000 C 
ATOM     14  N   UNL     1       0.140  10.983  19.392  0.00  0.00    +0.000 NA
ATOM     15  C   UNL     1       0.951  10.170  18.678  0.00  0.00    +0.000 A 
ATOM     16  C   UNL     1       1.455   8.964  19.140  0.00  0.00    +0.000 A 
ENDBRANCH   1  16
BRANCH   3  17
ATOM     17  C   UNL     1       3.748   6.236  17.802  0.00  0.00    +0.000 A 
ATOM     18  C   UNL     1       3.466   4.885  17.567  0.00  0.00    +0.000 A 
ATOM     19  C   UNL     1       4.285   4.105  16.755  0.00  0.00    +0.000 A 
ATOM     20  C   UNL     1       5.400   4.655  16.142  0.00  0.00    +0.000 A 
ATOM     21  C   UNL     1       5.720   5.991  16.404  0.00  0.00    +0.000 A 
ATOM     22  C   UNL     1       4.884   6.785  17.202  0.00  0.00    +0.000 A 
BRANCH  20  23
ATOM     23  O   UNL     1       6.113   3.803  15.364  0.00  0.00    +0.000 OA
BRANCH  23  24
ATOM     24  C   UNL     1       6.128   4.006  13.958  0.00  0.00    +0.000 C 
ATOM     25  F   UNL     1       6.458   2.916  13.236  0.00  0.00    +0.000 F 
ATOM     26  F   UNL     1       4.905   4.421  13.567  0.00  0.00    +0.000 F 
ATOM     27  F   UNL     1       7.020   4.977  13.661  0.00  0.00    +0.000 F 
ENDBRANCH  23  24
ENDBRANCH  20  23
ENDBRANCH   3  17
TORSDOF 4
ENDMDL
MODEL 2
REMARK VINA RESULT:      -7.8      5.711     10.143
REMARK  Name = 
REMARK  5 active torsions:
REMARK  status: ('A' for Active; 'I' for Inactive)
REMARK    1  A    between atoms: C_1  and  C_2
REMARK    2  A    between atoms: C_12  and  C_13
REMARK    3  A    between atoms: N_15  and  C_16
REMARK    4  A    between atoms: C_19  and  O_20
REMARK    5  A    between atoms: O_20  and  C_21
REMARK                            x       y       z     vdW  Elec       q    Type
REMARK                         _______ _______ _______ _____ _____    ______ ____
ROOT
ATOM      1  C   UNL     1       1.284   8.808  19.483  0.00  0.00    +0.000 C 
ATOM      2  O   UNL     1       0.563   9.415  18.688  0.00  0.00    +0.000 OA
ATOM      3  N   UNL     1       1.326   9.043  20.860  0.00  0.00    +0.000 N 
ATOM      4  H   UNL     1       2.076   8.635  21.397  0.00  0.00    +0.000 HD
ENDROOT
BRANCH   1  16
ATOM      5  C   UNL     1       1.881   5.847  20.441  0.00  0.00    +0.000 C 
ATOM      6  C   UNL     1       2.455   6.532  19.240  0.00  0.00    +0.000 A 
ATOM      7  N   UNL     1       3.302   5.739  18.531  0.00  0.00    +0.000 NA
ATOM      8  C   UNL     1       3.956   6.257  17.476  0.00  0.00    +0.000 A 
ATOM      9  N   UNL     1       4.854   5.474  16.823  0.00  0.00    +0.000 N 
ATOM     10  C   UNL     1       5.640   5.947  15.710  0.00  0.00    +0.000 C 
ATOM     11  C   UNL     1       5.803   4.692  14.861  0.00  0.00    +0.000 C 
ATOM     12  C   UNL     1       5.863   3.570  15.891  0.00  0.00    +0.000 C 
ATOM     13  C   UNL     1       4.967   4.047  17.040  0.00  0.00    +0.000 C 
ATOM     14  N   UNL     1       3.781   7.516  17.071  0.00  0.00    +0.000 NA
ATOM     15  C   UNL     1       2.897   8.271  17.763  0.00  0.00    +0.000 A 
ATOM     16  C   UNL     1       2.208   7.840  18.885  0.00  0.00    +0.000 A 
ENDBRANCH   1  16
BRANCH   3  17
ATOM     17  C   UNL     1       0.510   9.980  21.536  0.00  0.00    +0.000 A 
ATOM     18  C   UNL     1       0.497  11.335  21.183  0.00  0.00    +0.000 A 
ATOM     19  C   UNL     1      -0.312  12.249  21.851  0.00  0.00    +0.000 A 
ATOM     20  C   UNL     1      -1.144  11.835  22.879  0.00  0.00    +0.000 A 
ATOM     21  C   UNL     1      -1.108  10.495  23.274  0.00  0.00    +0.000 A 
ATOM     22  C   UNL     1      -0.312   9.567  22.587  0.00  0.00    +0.000 A 
BRANCH  20  23
ATOM     23  O   UNL     1      -1.896  12.813  23.445  0.00  0.00    +0.000 OA
BRANCH  23  24
ATOM     24  C   UNL     1      -3.310  12.741  23.335  0.00  0.00    +0.000 C 
ATOM     25  F   UNL     1      -3.760  12.254  22.160  0.00  0.00    +0.000 F 
ATOM     26  F   UNL     1      -3.784  11.960  24.329  0.00  0.00    +0.000 F 
ATOM     27  F   UNL     1      -3.829  13.980  23.487  0.00  0.00    +0.000 F 
ENDBRANCH  23  24
ENDBRANCH  20  23
ENDBRANCH   3  17
TORSDOF 4
ENDMDL
MODEL 3
REMARK VINA RESULT:      -7.8      1.355      2.282
REMARK  Name = 
REMARK  5 active torsions:
REMARK  status: ('A' for Active; 'I' for Inactive)
REMARK    1  A    between atoms: C_1  and  C_2
REMARK    2  A    between atoms: C_12  and  C_13
REMARK    3  A    between atoms: N_15  and  C_16
REMARK    4  A    between atoms: C_19  and  O_20
REMARK    5  A    between atoms: O_20  and  C_21
REMARK                            x       y       z     vdW  Elec       q    Type
REMARK                         _______ _______ _______ _____ _____    ______ ____
ROOT
ATOM      1  C   UNL     1       1.624   9.019  18.445  0.00  0.00    +0.000 C 
ATOM      2  O   UNL     1       2.052   9.446  17.371  0.00  0.00    +0.000 OA
ATOM      3  N   UNL     1       1.916   7.759  18.975  0.00  0.00    +0.000 N 
ATOM      4  H   UNL     1       1.374   7.427  19.758  0.00  0.00    +0.000 HD
ENDROOT
BRANCH   1  16
ATOM      5  C   UNL     1      -1.242   9.949  17.465  0.00  0.00    +0.000 C 
ATOM      6  C   UNL     1      -0.593  10.278  18.772  0.00  0.00    +0.000 A 
ATOM      7  N   UNL     1      -1.376  11.051  19.574  0.00  0.00    +0.000 NA
ATOM      8  C   UNL     1      -0.881  11.493  20.743  0.00  0.00    +0.000 A 
ATOM      9  N   UNL     1      -1.647  12.324  21.497  0.00  0.00    +0.000 N 
ATOM     10  C   UNL     1      -1.193  12.889  22.744  0.00  0.00    +0.000 C 
ATOM     11  C   UNL     1      -2.482  12.995  23.550  0.00  0.00    +0.000 C 
ATOM     12  C   UNL     1      -3.540  13.290  22.494  0.00  0.00    +0.000 C 
ATOM     13  C   UNL     1      -3.052  12.560  21.238  0.00  0.00    +0.000 C 
ATOM     14  N   UNL     1       0.343  11.175  21.171  0.00  0.00    +0.000 NA
ATOM     15  C   UNL     1       1.084  10.368  20.379  0.00  0.00    +0.000 A 
ATOM     16  C   UNL     1       0.678   9.895  19.141  0.00  0.00    +0.000 A 
ENDBRANCH   1  16
BRANCH   3  17
ATOM     17  C   UNL     1       2.782   6.819  18.369  0.00  0.00    +0.000 A 
ATOM     18  C   UNL     1       4.087   7.156  17.992  0.00  0.00    +0.000 A 
ATOM     19  C   UNL     1       4.934   6.225  17.401  0.00  0.00    +0.000 A 
ATOM     20  C   UNL     1       4.509   4.924  17.182  0.00  0.00    +0.000 A 
ATOM     21  C   UNL     1       3.193   4.584  17.510  0.00  0.00    +0.000 A 
ATOM     22  C   UNL     1       2.345   5.513  18.128  0.00  0.00    +0.000 A 
BRANCH  20  23
ATOM     23  O   UNL     1       5.426   4.102  16.612  0.00  0.00    +0.000 OA
BRANCH  23  24
ATOM     24  C   UNL     1       5.951   4.439  15.336  0.00  0.00    +0.000 C 
ATOM     25  F   UNL     1       5.143   5.211  14.581  0.00  0.00    +0.000 F 
ATOM     26  F   UNL     1       7.123   5.087  15.505  0.00  0.00    +0.000 F 
ATOM     27  F   UNL     1       6.191   3.303  14.643  0.00  0.00    +0.000 F 
ENDBRANCH  23  24
ENDBRANCH  20  23
ENDBRANCH   3  17
TORSDOF 4
ENDMDL
MODEL 4
REMARK VINA RESULT:      -7.8      0.158      1.218
REMARK  Name = 
REMARK  5 active torsions:
REMARK  status: ('A' for Active; 'I' for Inactive)
REMARK    1  A    between atoms: C_1  and  C_2
REMARK    2  A    between atoms: C_12  and  C_13
REMARK    3  A    between atoms: N_15  and  C_16
REMARK    4  A    between atoms: C_19  and  O_20
REMARK    5  A    between atoms: O_20  and  C_21
REMARK                            x       y       z     vdW  Elec       q    Type
REMARK                         _______ _______ _______ _____ _____    ______ ____
ROOT
ATOM      1  C   UNL     1       2.332   8.303  18.235  0.00  0.00    +0.000 C 
ATOM      2  O   UNL     1       2.418   8.755  17.091  0.00  0.00    +0.000 OA
ATOM      3  N   UNL     1       2.923   7.113  18.669  0.00  0.00    +0.000 N 
ATOM      4  H   UNL     1       2.644   6.731  19.559  0.00  0.00    +0.000 HD
ENDROOT
BRANCH   1  16
ATOM      5  C   UNL     1       1.422   7.492  21.161  0.00  0.00    +0.000 C 
ATOM      6  C   UNL     1       1.094   8.762  20.441  0.00  0.00    +0.000 A 
ATOM      7  N   UNL     1       0.332   9.611  21.184  0.00  0.00    +0.000 NA
ATOM      8  C   UNL     1      -0.109  10.752  20.627  0.00  0.00    +0.000 A 
ATOM      9  N   UNL     1      -0.929  11.553  21.356  0.00  0.00    +0.000 N 
ATOM     10  C   UNL     1      -1.492  12.776  20.837  0.00  0.00    +0.000 C 
ATOM     11  C   UNL     1      -1.582  13.654  22.079  0.00  0.00    +0.000 C 
ATOM     12  C   UNL     1      -1.873  12.661  23.198  0.00  0.00    +0.000 C 
ATOM     13  C   UNL     1      -1.154  11.375  22.775  0.00  0.00    +0.000 C 
ATOM     14  N   UNL     1       0.201  11.109  19.378  0.00  0.00    +0.000 NA
ATOM     15  C   UNL     1       0.998  10.272  18.676  0.00  0.00    +0.000 A 
ATOM     16  C   UNL     1       1.468   9.056  19.148  0.00  0.00    +0.000 A 
ENDBRANCH   1  16
BRANCH   3  17
ATOM     17  C   UNL     1       3.742   6.289  17.862  0.00  0.00    +0.000 A 
ATOM     18  C   UNL     1       4.943   6.754  17.313  0.00  0.00    +0.000 A 
ATOM     19  C   UNL     1       5.744   5.935  16.524  0.00  0.00    +0.000 A 
ATOM     20  C   UNL     1       5.379   4.621  16.273  0.00  0.00    +0.000 A 
ATOM     21  C   UNL     1       4.160   4.156  16.776  0.00  0.00    +0.000 A 
ATOM     22  C   UNL     1       3.363   4.971  17.591  0.00  0.00    +0.000 A 
BRANCH  20  23
ATOM     23  O   UNL     1       6.246   3.916  15.503  0.00  0.00    +0.000 OA
BRANCH  23  24
ATOM     24  C   UNL     1       6.204   4.082  14.093  0.00  0.00    +0.000 C 
ATOM     25  F   UNL     1       5.039   4.568  13.618  0.00  0.00    +0.000 F 
ATOM     26  F   UNL     1       7.196   4.919  13.725  0.00  0.00    +0.000 F 
ATOM     27  F   UNL     1       6.416   2.885  13.501  0.00  0.00    +0.000 F 
ENDBRANCH  23  24
ENDBRANCH  20  23
ENDBRANCH   3  17
TORSDOF 4
ENDMDL
MODEL 5
REMARK VINA RESULT:      -7.8      0.839      1.263
REMARK  Name = 
REMARK  5 active torsions:
REMARK  status: ('A' for Active; 'I' for Inactive)
REMARK    1  A    between atoms: C_1  and  C_2
REMARK    2  A    between atoms: C_12  and  C_13
REMARK    3  A    between atoms: N_15  and  C_16
REMARK    4  A    between atoms: C_19  and  O_20
REMARK    5  A    between atoms: O_20  and  C_21
REMARK                            x       y       z     vdW  Elec       q    Type
REMARK                         _______ _______ _______ _____ _____    ______ ____
ROOT
ATOM      1  C   UNL     1       1.943   8.557  18.398  0.00  0.00    +0.000 C 
ATOM      2  O   UNL     1       2.196   9.004  17.276  0.00  0.00    +0.000 OA
ATOM      3  N   UNL     1       2.397   7.330  18.889  0.00  0.00    +0.000 N 
ATOM      4  H   UNL     1       1.988   6.967  19.735  0.00  0.00    +0.000 HD
ENDROOT
BRANCH   1  16
ATOM      5  C   UNL     1       1.417   8.361  21.517  0.00  0.00    +0.000 C 
ATOM      6  C   UNL     1       0.811   9.346  20.567  0.00  0.00    +0.000 A 
ATOM      7  N   UNL     1      -0.035  10.220  21.177  0.00  0.00    +0.000 NA
ATOM      8  C   UNL     1      -0.716  11.104  20.428  0.00  0.00    +0.000 A 
ATOM      9  N   UNL     1      -1.611  11.920  21.043  0.00  0.00    +0.000 N 
ATOM     10  C   UNL     1      -2.424  12.871  20.325  0.00  0.00    +0.000 C 
ATOM     11  C   UNL     1      -2.579  14.004  21.333  0.00  0.00    +0.000 C 
ATOM     12  C   UNL     1      -2.600  13.285  22.677  0.00  0.00    +0.000 C 
ATOM     13  C   UNL     1      -1.693  12.065  22.481  0.00  0.00    +0.000 C 
ATOM     14  N   UNL     1      -0.571  11.185  19.104  0.00  0.00    +0.000 NA
ATOM     15  C   UNL     1       0.310  10.337  18.525  0.00  0.00    +0.000 A 
ATOM     16  C   UNL     1       1.027   9.366  19.207  0.00  0.00    +0.000 A 
ENDBRANCH   1  16
BRANCH   3  17
ATOM     17  C   UNL     1       3.251   6.453  18.179  0.00  0.00    +0.000 A 
ATOM     18  C   UNL     1       4.534   6.840  17.775  0.00  0.00    +0.000 A 
ATOM     19  C   UNL     1       5.368   5.969  17.081  0.00  0.00    +0.000 A 
ATOM     20  C   UNL     1       4.952   4.681  16.784  0.00  0.00    +0.000 A 
ATOM     21  C   UNL     1       3.656   4.294  17.140  0.00  0.00    +0.000 A 
ATOM     22  C   UNL     1       2.823   5.161  17.861  0.00  0.00    +0.000 A 
BRANCH  20  23
ATOM     23  O   UNL     1       5.856   3.919  16.117  0.00  0.00    +0.000 OA
BRANCH  23  24
ATOM     24  C   UNL     1       6.171   4.248  14.772  0.00  0.00    +0.000 C 
ATOM     25  F   UNL     1       6.299   3.187  13.949  0.00  0.00    +0.000 F 
ATOM     26  F   UNL     1       5.203   5.051  14.283  0.00  0.00    +0.000 F 
ATOM     27  F   UNL     1       7.340   4.927  14.745  0.00  0.00    +0.000 F 
ENDBRANCH  23  24
ENDBRANCH  20  23
ENDBRANCH   3  17
TORSDOF 4
ENDMDL
MODEL 6
REMARK VINA RESULT:      -7.8      1.407      1.988
REMARK  Name = 
REMARK  5 active torsions:
REMARK  status: ('A' for Active; 'I' for Inactive)
REMARK    1  A    between atoms: C_1  and  C_2
REMARK    2  A    between atoms: C_12  and  C_13
REMARK    3  A    between atoms: N_15  and  C_16
REMARK    4  A    between atoms: C_19  and  O_20
REMARK    5  A    between atoms: O_20  and  C_21
REMARK                            x       y       z     vdW  Elec       q    Type
REMARK                         _______ _______ _______ _____ _____    ______ ____
ROOT
ATOM      1  C   UNL     1       1.555   9.128  18.387  0.00  0.00    +0.000 C 
ATOM      2  O   UNL     1       1.962   9.548  17.302  0.00  0.00    +0.000 OA
ATOM      3  N   UNL     1       1.861   7.873  18.922  0.00  0.00    +0.000 N 
ATOM      4  H   UNL     1       1.335   7.545  19.717  0.00  0.00    +0.000 HD
ENDROOT
BRANCH   1  16
ATOM      5  C   UNL     1      -1.352   9.998  17.472  0.00  0.00    +0.000 C 
ATOM      6  C   UNL     1      -0.670  10.363  18.753  0.00  0.00    +0.000 A 
ATOM      7  N   UNL     1      -1.439  11.142  19.561  0.00  0.00    +0.000 NA
ATOM      8  C   UNL     1      -0.917  11.615  20.706  0.00  0.00    +0.000 A 
ATOM      9  N   UNL     1      -1.672  12.451  21.465  0.00  0.00    +0.000 N 
ATOM     10  C   UNL     1      -1.191  13.049  22.686  0.00  0.00    +0.000 C 
ATOM     11  C   UNL     1      -2.457  13.154  23.528  0.00  0.00    +0.000 C 
ATOM     12  C   UNL     1      -3.550  13.412  22.497  0.00  0.00    +0.000 C 
ATOM     13  C   UNL     1      -3.088  12.663  21.242  0.00  0.00    +0.000 C 
ATOM     14  N   UNL     1       0.323  11.323  21.104  0.00  0.00    +0.000 NA
ATOM     15  C   UNL     1       1.052  10.509  20.308  0.00  0.00    +0.000 A 
ATOM     16  C   UNL     1       0.617  10.005  19.092  0.00  0.00    +0.000 A 
ENDBRANCH   1  16
BRANCH   3  17
ATOM     17  C   UNL     1       2.721   6.932  18.308  0.00  0.00    +0.000 A 
ATOM     18  C   UNL     1       2.358   5.588  18.161  0.00  0.00    +0.000 A 
ATOM     19  C   UNL     1       3.208   4.670  17.553  0.00  0.00    +0.000 A 
ATOM     20  C   UNL     1       4.441   5.070  17.060  0.00  0.00    +0.000 A 
ATOM     21  C   UNL     1       4.838   6.398  17.241  0.00  0.00    +0.000 A 
ATOM     22  C   UNL     1       3.973   7.331  17.831  0.00  0.00    +0.000 A 
BRANCH  20  23
ATOM     23  O   UNL     1       5.176   4.090  16.476  0.00  0.00    +0.000 OA
BRANCH  23  24
ATOM     24  C   UNL     1       5.945   4.404  15.324  0.00  0.00    +0.000 C 
ATOM     25  F   UNL     1       6.231   3.348  14.534  0.00  0.00    +0.000 F 
ATOM     26  F   UNL     1       5.274   5.315  14.589  0.00  0.00    +0.000 F 
ATOM     27  F   UNL     1       7.118   4.952  15.711  0.00  0.00    +0.000 F 
ENDBRANCH  23  24
ENDBRANCH  20  23
ENDBRANCH   3  17
TORSDOF 4
ENDMDL
MODEL 7
REMARK VINA RESULT:      -7.6      1.104      2.245
REMARK  Name = 
REMARK  5 active torsions:
REMARK  status: ('A' for Active; 'I' for Inactive)
REMARK    1  A    between atoms: C_1  and  C_2
REMARK    2  A    between atoms: C_12  and  C_13
REMARK    3  A    between atoms: N_15  and  C_16
REMARK    4  A    between atoms: C_19  and  O_20
REMARK    5  A    between atoms: O_20  and  C_21
REMARK                            x       y       z     vdW  Elec       q    Type
REMARK                         _______ _______ _______ _____ _____    ______ ____
ROOT
ATOM      1  C   UNL     1       1.868   8.842  18.611  0.00  0.00    +0.000 C 
ATOM      2  O   UNL     1       1.891   9.139  17.414  0.00  0.00    +0.000 OA
ATOM      3  N   UNL     1       2.394   7.665  19.150  0.00  0.00    +0.000 N 
ATOM      4  H   UNL     1       2.162   7.424  20.101  0.00  0.00    +0.000 HD
ENDROOT
BRANCH   1  16
ATOM      5  C   UNL     1       1.868  12.008  18.469  0.00  0.00    +0.000 C 
ATOM      6  C   UNL     1       1.085  11.154  19.417  0.00  0.00    +0.000 A 
ATOM      7  N   UNL     1       0.310  11.879  20.268  0.00  0.00    +0.000 NA
ATOM      8  C   UNL     1      -0.379  11.242  21.231  0.00  0.00    +0.000 A 
ATOM      9  N   UNL     1      -1.089  11.986  22.119  0.00  0.00    +0.000 N 
ATOM     10  C   UNL     1      -1.826  11.404  23.214  0.00  0.00    +0.000 C 
ATOM     11  C   UNL     1      -3.003  12.359  23.368  0.00  0.00    +0.000 C 
ATOM     12  C   UNL     1      -2.414  13.714  22.996  0.00  0.00    +0.000 C 
ATOM     13  C   UNL     1      -1.347  13.400  21.942  0.00  0.00    +0.000 C 
ATOM     14  N   UNL     1      -0.363   9.914  21.366  0.00  0.00    +0.000 NA
ATOM     15  C   UNL     1       0.376   9.212  20.478  0.00  0.00    +0.000 A 
ATOM     16  C   UNL     1       1.152   9.780  19.479  0.00  0.00    +0.000 A 
ENDBRANCH   1  16
BRANCH   3  17
ATOM     17  C   UNL     1       3.069   6.674  18.400  0.00  0.00    +0.000 A 
ATOM     18  C   UNL     1       4.360   6.881  17.899  0.00  0.00    +0.000 A 
ATOM     19  C   UNL     1       5.018   5.899  17.165  0.00  0.00    +0.000 A 
ATOM     20  C   UNL     1       4.413   4.676  16.922  0.00  0.00    +0.000 A 
ATOM     21  C   UNL     1       3.106   4.471  17.375  0.00  0.00    +0.000 A 
ATOM     22  C   UNL     1       2.450   5.449  18.136  0.00  0.00    +0.000 A 
BRANCH  20  23
ATOM     23  O   UNL     1       5.156   3.793  16.208  0.00  0.00    +0.000 OA
BRANCH  23  24
ATOM     24  C   UNL     1       5.920   4.269  15.109  0.00  0.00    +0.000 C 
ATOM     25  F   UNL     1       5.402   5.350  14.490  0.00  0.00    +0.000 F 
ATOM     26  F   UNL     1       7.158   4.582  15.545  0.00  0.00    +0.000 F 
ATOM     27  F   UNL     1       6.030   3.286  14.188  0.00  0.00    +0.000 F 
ENDBRANCH  23  24
ENDBRANCH  20  23
ENDBRANCH   3  17
TORSDOF 4
ENDMDL
MODEL 8
REMARK VINA RESULT:      -7.6      0.713      1.907
REMARK  Name = 
REMARK  5 active torsions:
REMARK  status: ('A' for Active; 'I' for Inactive)
REMARK    1  A    between atoms: C_1  and  C_2
REMARK    2  A    between atoms: C_12  and  C_13
REMARK    3  A    between atoms: N_15  and  C_16
REMARK    4  A    between atoms: C_19  and  O_20
REMARK    5  A    between atoms: O_20  and  C_21
REMARK                            x       y       z     vdW  Elec       q    Type
REMARK                         _______ _______ _______ _____ _____    ______ ____
ROOT
ATOM      1  C   UNL     1       2.205   8.566  18.336  0.00  0.00    +0.000 C 
ATOM      2  O   UNL     1       2.081   8.812  17.134  0.00  0.00    +0.000 OA
ATOM      3  N   UNL     1       2.893   7.467  18.859  0.00  0.00    +0.000 N 
ATOM      4  H   UNL     1       2.780   7.247  19.836  0.00  0.00    +0.000 HD
ENDROOT
BRANCH   1  16
ATOM      5  C   UNL     1       2.032  11.727  18.188  0.00  0.00    +0.000 C 
ATOM      6  C   UNL     1       1.349  10.839  19.180  0.00  0.00    +0.000 A 
ATOM      7  N   UNL     1       0.586  11.527  20.072  0.00  0.00    +0.000 NA
ATOM      8  C   UNL     1      -0.013  10.860  21.074  0.00  0.00    +0.000 A 
ATOM      9  N   UNL     1      -0.710  11.571  21.998  0.00  0.00    +0.000 N 
ATOM     10  C   UNL     1      -1.353  10.957  23.135  0.00  0.00    +0.000 C 
ATOM     11  C   UNL     1      -2.568  11.850  23.353  0.00  0.00    +0.000 C 
ATOM     12  C   UNL     1      -2.072  13.233  22.944  0.00  0.00    +0.000 C 
ATOM     13  C   UNL     1      -1.051  12.968  21.832  0.00  0.00    +0.000 C 
ATOM     14  N   UNL     1       0.079   9.536  21.211  0.00  0.00    +0.000 NA
ATOM     15  C   UNL     1       0.803   8.867  20.285  0.00  0.00    +0.000 A 
ATOM     16  C   UNL     1       1.490   9.470  19.242  0.00  0.00    +0.000 A 
ENDBRANCH   1  16
BRANCH   3  17
ATOM     17  C   UNL     1       3.582   6.512  18.077  0.00  0.00    +0.000 A 
ATOM     18  C   UNL     1       4.802   6.809  17.456  0.00  0.00    +0.000 A 
ATOM     19  C   UNL     1       5.476   5.862  16.692  0.00  0.00    +0.000 A 
ATOM     20  C   UNL     1       4.960   4.584  16.537  0.00  0.00    +0.000 A 
ATOM     21  C   UNL     1       3.721   4.286  17.112  0.00  0.00    +0.000 A 
ATOM     22  C   UNL     1       3.052   5.230  17.903  0.00  0.00    +0.000 A 
BRANCH  20  23
ATOM     23  O   UNL     1       5.712   3.743  15.783  0.00  0.00    +0.000 OA
BRANCH  23  24
ATOM     24  C   UNL     1       5.998   4.098  14.438  0.00  0.00    +0.000 C 
ATOM     25  F   UNL     1       6.224   3.053  13.616  0.00  0.00    +0.000 F 
ATOM     26  F   UNL     1       4.962   4.810  13.946  0.00  0.00    +0.000 F 
ATOM     27  F   UNL     1       7.100   4.882  14.412  0.00  0.00    +0.000 F 
ENDBRANCH  23  24
ENDBRANCH  20  23
ENDBRANCH   3  17
TORSDOF 4
ENDMDL
MODEL 9
REMARK VINA RESULT:      -7.6      1.103      1.968
REMARK  Name = 
REMARK  5 active torsions:
REMARK  status: ('A' for Active; 'I' for Inactive)
REMARK    1  A    between atoms: C_1  and  C_2
REMARK    2  A    between atoms: C_12  and  C_13
REMARK    3  A    between atoms: N_15  and  C_16
REMARK    4  A    between atoms: C_19  and  O_20
REMARK    5  A    between atoms: O_20  and  C_21
REMARK                            x       y       z     vdW  Elec       q    Type
REMARK                         _______ _______ _______ _____ _____    ______ ____
ROOT
ATOM      1  C   UNL     1       1.872   8.923  18.561  0.00  0.00    +0.000 C 
ATOM      2  O   UNL     1       1.840   9.207  17.361  0.00  0.00    +0.000 OA
ATOM      3  N   UNL     1       2.463   7.774  19.093  0.00  0.00    +0.000 N 
ATOM      4  H   UNL     1       2.276   7.535  20.055  0.00  0.00    +0.000 HD
ENDROOT
BRANCH   1  16
ATOM      5  C   UNL     1       1.866  12.091  18.481  0.00  0.00    +0.000 C 
ATOM      6  C   UNL     1       1.083  11.218  19.410  0.00  0.00    +0.000 A 
ATOM      7  N   UNL     1       0.304  11.925  20.274  0.00  0.00    +0.000 NA
ATOM      8  C   UNL     1      -0.386  11.268  21.222  0.00  0.00    +0.000 A 
ATOM      9  N   UNL     1      -1.099  11.993  22.123  0.00  0.00    +0.000 N 
ATOM     10  C   UNL     1      -1.837  11.388  23.205  0.00  0.00    +0.000 C 
ATOM     11  C   UNL     1      -3.017  12.337  23.375  0.00  0.00    +0.000 C 
ATOM     12  C   UNL     1      -2.430  13.701  23.030  0.00  0.00    +0.000 C 
ATOM     13  C   UNL     1      -1.360  13.409  21.972  0.00  0.00    +0.000 C 
ATOM     14  N   UNL     1      -0.368   9.938  21.332  0.00  0.00    +0.000 NA
ATOM     15  C   UNL     1       0.375   9.253  20.432  0.00  0.00    +0.000 A 
ATOM     16  C   UNL     1       1.151   9.842  19.446  0.00  0.00    +0.000 A 
ENDBRANCH   1  16
BRANCH   3  17
ATOM     17  C   UNL     1       3.148   6.801  18.328  0.00  0.00    +0.000 A 
ATOM     18  C   UNL     1       2.623   5.519  18.125  0.00  0.00    +0.000 A 
ATOM     19  C   UNL     1       3.301   4.570  17.367  0.00  0.00    +0.000 A 
ATOM     20  C   UNL     1       4.518   4.876  16.778  0.00  0.00    +0.000 A 
ATOM     21  C   UNL     1       5.078   6.136  17.010  0.00  0.00    +0.000 A 
ATOM     22  C   UNL     1       4.385   7.103  17.752  0.00  0.00    +0.000 A 
BRANCH  20  23
ATOM     23  O   UNL     1       5.078   3.876  16.052  0.00  0.00    +0.000 OA
BRANCH  23  24
ATOM     24  C   UNL     1       6.036   4.204  15.056  0.00  0.00    +0.000 C 
ATOM     25  F   UNL     1       7.283   4.415  15.523  0.00  0.00    +0.000 F 
ATOM     26  F   UNL     1       6.083   3.202  14.152  0.00  0.00    +0.000 F 
ATOM     27  F   UNL     1       5.644   5.331  14.420  0.00  0.00    +0.000 F 
ENDBRANCH  23  24
ENDBRANCH  20  23
ENDBRANCH   3  17
TORSDOF 4
ENDMDL
