MODEL 1
REMARK VINA RESULT:      -8.5      0.000      0.000
REMARK  Name = 
REMARK  8 active torsions:
REMARK  status: ('A' for Active; 'I' for Inactive)
REMARK    1  A    between atoms: C_1  and  C_2
REMARK    2  A    between atoms: C_2  and  O_3
REMARK    3  A    between atoms: C_2  and  C_15
REMARK    4  A    between atoms: O_3  and  C_4
REMARK    5  A    between atoms: C_4  and  C_6
REMARK    6  A    between atoms: C_10  and  N_11
REMARK    7  A    between atoms: N_11  and  C_12
REMARK    8  A    between atoms: N_11  and  C_13
REMARK                            x       y       z     vdW  Elec       q    Type
REMARK                         _______ _______ _______ _____ _____    ______ ____
ROOT
ATOM      1  C   UNL     1       7.585   7.369  17.794  0.00  0.00    +0.000 C 
ATOM      2  C   UNL     1       6.650   6.251  17.313  0.00  0.00    +0.000 C 
ENDROOT
BRANCH   2   3
ATOM      3  C   UNL     1       5.997   5.657  18.576  0.00  0.00    +0.000 C 
ATOM      4  O   UNL     1       6.675   5.396  19.574  0.00  0.00    +0.000 OA
ATOM      5  N   UNL     1       4.606   5.616  18.628  0.00  0.00    +0.000 N 
ATOM      6  C   UNL     1       4.011   5.691  19.967  0.00  0.00    +0.000 C 
ATOM      7  C   UNL     1       2.515   5.997  19.885  0.00  0.00    +0.000 C 
ATOM      8  C   UNL     1       1.920   4.759  19.267  0.00  0.00    +0.000 A 
ATOM      9  C   UNL     1       0.895   4.061  19.908  0.00  0.00    +0.000 A 
ATOM     10  C   UNL     1       0.607   2.761  19.511  0.00  0.00    +0.000 A 
ATOM     11  C   UNL     1       1.307   2.186  18.447  0.00  0.00    +0.000 A 
ATOM     12  C   UNL     1       2.282   2.916  17.751  0.00  0.00    +0.000 A 
ATOM     13  C   UNL     1       2.611   4.209  18.162  0.00  0.00    +0.000 A 
ATOM     14  C   UNL     1       3.767   5.014  17.569  0.00  0.00    +0.000 C 
ENDBRANCH   2   3
BRANCH   2  15
ATOM     15  O   UNL     1       7.445   5.224  16.677  0.00  0.00    +0.000 OA
BRANCH  15  16
ATOM     16  C   UNL     1       6.756   4.264  16.008  0.00  0.00    +0.000 C 
ATOM     17  O   UNL     1       6.079   3.397  16.534  0.00  0.00    +0.000 OA
BRANCH  16  18
ATOM     18  C   UNL     1       6.914   4.399  14.526  0.00  0.00    +0.000 A 
ATOM     19  C   UNL     1       7.743   5.354  13.939  0.00  0.00    +0.000 A 
ATOM     20  C   UNL     1       7.847   5.407  12.550  0.00  0.00    +0.000 A 
ATOM     21  C   UNL     1       7.120   4.515  11.745  0.00  0.00    +0.000 A 
ATOM     22  C   UNL     1       6.258   3.550  12.292  0.00  0.00    +0.000 A 
ATOM     23  C   UNL     1       6.179   3.524  13.700  0.00  0.00    +0.000 A 
BRANCH  22  24
ATOM     24  N   UNL     1       5.490   2.703  11.506  0.00  0.00    +0.000 N 
ATOM     25  C   UNL     1       4.103   3.022  11.175  0.00  0.00    +0.000 C 
ATOM     26  C   UNL     1       5.880   1.323  11.225  0.00  0.00    +0.000 C 
ENDBRANCH  22  24
ENDBRANCH  16  18
ENDBRANCH  15  16
ENDBRANCH   2  15
TORSDOF 5
ENDMDL
MODEL 2
REMARK VINA RESULT:      -8.3      2.041      3.567
REMARK  Name = 
REMARK  8 active torsions:
REMARK  status: ('A' for Active; 'I' for Inactive)
REMARK    1  A    between atoms: C_1  and  C_2
REMARK    2  A    between atoms: C_2  and  O_3
REMARK    3  A    between atoms: C_2  and  C_15
REMARK    4  A    between atoms: O_3  and  C_4
REMARK    5  A    between atoms: C_4  and  C_6
REMARK    6  A    between atoms: C_10  and  N_11
REMARK    7  A    between atoms: N_11  and  C_12
REMARK    8  A    between atoms: N_11  and  C_13
REMARK                            x       y       z     vdW  Elec       q    Type
REMARK                         _______ _______ _______ _____ _____    ______ ____
ROOT
ATOM      1  C   UNL     1       3.859   1.829  17.592  0.00  0.00    +0.000 C 
ATOM      2  C   UNL     1       4.063   3.347  17.696  0.00  0.00    +0.000 C 
ENDROOT
BRANCH   2   3
ATOM      3  C   UNL     1       2.695   3.945  18.074  0.00  0.00    +0.000 C 
ATOM      4  O   UNL     1       1.652   3.319  17.862  0.00  0.00    +0.000 OA
ATOM      5  N   UNL     1       2.685   5.107  18.841  0.00  0.00    +0.000 N 
ATOM      6  C   UNL     1       1.521   5.292  19.714  0.00  0.00    +0.000 C 
ATOM      7  C   UNL     1       1.781   6.388  20.749  0.00  0.00    +0.000 C 
ATOM      8  C   UNL     1       1.857   7.652  19.934  0.00  0.00    +0.000 A 
ATOM      9  C   UNL     1       1.026   8.738  20.218  0.00  0.00    +0.000 A 
ATOM     10  C   UNL     1       0.863   9.736  19.265  0.00  0.00    +0.000 A 
ATOM     11  C   UNL     1       1.567   9.671  18.060  0.00  0.00    +0.000 A 
ATOM     12  C   UNL     1       2.463   8.621  17.808  0.00  0.00    +0.000 A 
ATOM     13  C   UNL     1       2.609   7.589  18.738  0.00  0.00    +0.000 A 
ATOM     14  C   UNL     1       3.435   6.330  18.477  0.00  0.00    +0.000 C 
ENDBRANCH   2   3
BRANCH   2  15
ATOM     15  O   UNL     1       4.446   3.853  16.396  0.00  0.00    +0.000 OA
BRANCH  15  16
ATOM     16  C   UNL     1       5.697   4.370  16.301  0.00  0.00    +0.000 C 
ATOM     17  O   UNL     1       6.354   4.786  17.241  0.00  0.00    +0.000 OA
BRANCH  16  18
ATOM     18  C   UNL     1       6.196   4.361  14.890  0.00  0.00    +0.000 A 
ATOM     19  C   UNL     1       7.266   5.145  14.462  0.00  0.00    +0.000 A 
ATOM     20  C   UNL     1       7.679   5.071  13.133  0.00  0.00    +0.000 A 
ATOM     21  C   UNL     1       7.023   4.220  12.228  0.00  0.00    +0.000 A 
ATOM     22  C   UNL     1       5.928   3.427  12.610  0.00  0.00    +0.000 A 
ATOM     23  C   UNL     1       5.538   3.527  13.961  0.00  0.00    +0.000 A 
BRANCH  22  24
ATOM     24  N   UNL     1       5.235   2.629  11.711  0.00  0.00    +0.000 N 
ATOM     25  C   UNL     1       5.842   1.431  11.134  0.00  0.00    +0.000 C 
ATOM     26  C   UNL     1       4.015   3.075  11.042  0.00  0.00    +0.000 C 
ENDBRANCH  22  24
ENDBRANCH  16  18
ENDBRANCH  15  16
ENDBRANCH   2  15
TORSDOF 5
ENDMDL
MODEL 3
REMARK VINA RESULT:      -7.7      1.078      1.366
REMARK  Name = 
REMARK  8 active torsions:
REMARK  status: ('A' for Active; 'I' for Inactive)
REMARK    1  A    between atoms: C_1  and  C_2
REMARK    2  A    between atoms: C_2  and  O_3
REMARK    3  A    between atoms: C_2  and  C_15
REMARK    4  A    between atoms: O_3  and  C_4
REMARK    5  A    between atoms: C_4  and  C_6
REMARK    6  A    between atoms: C_10  and  N_11
REMARK    7  A    between atoms: N_11  and  C_12
REMARK    8  A    between atoms: N_11  and  C_13
REMARK                            x       y       z     vdW  Elec       q    Type
REMARK                         _______ _______ _______ _____ _____    ______ ____
ROOT
ATOM      1  C   UNL     1       4.729   7.416  16.000  0.00  0.00    +0.000 C 
ATOM      2  C   UNL     1       5.367   6.047  16.269  0.00  0.00    +0.000 C 
ENDROOT
BRANCH   2   3
ATOM      3  C   UNL     1       5.197   5.776  17.776  0.00  0.00    +0.000 C 
ATOM      4  O   UNL     1       6.140   5.938  18.557  0.00  0.00    +0.000 OA
ATOM      5  N   UNL     1       3.909   5.545  18.251  0.00  0.00    +0.000 N 
ATOM      6  C   UNL     1       3.658   5.935  19.643  0.00  0.00    +0.000 C 
ATOM      7  C   UNL     1       2.157   5.974  19.939  0.00  0.00    +0.000 C 
ATOM      8  C   UNL     1       1.731   4.532  19.860  0.00  0.00    +0.000 A 
ATOM      9  C   UNL     1       1.081   3.917  20.933  0.00  0.00    +0.000 A 
ATOM     10  C   UNL     1       1.012   2.530  20.979  0.00  0.00    +0.000 A 
ATOM     11  C   UNL     1       1.544   1.770  19.935  0.00  0.00    +0.000 A 
ATOM     12  C   UNL     1       2.125   2.389  18.818  0.00  0.00    +0.000 A 
ATOM     13  C   UNL     1       2.238   3.781  18.774  0.00  0.00    +0.000 A 
ATOM     14  C   UNL     1       2.998   4.529  17.679  0.00  0.00    +0.000 C 
ENDBRANCH   2   3
BRANCH   2  15
ATOM     15  O   UNL     1       6.781   6.128  15.971  0.00  0.00    +0.000 OA
BRANCH  15  16
ATOM     16  C   UNL     1       7.373   4.976  15.565  0.00  0.00    +0.000 C 
ATOM     17  O   UNL     1       7.891   4.159  16.309  0.00  0.00    +0.000 OA
BRANCH  16  18
ATOM     18  C   UNL     1       7.306   4.811  14.080  0.00  0.00    +0.000 A 
ATOM     19  C   UNL     1       8.042   5.601  13.199  0.00  0.00    +0.000 A 
ATOM     20  C   UNL     1       7.936   5.377  11.827  0.00  0.00    +0.000 A 
ATOM     21  C   UNL     1       7.092   4.370  11.332  0.00  0.00    +0.000 A 
ATOM     22  C   UNL     1       6.317   3.563  12.181  0.00  0.00    +0.000 A 
ATOM     23  C   UNL     1       6.450   3.816  13.562  0.00  0.00    +0.000 A 
BRANCH  22  24
ATOM     24  N   UNL     1       5.434   2.605  11.701  0.00  0.00    +0.000 N 
ATOM     25  C   UNL     1       5.895   1.273  11.314  0.00  0.00    +0.000 C 
ATOM     26  C   UNL     1       4.084   2.936  11.250  0.00  0.00    +0.000 C 
ENDBRANCH  22  24
ENDBRANCH  16  18
ENDBRANCH  15  16
ENDBRANCH   2  15
TORSDOF 5
ENDMDL
MODEL 4
REMARK VINA RESULT:      -7.6      7.625     11.887
REMARK  Name = 
REMARK  8 active torsions:
REMARK  status: ('A' for Active; 'I' for Inactive)
REMARK    1  A    between atoms: C_1  and  C_2
REMARK    2  A    between atoms: C_2  and  O_3
REMARK    3  A    between atoms: C_2  and  C_15
REMARK    4  A    between atoms: O_3  and  C_4
REMARK    5  A    between atoms: C_4  and  C_6
REMARK    6  A    between atoms: C_10  and  N_11
REMARK    7  A    between atoms: N_11  and  C_12
REMARK    8  A    between atoms: N_11  and  C_13
REMARK                            x       y       z     vdW  Elec       q    Type
REMARK                         _______ _______ _______ _____ _____    ______ ____
ROOT
ATOM      1  C   UNL     1       1.418  12.119  20.504  0.00  0.00    +0.000 C 
ATOM      2  C   UNL     1       0.552  10.930  20.939  0.00  0.00    +0.000 C 
ENDROOT
BRANCH   2   3
ATOM      3  C   UNL     1       0.399  10.027  19.700  0.00  0.00    +0.000 C 
ATOM      4  O   UNL     1      -0.465  10.261  18.850  0.00  0.00    +0.000 OA
ATOM      5  N   UNL     1       1.388   9.074  19.467  0.00  0.00    +0.000 N 
ATOM      6  C   UNL     1       1.611   8.709  18.064  0.00  0.00    +0.000 C 
ATOM      7  C   UNL     1       2.928   7.948  17.899  0.00  0.00    +0.000 C 
ATOM      8  C   UNL     1       2.686   6.639  18.604  0.00  0.00    +0.000 A 
ATOM      9  C   UNL     1       2.864   5.424  17.940  0.00  0.00    +0.000 A 
ATOM     10  C   UNL     1       2.313   4.268  18.479  0.00  0.00    +0.000 A 
ATOM     11  C   UNL     1       1.634   4.323  19.699  0.00  0.00    +0.000 A 
ATOM     12  C   UNL     1       1.525   5.530  20.407  0.00  0.00    +0.000 A 
ATOM     13  C   UNL     1       2.039   6.708  19.860  0.00  0.00    +0.000 A 
ATOM     14  C   UNL     1       1.825   8.088  20.481  0.00  0.00    +0.000 C 
ENDBRANCH   2   3
BRANCH   2  15
ATOM     15  O   UNL     1      -0.756  11.422  21.315  0.00  0.00    +0.000 OA
BRANCH  15  16
ATOM     16  C   UNL     1      -1.041  11.404  22.642  0.00  0.00    +0.000 C 
ATOM     17  O   UNL     1      -0.617  10.581  23.436  0.00  0.00    +0.000 OA
BRANCH  16  18
ATOM     18  C   UNL     1      -1.940  12.535  23.032  0.00  0.00    +0.000 A 
ATOM     19  C   UNL     1      -1.462  13.727  23.576  0.00  0.00    +0.000 A 
ATOM     20  C   UNL     1      -2.363  14.739  23.901  0.00  0.00    +0.000 A 
ATOM     21  C   UNL     1      -3.740  14.564  23.690  0.00  0.00    +0.000 A 
ATOM     22  C   UNL     1      -4.268  13.374  23.164  0.00  0.00    +0.000 A 
ATOM     23  C   UNL     1      -3.329  12.372  22.845  0.00  0.00    +0.000 A 
BRANCH  22  24
ATOM     24  N   UNL     1      -5.632  13.166  23.007  0.00  0.00    +0.000 N 
ATOM     25  C   UNL     1      -6.466  12.724  24.122  0.00  0.00    +0.000 C 
ATOM     26  C   UNL     1      -6.265  13.060  21.695  0.00  0.00    +0.000 C 
ENDBRANCH  22  24
ENDBRANCH  16  18
ENDBRANCH  15  16
ENDBRANCH   2  15
TORSDOF 5
ENDMDL
MODEL 5
REMARK VINA RESULT:      -7.5      7.552     11.991
REMARK  Name = 
REMARK  8 active torsions:
REMARK  status: ('A' for Active; 'I' for Inactive)
REMARK    1  A    between atoms: C_1  and  C_2
REMARK    2  A    between atoms: C_2  and  O_3
REMARK    3  A    between atoms: C_2  and  C_15
REMARK    4  A    between atoms: O_3  and  C_4
REMARK    5  A    between atoms: C_4  and  C_6
REMARK    6  A    between atoms: C_10  and  N_11
REMARK    7  A    between atoms: N_11  and  C_12
REMARK    8  A    between atoms: N_11  and  C_13
REMARK                            x       y       z     vdW  Elec       q    Type
REMARK                         _______ _______ _______ _____ _____    ______ ____
ROOT
ATOM      1  C   UNL     1       1.031  12.454  19.909  0.00  0.00    +0.000 C 
ATOM      2  C   UNL     1       0.575  11.140  20.557  0.00  0.00    +0.000 C 
ENDROOT
BRANCH   2   3
ATOM      3  C   UNL     1       0.413  10.122  19.412  0.00  0.00    +0.000 C 
ATOM      4  O   UNL     1      -0.453  10.279  18.546  0.00  0.00    +0.000 OA
ATOM      5  N   UNL     1       1.395   9.145  19.270  0.00  0.00    +0.000 N 
ATOM      6  C   UNL     1       1.611   8.645  17.908  0.00  0.00    +0.000 C 
ATOM      7  C   UNL     1       2.923   7.863  17.813  0.00  0.00    +0.000 C 
ATOM      8  C   UNL     1       2.677   6.631  18.643  0.00  0.00    +0.000 A 
ATOM      9  C   UNL     1       2.844   5.355  18.098  0.00  0.00    +0.000 A 
ATOM     10  C   UNL     1       2.289   4.261  18.749  0.00  0.00    +0.000 A 
ATOM     11  C   UNL     1       1.615   4.438  19.960  0.00  0.00    +0.000 A 
ATOM     12  C   UNL     1       1.516   5.708  20.548  0.00  0.00    +0.000 A 
ATOM     13  C   UNL     1       2.034   6.824  19.888  0.00  0.00    +0.000 A 
ATOM     14  C   UNL     1       1.830   8.259  20.373  0.00  0.00    +0.000 C 
ENDBRANCH   2   3
BRANCH   2  15
ATOM     15  O   UNL     1      -0.716  11.351  21.174  0.00  0.00    +0.000 OA
BRANCH  15  16
ATOM     16  C   UNL     1      -0.754  11.256  22.528  0.00  0.00    +0.000 C 
ATOM     17  O   UNL     1      -0.117  10.453  23.189  0.00  0.00    +0.000 OA
BRANCH  16  18
ATOM     18  C   UNL     1      -1.672  12.273  23.130  0.00  0.00    +0.000 A 
ATOM     19  C   UNL     1      -3.009  12.005  23.421  0.00  0.00    +0.000 A 
ATOM     20  C   UNL     1      -3.797  13.002  23.994  0.00  0.00    +0.000 A 
ATOM     21  C   UNL     1      -3.255  14.268  24.270  0.00  0.00    +0.000 A 
ATOM     22  C   UNL     1      -1.921  14.589  23.975  0.00  0.00    +0.000 A 
ATOM     23  C   UNL     1      -1.153  13.557  23.398  0.00  0.00    +0.000 A 
BRANCH  22  24
ATOM     24  N   UNL     1      -1.392  15.854  24.189  0.00  0.00    +0.000 N 
ATOM     25  C   UNL     1      -1.862  16.700  25.285  0.00  0.00    +0.000 C 
ATOM     26  C   UNL     1      -0.589  16.551  23.186  0.00  0.00    +0.000 C 
ENDBRANCH  22  24
ENDBRANCH  16  18
ENDBRANCH  15  16
ENDBRANCH   2  15
TORSDOF 5
ENDMDL
MODEL 6
REMARK VINA RESULT:      -7.2      6.033      9.465
REMARK  Name = 
REMARK  8 active torsions:
REMARK  status: ('A' for Active; 'I' for Inactive)
REMARK    1  A    between atoms: C_1  and  C_2
REMARK    2  A    between atoms: C_2  and  O_3
REMARK    3  A    between atoms: C_2  and  C_15
REMARK    4  A    between atoms: O_3  and  C_4
REMARK    5  A    between atoms: C_4  and  C_6
REMARK    6  A    between atoms: C_10  and  N_11
REMARK    7  A    between atoms: N_11  and  C_12
REMARK    8  A    between atoms: N_11  and  C_13
REMARK                            x       y       z     vdW  Elec       q    Type
REMARK                         _______ _______ _______ _____ _____    ______ ____
ROOT
ATOM      1  C   UNL     1       2.066  11.086  18.309  0.00  0.00    +0.000 C 
ATOM      2  C   UNL     1       1.714   9.889  19.201  0.00  0.00    +0.000 C 
ENDROOT
BRANCH   2   3
ATOM      3  C   UNL     1       1.935   8.627  18.345  0.00  0.00    +0.000 C 
ATOM      4  O   UNL     1       1.732   8.647  17.127  0.00  0.00    +0.000 OA
ATOM      5  N   UNL     1       2.560   7.538  18.945  0.00  0.00    +0.000 N 
ATOM      6  C   UNL     1       3.333   6.667  18.052  0.00  0.00    +0.000 C 
ATOM      7  C   UNL     1       4.249   5.738  18.850  0.00  0.00    +0.000 C 
ATOM      8  C   UNL     1       3.300   4.813  19.565  0.00  0.00    +0.000 A 
ATOM      9  C   UNL     1       3.406   3.427  19.421  0.00  0.00    +0.000 A 
ATOM     10  C   UNL     1       2.336   2.623  19.794  0.00  0.00    +0.000 A 
ATOM     11  C   UNL     1       1.192   3.198  20.353  0.00  0.00    +0.000 A 
ATOM     12  C   UNL     1       1.118   4.582  20.572  0.00  0.00    +0.000 A 
ATOM     13  C   UNL     1       2.168   5.410  20.167  0.00  0.00    +0.000 A 
ATOM     14  C   UNL     1       2.105   6.936  20.218  0.00  0.00    +0.000 C 
ENDBRANCH   2   3
BRANCH   2  15
ATOM     15  O   UNL     1       0.313   9.969  19.552  0.00  0.00    +0.000 OA
BRANCH  15  16
ATOM     16  C   UNL     1      -0.006  10.838  20.545  0.00  0.00    +0.000 C 
ATOM     17  O   UNL     1       0.707  11.096  21.501  0.00  0.00    +0.000 OA
BRANCH  16  18
ATOM     18  C   UNL     1      -1.348  11.462  20.327  0.00  0.00    +0.000 A 
ATOM     19  C   UNL     1      -2.008  12.197  21.311  0.00  0.00    +0.000 A 
ATOM     20  C   UNL     1      -3.251  12.759  21.026  0.00  0.00    +0.000 A 
ATOM     21  C   UNL     1      -3.840  12.584  19.763  0.00  0.00    +0.000 A 
ATOM     22  C   UNL     1      -3.222  11.835  18.749  0.00  0.00    +0.000 A 
ATOM     23  C   UNL     1      -1.965  11.282  19.071  0.00  0.00    +0.000 A 
BRANCH  22  24
ATOM     24  N   UNL     1      -3.822  11.606  17.519  0.00  0.00    +0.000 N 
ATOM     25  C   UNL     1      -5.216  11.967  17.274  0.00  0.00    +0.000 C 
ATOM     26  C   UNL     1      -3.237  10.724  16.511  0.00  0.00    +0.000 C 
ENDBRANCH  22  24
ENDBRANCH  16  18
ENDBRANCH  15  16
ENDBRANCH   2  15
TORSDOF 5
ENDMDL
MODEL 7
REMARK VINA RESULT:      -7.2      6.066      9.254
REMARK  Name = 
REMARK  8 active torsions:
REMARK  status: ('A' for Active; 'I' for Inactive)
REMARK    1  A    between atoms: C_1  and  C_2
REMARK    2  A    between atoms: C_2  and  O_3
REMARK    3  A    between atoms: C_2  and  C_15
REMARK    4  A    between atoms: O_3  and  C_4
REMARK    5  A    between atoms: C_4  and  C_6
REMARK    6  A    between atoms: C_10  and  N_11
REMARK    7  A    between atoms: N_11  and  C_12
REMARK    8  A    between atoms: N_11  and  C_13
REMARK                            x       y       z     vdW  Elec       q    Type
REMARK                         _______ _______ _______ _____ _____    ______ ____
ROOT
ATOM      1  C   UNL     1       1.806   9.029  20.771  0.00  0.00    +0.000 C 
ATOM      2  C   UNL     1       1.015   8.852  19.468  0.00  0.00    +0.000 C 
ENDROOT
BRANCH   2   3
ATOM      3  C   UNL     1       1.955   8.132  18.483  0.00  0.00    +0.000 C 
ATOM      4  O   UNL     1       2.301   8.675  17.429  0.00  0.00    +0.000 OA
ATOM      5  N   UNL     1       2.559   6.951  18.908  0.00  0.00    +0.000 N 
ATOM      6  C   UNL     1       3.864   6.646  18.313  0.00  0.00    +0.000 C 
ATOM      7  C   UNL     1       4.581   5.547  19.098  0.00  0.00    +0.000 C 
ATOM      8  C   UNL     1       3.748   4.317  18.853  0.00  0.00    +0.000 A 
ATOM      9  C   UNL     1       4.320   3.158  18.324  0.00  0.00    +0.000 A 
ATOM     10  C   UNL     1       3.495   2.177  17.788  0.00  0.00    +0.000 A 
ATOM     11  C   UNL     1       2.107   2.335  17.829  0.00  0.00    +0.000 A 
ATOM     12  C   UNL     1       1.530   3.462  18.433  0.00  0.00    +0.000 A 
ATOM     13  C   UNL     1       2.345   4.476  18.941  0.00  0.00    +0.000 A 
ATOM     14  C   UNL     1       1.806   5.806  19.467  0.00  0.00    +0.000 C 
ENDBRANCH   2   3
BRANCH   2  15
ATOM     15  O   UNL     1       0.702  10.160  18.936  0.00  0.00    +0.000 OA
BRANCH  15  16
ATOM     16  C   UNL     1      -0.422  10.749  19.419  0.00  0.00    +0.000 C 
ATOM     17  O   UNL     1      -0.516  11.277  20.515  0.00  0.00    +0.000 OA
BRANCH  16  18
ATOM     18  C   UNL     1      -1.548  10.687  18.436  0.00  0.00    +0.000 A 
ATOM     19  C   UNL     1      -1.472   9.966  17.246  0.00  0.00    +0.000 A 
ATOM     20  C   UNL     1      -2.570   9.947  16.387  0.00  0.00    +0.000 A 
ATOM     21  C   UNL     1      -3.741  10.652  16.711  0.00  0.00    +0.000 A 
ATOM     22  C   UNL     1      -3.855  11.408  17.889  0.00  0.00    +0.000 A 
ATOM     23  C   UNL     1      -2.726  11.404  18.734  0.00  0.00    +0.000 A 
BRANCH  22  24
ATOM     24  N   UNL     1      -4.984  12.156  18.189  0.00  0.00    +0.000 N 
ATOM     25  C   UNL     1      -5.365  12.435  19.573  0.00  0.00    +0.000 C 
ATOM     26  C   UNL     1      -6.025  12.440  17.204  0.00  0.00    +0.000 C 
ENDBRANCH  22  24
ENDBRANCH  16  18
ENDBRANCH  15  16
ENDBRANCH   2  15
TORSDOF 5
ENDMDL
MODEL 8
REMARK VINA RESULT:      -7.2      5.740      9.530
REMARK  Name = 
REMARK  8 active torsions:
REMARK  status: ('A' for Active; 'I' for Inactive)
REMARK    1  A    between atoms: C_1  and  C_2
REMARK    2  A    between atoms: C_2  and  O_3
REMARK    3  A    between atoms: C_2  and  C_15
REMARK    4  A    between atoms: O_3  and  C_4
REMARK    5  A    between atoms: C_4  and  C_6
REMARK    6  A    between atoms: C_10  and  N_11
REMARK    7  A    between atoms: N_11  and  C_12
REMARK    8  A    between atoms: N_11  and  C_13
REMARK                            x       y       z     vdW  Elec       q    Type
REMARK                         _______ _______ _______ _____ _____    ______ ____
ROOT
ATOM      1  C   UNL     1       0.878   8.983  17.743  0.00  0.00    +0.000 C 
ATOM      2  C   UNL     1       1.436   9.186  19.157  0.00  0.00    +0.000 C 
ENDROOT
BRANCH   2   3
ATOM      3  C   UNL     1       2.089   7.851  19.564  0.00  0.00    +0.000 C 
ATOM      4  O   UNL     1       1.962   7.410  20.711  0.00  0.00    +0.000 OA
ATOM      5  N   UNL     1       2.643   7.067  18.556  0.00  0.00    +0.000 N 
ATOM      6  C   UNL     1       2.649   5.620  18.797  0.00  0.00    +0.000 C 
ATOM      7  C   UNL     1       2.940   4.851  17.507  0.00  0.00    +0.000 C 
ATOM      8  C   UNL     1       4.371   5.195  17.189  0.00  0.00    +0.000 A 
ATOM      9  C   UNL     1       5.328   4.192  17.019  0.00  0.00    +0.000 A 
ATOM     10  C   UNL     1       6.676   4.524  17.075  0.00  0.00    +0.000 A 
ATOM     11  C   UNL     1       7.060   5.856  17.248  0.00  0.00    +0.000 A 
ATOM     12  C   UNL     1       6.099   6.875  17.338  0.00  0.00    +0.000 A 
ATOM     13  C   UNL     1       4.740   6.554  17.324  0.00  0.00    +0.000 A 
ATOM     14  C   UNL     1       3.631   7.575  17.578  0.00  0.00    +0.000 C 
ENDBRANCH   2   3
BRANCH   2  15
ATOM     15  O   UNL     1       0.335   9.455  20.056  0.00  0.00    +0.000 OA
BRANCH  15  16
ATOM     16  C   UNL     1       0.274  10.712  20.566  0.00  0.00    +0.000 C 
ATOM     17  O   UNL     1       1.180  11.266  21.167  0.00  0.00    +0.000 OA
BRANCH  16  18
ATOM     18  C   UNL     1      -1.049  11.357  20.295  0.00  0.00    +0.000 A 
ATOM     19  C   UNL     1      -1.695  12.173  21.222  0.00  0.00    +0.000 A 
ATOM     20  C   UNL     1      -2.920  12.749  20.889  0.00  0.00    +0.000 A 
ATOM     21  C   UNL     1      -3.505  12.506  19.636  0.00  0.00    +0.000 A 
ATOM     22  C   UNL     1      -2.901  11.674  18.680  0.00  0.00    +0.000 A 
ATOM     23  C   UNL     1      -1.663  11.110  19.049  0.00  0.00    +0.000 A 
BRANCH  22  24
ATOM     24  N   UNL     1      -3.498  11.380  17.462  0.00  0.00    +0.000 N 
ATOM     25  C   UNL     1      -2.701  11.016  16.292  0.00  0.00    +0.000 C 
ATOM     26  C   UNL     1      -4.891  11.711  17.169  0.00  0.00    +0.000 C 
ENDBRANCH  22  24
ENDBRANCH  16  18
ENDBRANCH  15  16
ENDBRANCH   2  15
TORSDOF 5
ENDMDL
MODEL 9
REMARK VINA RESULT:      -7.2      4.304      5.729
REMARK  Name = 
REMARK  8 active torsions:
REMARK  status: ('A' for Active; 'I' for Inactive)
REMARK    1  A    between atoms: C_1  and  C_2
REMARK    2  A    between atoms: C_2  and  O_3
REMARK    3  A    between atoms: C_2  and  C_15
REMARK    4  A    between atoms: O_3  and  C_4
REMARK    5  A    between atoms: C_4  and  C_6
REMARK    6  A    between atoms: C_10  and  N_11
REMARK    7  A    between atoms: N_11  and  C_12
REMARK    8  A    between atoms: N_11  and  C_13
REMARK                            x       y       z     vdW  Elec       q    Type
REMARK                         _______ _______ _______ _____ _____    ______ ____
ROOT
ATOM      1  C   UNL     1       3.546   8.043  17.690  0.00  0.00    +0.000 C 
ATOM      2  C   UNL     1       2.511   7.066  18.263  0.00  0.00    +0.000 C 
ENDROOT
BRANCH   2   3
ATOM      3  C   UNL     1       1.756   7.830  19.368  0.00  0.00    +0.000 C 
ATOM      4  O   UNL     1       1.732   7.404  20.527  0.00  0.00    +0.000 OA
ATOM      5  N   UNL     1       1.284   9.105  19.066  0.00  0.00    +0.000 N 
ATOM      6  C   UNL     1       1.184  10.037  20.195  0.00  0.00    +0.000 C 
ATOM      7  C   UNL     1       1.006  11.475  19.705  0.00  0.00    +0.000 C 
ATOM      8  C   UNL     1      -0.363  11.482  19.076  0.00  0.00    +0.000 A 
ATOM      9  C   UNL     1      -1.340  12.387  19.497  0.00  0.00    +0.000 A 
ATOM     10  C   UNL     1      -2.669  12.154  19.165  0.00  0.00    +0.000 A 
ATOM     11  C   UNL     1      -3.007  11.052  18.375  0.00  0.00    +0.000 A 
ATOM     12  C   UNL     1      -2.017  10.188  17.885  0.00  0.00    +0.000 A 
ATOM     13  C   UNL     1      -0.681  10.384  18.242  0.00  0.00    +0.000 A 
ATOM     14  C   UNL     1       0.438   9.404  17.890  0.00  0.00    +0.000 C 
ENDBRANCH   2   3
BRANCH   2  15
ATOM     15  O   UNL     1       3.210   5.952  18.867  0.00  0.00    +0.000 OA
BRANCH  15  16
ATOM     16  C   UNL     1       3.414   4.872  18.071  0.00  0.00    +0.000 C 
ATOM     17  O   UNL     1       2.555   4.063  17.760  0.00  0.00    +0.000 OA
BRANCH  16  18
ATOM     18  C   UNL     1       4.831   4.791  17.599  0.00  0.00    +0.000 A 
ATOM     19  C   UNL     1       5.921   4.899  18.460  0.00  0.00    +0.000 A 
ATOM     20  C   UNL     1       7.213   4.800  17.945  0.00  0.00    +0.000 A 
ATOM     21  C   UNL     1       7.418   4.598  16.570  0.00  0.00    +0.000 A 
ATOM     22  C   UNL     1       6.351   4.504  15.663  0.00  0.00    +0.000 A 
ATOM     23  C   UNL     1       5.059   4.608  16.219  0.00  0.00    +0.000 A 
BRANCH  22  24
ATOM     24  N   UNL     1       6.543   4.365  14.295  0.00  0.00    +0.000 N 
ATOM     25  C   UNL     1       7.602   5.093  13.599  0.00  0.00    +0.000 C 
ATOM     26  C   UNL     1       5.544   3.761  13.418  0.00  0.00    +0.000 C 
ENDBRANCH  22  24
ENDBRANCH  16  18
ENDBRANCH  15  16
ENDBRANCH   2  15
TORSDOF 5
ENDMDL
