MODEL 1
REMARK VINA RESULT:      -7.7      0.000      0.000
REMARK  Name = 
REMARK  7 active torsions:
REMARK  status: ('A' for Active; 'I' for Inactive)
REMARK    1  A    between atoms: C_2  and  C_3
REMARK    2  A    between atoms: C_3  and  C_4
REMARK    3  A    between atoms: C_4  and  N_5
REMARK    4  A    between atoms: C_7  and  C_8
REMARK    5  A    between atoms: C_11  and  O_12
REMARK    6  A    between atoms: O_12  and  C_13
REMARK    7  A    between atoms: C_13  and  C_14
REMARK                            x       y       z     vdW  Elec       q    Type
REMARK                         _______ _______ _______ _____ _____    ______ ____
ROOT
ATOM      1  C   UNL     1       5.920   5.568  18.082  0.00  0.00    +0.000 A 
ATOM      2  C   UNL     1       5.775   6.710  17.293  0.00  0.00    +0.000 A 
ATOM      3  C   UNL     1       6.749   7.724  17.334  0.00  0.00    +0.000 A 
ATOM      4  C   UNL     1       7.868   7.630  18.169  0.00  0.00    +0.000 A 
ATOM      5  C   UNL     1       8.030   6.486  18.942  0.00  0.00    +0.000 A 
ATOM      6  C   UNL     1       7.063   5.460  18.897  0.00  0.00    +0.000 A 
ENDROOT
BRANCH   1   9
ATOM      7  N   UNL     1       3.621   2.848  18.279  0.00  0.00    +0.000 N 
ATOM      8  N   UNL     1       4.694   3.488  18.864  0.00  0.00    +0.000 NA
ATOM      9  C   UNL     1       4.887   4.502  18.065  0.00  0.00    +0.000 A 
ATOM     10  O   UNL     1       4.005   4.623  17.044  0.00  0.00    +0.000 OA
ATOM     11  C   UNL     1       3.155   3.578  17.203  0.00  0.00    +0.000 A 
ATOM     12  O   UNL     1       2.161   3.378  16.527  0.00  0.00    +0.000 OA
BRANCH   7  13
ATOM     13  C   UNL     1       2.832   1.773  18.853  0.00  0.00    +0.000 C 
BRANCH  13  14
ATOM     14  C   UNL     1       1.550   2.089  19.610  0.00  0.00    +0.000 C 
BRANCH  14  16
ATOM     15  N   UNL     1       1.920   2.995  22.213  0.00  0.00    +0.000 NA
ATOM     16  C   UNL     1       1.753   2.584  21.032  0.00  0.00    +0.000 C 
ENDBRANCH  14  16
ENDBRANCH  13  14
ENDBRANCH   7  13
ENDBRANCH   1   9
BRANCH   4  17
ATOM     17  O   UNL     1       8.745   8.681  18.098  0.00  0.00    +0.000 OA
BRANCH  17  18
ATOM     18  C   UNL     1       8.202   9.986  17.856  0.00  0.00    +0.000 C 
BRANCH  18  19
ATOM     19  C   UNL     1       9.176  11.065  18.310  0.00  0.00    +0.000 A 
ATOM     20  C   UNL     1       9.200  12.317  17.669  0.00  0.00    +0.000 A 
ATOM     21  C   UNL     1      10.060  13.329  18.112  0.00  0.00    +0.000 A 
ATOM     22  C   UNL     1      10.898  13.102  19.203  0.00  0.00    +0.000 A 
ATOM     23 CL   UNL     1      11.959  14.346  19.745  0.00  0.00    +0.000 Cl
ATOM     24  C   UNL     1      10.875  11.876  19.859  0.00  0.00    +0.000 A 
ATOM     25  C   UNL     1      10.014  10.865  19.420  0.00  0.00    +0.000 A 
ENDBRANCH  18  19
ENDBRANCH  17  18
ENDBRANCH   4  17
TORSDOF 7
ENDMDL
MODEL 2
REMARK VINA RESULT:      -7.6      1.224      1.319
REMARK  Name = 
REMARK  7 active torsions:
REMARK  status: ('A' for Active; 'I' for Inactive)
REMARK    1  A    between atoms: C_2  and  C_3
REMARK    2  A    between atoms: C_3  and  C_4
REMARK    3  A    between atoms: C_4  and  N_5
REMARK    4  A    between atoms: C_7  and  C_8
REMARK    5  A    between atoms: C_11  and  O_12
REMARK    6  A    between atoms: O_12  and  C_13
REMARK    7  A    between atoms: C_13  and  C_14
REMARK                            x       y       z     vdW  Elec       q    Type
REMARK                         _______ _______ _______ _____ _____    ______ ____
ROOT
ATOM      1  C   UNL     1       6.022   5.536  18.235  0.00  0.00    +0.000 A 
ATOM      2  C   UNL     1       5.788   6.580  17.339  0.00  0.00    +0.000 A 
ATOM      3  C   UNL     1       6.709   7.639  17.234  0.00  0.00    +0.000 A 
ATOM      4  C   UNL     1       7.862   7.687  18.027  0.00  0.00    +0.000 A 
ATOM      5  C   UNL     1       8.112   6.640  18.906  0.00  0.00    +0.000 A 
ATOM      6  C   UNL     1       7.198   5.569  19.007  0.00  0.00    +0.000 A 
ENDROOT
BRANCH   1   9
ATOM      7  N   UNL     1       3.472   3.044  18.359  0.00  0.00    +0.000 N 
ATOM      8  N   UNL     1       3.939   4.177  17.726  0.00  0.00    +0.000 NA
ATOM      9  C   UNL     1       5.046   4.425  18.371  0.00  0.00    +0.000 A 
ATOM     10  O   UNL     1       5.383   3.529  19.329  0.00  0.00    +0.000 OA
ATOM     11  C   UNL     1       4.388   2.607  19.296  0.00  0.00    +0.000 A 
ATOM     12  O   UNL     1       4.363   1.583  19.957  0.00  0.00    +0.000 OA
BRANCH   7  13
ATOM     13  C   UNL     1       2.382   2.191  17.923  0.00  0.00    +0.000 C 
BRANCH  13  14
ATOM     14  C   UNL     1       1.048   2.226  18.653  0.00  0.00    +0.000 C 
BRANCH  14  16
ATOM     15  N   UNL     1       1.142   3.323  21.207  0.00  0.00    +0.000 NA
ATOM     16  C   UNL     1       1.099   2.826  20.048  0.00  0.00    +0.000 C 
ENDBRANCH  14  16
ENDBRANCH  13  14
ENDBRANCH   7  13
ENDBRANCH   1   9
BRANCH   4  17
ATOM     17  O   UNL     1       8.680   8.766  17.811  0.00  0.00    +0.000 OA
BRANCH  17  18
ATOM     18  C   UNL     1       8.084  10.069  17.844  0.00  0.00    +0.000 C 
BRANCH  18  19
ATOM     19  C   UNL     1       9.103  11.113  18.283  0.00  0.00    +0.000 A 
ATOM     20  C   UNL     1       9.087  12.403  17.723  0.00  0.00    +0.000 A 
ATOM     21  C   UNL     1       9.990  13.381  18.156  0.00  0.00    +0.000 A 
ATOM     22  C   UNL     1      10.912  13.082  19.158  0.00  0.00    +0.000 A 
ATOM     23 CL   UNL     1      12.025  14.283  19.688  0.00  0.00    +0.000 Cl
ATOM     24  C   UNL     1      10.931  11.816  19.735  0.00  0.00    +0.000 A 
ATOM     25  C   UNL     1      10.027  10.839  19.306  0.00  0.00    +0.000 A 
ENDBRANCH  18  19
ENDBRANCH  17  18
ENDBRANCH   4  17
TORSDOF 7
ENDMDL
MODEL 3
REMARK VINA RESULT:      -7.6      1.214      1.312
REMARK  Name = 
REMARK  7 active torsions:
REMARK  status: ('A' for Active; 'I' for Inactive)
REMARK    1  A    between atoms: C_2  and  C_3
REMARK    2  A    between atoms: C_3  and  C_4
REMARK    3  A    between atoms: C_4  and  N_5
REMARK    4  A    between atoms: C_7  and  C_8
REMARK    5  A    between atoms: C_11  and  O_12
REMARK    6  A    between atoms: O_12  and  C_13
REMARK    7  A    between atoms: C_13  and  C_14
REMARK                            x       y       z     vdW  Elec       q    Type
REMARK                         _______ _______ _______ _____ _____    ______ ____
ROOT
ATOM      1  C   UNL     1       5.578   5.760  18.068  0.00  0.00    +0.000 A 
ATOM      2  C   UNL     1       5.438   6.899  17.274  0.00  0.00    +0.000 A 
ATOM      3  C   UNL     1       6.480   7.843  17.204  0.00  0.00    +0.000 A 
ATOM      4  C   UNL     1       7.665   7.679  17.931  0.00  0.00    +0.000 A 
ATOM      5  C   UNL     1       7.820   6.536  18.707  0.00  0.00    +0.000 A 
ATOM      6  C   UNL     1       6.784   5.581  18.773  0.00  0.00    +0.000 A 
ENDROOT
BRANCH   1   9
ATOM      7  N   UNL     1       2.737   3.633  18.427  0.00  0.00    +0.000 N 
ATOM      8  N   UNL     1       3.201   4.932  18.393  0.00  0.00    +0.000 NA
ATOM      9  C   UNL     1       4.477   4.770  18.170  0.00  0.00    +0.000 A 
ATOM     10  O   UNL     1       4.886   3.490  17.994  0.00  0.00    +0.000 OA
ATOM     11  C   UNL     1       3.754   2.752  18.117  0.00  0.00    +0.000 A 
ATOM     12  O   UNL     1       3.684   1.548  17.942  0.00  0.00    +0.000 OA
BRANCH   7  13
ATOM     13  C   UNL     1       1.350   3.206  18.428  0.00  0.00    +0.000 C 
BRANCH  13  14
ATOM     14  C   UNL     1       0.788   2.445  19.620  0.00  0.00    +0.000 C 
BRANCH  14  16
ATOM     15  N   UNL     1       1.973   3.054  22.061  0.00  0.00    +0.000 NA
ATOM     16  C   UNL     1       1.435   2.778  20.953  0.00  0.00    +0.000 C 
ENDBRANCH  14  16
ENDBRANCH  13  14
ENDBRANCH   7  13
ENDBRANCH   1   9
BRANCH   4  17
ATOM     17  O   UNL     1       8.602   8.664  17.757  0.00  0.00    +0.000 OA
BRANCH  17  18
ATOM     18  C   UNL     1       8.944   9.466  18.895  0.00  0.00    +0.000 C 
BRANCH  18  19
ATOM     19  C   UNL     1       9.471  10.825  18.454  0.00  0.00    +0.000 A 
ATOM     20  C   UNL     1       8.613  11.756  17.841  0.00  0.00    +0.000 A 
ATOM     21  C   UNL     1       9.080  13.025  17.476  0.00  0.00    +0.000 A 
ATOM     22  C   UNL     1      10.405  13.378  17.727  0.00  0.00    +0.000 A 
ATOM     23 CL   UNL     1      10.979  14.936  17.274  0.00  0.00    +0.000 Cl
ATOM     24  C   UNL     1      11.263  12.476  18.348  0.00  0.00    +0.000 A 
ATOM     25  C   UNL     1      10.797  11.209  18.716  0.00  0.00    +0.000 A 
ENDBRANCH  18  19
ENDBRANCH  17  18
ENDBRANCH   4  17
TORSDOF 7
ENDMDL
MODEL 4
REMARK VINA RESULT:      -7.6      1.036      1.120
REMARK  Name = 
REMARK  7 active torsions:
REMARK  status: ('A' for Active; 'I' for Inactive)
REMARK    1  A    between atoms: C_2  and  C_3
REMARK    2  A    between atoms: C_3  and  C_4
REMARK    3  A    between atoms: C_4  and  N_5
REMARK    4  A    between atoms: C_7  and  C_8
REMARK    5  A    between atoms: C_11  and  O_12
REMARK    6  A    between atoms: O_12  and  C_13
REMARK    7  A    between atoms: C_13  and  C_14
REMARK                            x       y       z     vdW  Elec       q    Type
REMARK                         _______ _______ _______ _____ _____    ______ ____
ROOT
ATOM      1  C   UNL     1       5.786   5.664  18.117  0.00  0.00    +0.000 A 
ATOM      2  C   UNL     1       5.557   6.754  17.276  0.00  0.00    +0.000 A 
ATOM      3  C   UNL     1       6.519   7.775  17.166  0.00  0.00    +0.000 A 
ATOM      4  C   UNL     1       7.711   7.739  17.900  0.00  0.00    +0.000 A 
ATOM      5  C   UNL     1       7.955   6.647  18.724  0.00  0.00    +0.000 A 
ATOM      6  C   UNL     1       6.999   5.614  18.830  0.00  0.00    +0.000 A 
ENDROOT
BRANCH   1   9
ATOM      7  N   UNL     1       3.512   2.986  18.732  0.00  0.00    +0.000 N 
ATOM      8  N   UNL     1       4.548   3.749  19.231  0.00  0.00    +0.000 NA
ATOM      9  C   UNL     1       4.768   4.594  18.260  0.00  0.00    +0.000 A 
ATOM     10  O   UNL     1       3.936   4.497  17.195  0.00  0.00    +0.000 OA
ATOM     11  C   UNL     1       3.092   3.484  17.515  0.00  0.00    +0.000 A 
ATOM     12  O   UNL     1       2.135   3.136  16.845  0.00  0.00    +0.000 OA
BRANCH   7  13
ATOM     13  C   UNL     1       2.708   2.026  19.467  0.00  0.00    +0.000 C 
BRANCH  13  14
ATOM     14  C   UNL     1       1.537   2.501  20.313  0.00  0.00    +0.000 C 
BRANCH  14  16
ATOM     15  N   UNL     1       1.424   5.251  20.712  0.00  0.00    +0.000 NA
ATOM     16  C   UNL     1       1.475   4.004  20.531  0.00  0.00    +0.000 C 
ENDBRANCH  14  16
ENDBRANCH  13  14
ENDBRANCH   7  13
ENDBRANCH   1   9
BRANCH   4  17
ATOM     17  O   UNL     1       8.566   8.789  17.685  0.00  0.00    +0.000 OA
BRANCH  17  18
ATOM     18  C   UNL     1       8.958   9.571  18.821  0.00  0.00    +0.000 C 
BRANCH  18  19
ATOM     19  C   UNL     1       9.519  10.916  18.377  0.00  0.00    +0.000 A 
ATOM     20  C   UNL     1       8.666  11.910  17.866  0.00  0.00    +0.000 A 
ATOM     21  C   UNL     1       9.169  13.165  17.501  0.00  0.00    +0.000 A 
ATOM     22  C   UNL     1      10.527  13.439  17.650  0.00  0.00    +0.000 A 
ATOM     23 CL   UNL     1      11.147  14.980  17.196  0.00  0.00    +0.000 Cl
ATOM     24  C   UNL     1      11.383  12.473  18.168  0.00  0.00    +0.000 A 
ATOM     25  C   UNL     1      10.882  11.221  18.537  0.00  0.00    +0.000 A 
ENDBRANCH  18  19
ENDBRANCH  17  18
ENDBRANCH   4  17
TORSDOF 7
ENDMDL
MODEL 5
REMARK VINA RESULT:      -7.6      1.536      1.991
REMARK  Name = 
REMARK  7 active torsions:
REMARK  status: ('A' for Active; 'I' for Inactive)
REMARK    1  A    between atoms: C_2  and  C_3
REMARK    2  A    between atoms: C_3  and  C_4
REMARK    3  A    between atoms: C_4  and  N_5
REMARK    4  A    between atoms: C_7  and  C_8
REMARK    5  A    between atoms: C_11  and  O_12
REMARK    6  A    between atoms: O_12  and  C_13
REMARK    7  A    between atoms: C_13  and  C_14
REMARK                            x       y       z     vdW  Elec       q    Type
REMARK                         _______ _______ _______ _____ _____    ______ ____
ROOT
ATOM      1  C   UNL     1       6.109   5.761  18.265  0.00  0.00    +0.000 A 
ATOM      2  C   UNL     1       7.292   5.869  18.997  0.00  0.00    +0.000 A 
ATOM      3  C   UNL     1       8.136   6.981  18.816  0.00  0.00    +0.000 A 
ATOM      4  C   UNL     1       7.828   7.990  17.895  0.00  0.00    +0.000 A 
ATOM      5  C   UNL     1       6.641   7.899  17.177  0.00  0.00    +0.000 A 
ATOM      6  C   UNL     1       5.785   6.792  17.363  0.00  0.00    +0.000 A 
ENDROOT
BRANCH   1   9
ATOM      7  N   UNL     1       3.770   3.074  18.443  0.00  0.00    +0.000 N 
ATOM      8  N   UNL     1       4.163   4.210  17.766  0.00  0.00    +0.000 NA
ATOM      9  C   UNL     1       5.224   4.581  18.430  0.00  0.00    +0.000 A 
ATOM     10  O   UNL     1       5.601   3.763  19.442  0.00  0.00    +0.000 OA
ATOM     11  C   UNL     1       4.687   2.761  19.428  0.00  0.00    +0.000 A 
ATOM     12  O   UNL     1       4.724   1.772  20.139  0.00  0.00    +0.000 OA
BRANCH   7  13
ATOM     13  C   UNL     1       2.768   2.113  18.020  0.00  0.00    +0.000 C 
BRANCH  13  14
ATOM     14  C   UNL     1       1.431   2.037  18.742  0.00  0.00    +0.000 C 
BRANCH  14  16
ATOM     15  N   UNL     1       0.870   4.202  20.395  0.00  0.00    +0.000 NA
ATOM     16  C   UNL     1       1.125   3.220  19.645  0.00  0.00    +0.000 C 
ENDBRANCH  14  16
ENDBRANCH  13  14
ENDBRANCH   7  13
ENDBRANCH   1   9
BRANCH   4  17
ATOM     17  O   UNL     1       8.727   9.022  17.831  0.00  0.00    +0.000 OA
BRANCH  17  18
ATOM     18  C   UNL     1       9.066   9.685  19.056  0.00  0.00    +0.000 C 
BRANCH  18  19
ATOM     19  C   UNL     1       9.624  11.075  18.777  0.00  0.00    +0.000 A 
ATOM     20  C   UNL     1       9.395  12.128  19.681  0.00  0.00    +0.000 A 
ATOM     21  C   UNL     1       9.944  13.396  19.454  0.00  0.00    +0.000 A 
ATOM     22  C   UNL     1      10.732  13.621  18.326  0.00  0.00    +0.000 A 
ATOM     23 CL   UNL     1      11.403  15.181  18.045  0.00  0.00    +0.000 Cl
ATOM     24  C   UNL     1      10.981  12.587  17.430  0.00  0.00    +0.000 A 
ATOM     25  C   UNL     1      10.437  11.319  17.657  0.00  0.00    +0.000 A 
ENDBRANCH  18  19
ENDBRANCH  17  18
ENDBRANCH   4  17
TORSDOF 7
ENDMDL
MODEL 6
REMARK VINA RESULT:      -7.5      6.490      8.520
REMARK  Name = 
REMARK  7 active torsions:
REMARK  status: ('A' for Active; 'I' for Inactive)
REMARK    1  A    between atoms: C_2  and  C_3
REMARK    2  A    between atoms: C_3  and  C_4
REMARK    3  A    between atoms: C_4  and  N_5
REMARK    4  A    between atoms: C_7  and  C_8
REMARK    5  A    between atoms: C_11  and  O_12
REMARK    6  A    between atoms: O_12  and  C_13
REMARK    7  A    between atoms: C_13  and  C_14
REMARK                            x       y       z     vdW  Elec       q    Type
REMARK                         _______ _______ _______ _____ _____    ______ ____
ROOT
ATOM      1  C   UNL     1       3.685   6.486  18.162  0.00  0.00    +0.000 A 
ATOM      2  C   UNL     1       3.266   7.684  17.582  0.00  0.00    +0.000 A 
ATOM      3  C   UNL     1       2.322   8.494  18.240  0.00  0.00    +0.000 A 
ATOM      4  C   UNL     1       1.768   8.120  19.470  0.00  0.00    +0.000 A 
ATOM      5  C   UNL     1       2.196   6.938  20.063  0.00  0.00    +0.000 A 
ATOM      6  C   UNL     1       3.151   6.127  19.414  0.00  0.00    +0.000 A 
ENDROOT
BRANCH   1   9
ATOM      7  N   UNL     1       5.772   4.263  16.309  0.00  0.00    +0.000 N 
ATOM      8  N   UNL     1       4.533   4.864  16.402  0.00  0.00    +0.000 NA
ATOM      9  C   UNL     1       4.661   5.611  17.466  0.00  0.00    +0.000 A 
ATOM     10  O   UNL     1       5.886   5.603  18.046  0.00  0.00    +0.000 OA
ATOM     11  C   UNL     1       6.622   4.765  17.274  0.00  0.00    +0.000 A 
ATOM     12  O   UNL     1       7.814   4.551  17.417  0.00  0.00    +0.000 OA
BRANCH   7  13
ATOM     13  C   UNL     1       6.280   3.491  15.190  0.00  0.00    +0.000 C 
BRANCH  13  14
ATOM     14  C   UNL     1       6.292   4.090  13.792  0.00  0.00    +0.000 C 
BRANCH  14  16
ATOM     15  N   UNL     1       8.429   5.790  13.267  0.00  0.00    +0.000 NA
ATOM     16  C   UNL     1       7.459   5.019  13.505  0.00  0.00    +0.000 C 
ENDBRANCH  14  16
ENDBRANCH  13  14
ENDBRANCH   7  13
ENDBRANCH   1   9
BRANCH   4  17
ATOM     17  O   UNL     1       0.874   9.010  20.007  0.00  0.00    +0.000 OA
BRANCH  17  18
ATOM     18  C   UNL     1       0.807  10.318  19.425  0.00  0.00    +0.000 C 
BRANCH  18  19
ATOM     19  C   UNL     1      -0.581  10.581  18.855  0.00  0.00    +0.000 A 
ATOM     20  C   UNL     1      -1.423  11.542  19.444  0.00  0.00    +0.000 A 
ATOM     21  C   UNL     1      -2.680  11.821  18.897  0.00  0.00    +0.000 A 
ATOM     22  C   UNL     1      -3.106  11.149  17.752  0.00  0.00    +0.000 A 
ATOM     23 CL   UNL     1      -4.655  11.489  17.082  0.00  0.00    +0.000 Cl
ATOM     24  C   UNL     1      -2.280  10.207  17.147  0.00  0.00    +0.000 A 
ATOM     25  C   UNL     1      -1.022   9.930  17.690  0.00  0.00    +0.000 A 
ENDBRANCH  18  19
ENDBRANCH  17  18
ENDBRANCH   4  17
TORSDOF 7
ENDMDL
MODEL 7
REMARK VINA RESULT:      -7.5      7.183      9.021
REMARK  Name = 
REMARK  7 active torsions:
REMARK  status: ('A' for Active; 'I' for Inactive)
REMARK    1  A    between atoms: C_2  and  C_3
REMARK    2  A    between atoms: C_3  and  C_4
REMARK    3  A    between atoms: C_4  and  N_5
REMARK    4  A    between atoms: C_7  and  C_8
REMARK    5  A    between atoms: C_11  and  O_12
REMARK    6  A    between atoms: O_12  and  C_13
REMARK    7  A    between atoms: C_13  and  C_14
REMARK                            x       y       z     vdW  Elec       q    Type
REMARK                         _______ _______ _______ _____ _____    ______ ____
ROOT
ATOM      1  C   UNL     1       2.466   7.310  19.041  0.00  0.00    +0.000 A 
ATOM      2  C   UNL     1       2.206   8.379  18.183  0.00  0.00    +0.000 A 
ATOM      3  C   UNL     1       1.404   9.452  18.616  0.00  0.00    +0.000 A 
ATOM      4  C   UNL     1       0.836   9.470  19.896  0.00  0.00    +0.000 A 
ATOM      5  C   UNL     1       1.108   8.418  20.762  0.00  0.00    +0.000 A 
ATOM      6  C   UNL     1       1.920   7.345  20.338  0.00  0.00    +0.000 A 
ENDROOT
BRANCH   1   9
ATOM      7  N   UNL     1       4.248   4.536  17.677  0.00  0.00    +0.000 N 
ATOM      8  N   UNL     1       3.329   5.538  17.441  0.00  0.00    +0.000 NA
ATOM      9  C   UNL     1       3.290   6.161  18.588  0.00  0.00    +0.000 A 
ATOM     10  O   UNL     1       4.140   5.701  19.537  0.00  0.00    +0.000 OA
ATOM     11  C   UNL     1       4.795   4.675  18.938  0.00  0.00    +0.000 A 
ATOM     12  O   UNL     1       5.711   4.045  19.438  0.00  0.00    +0.000 OA
BRANCH   7  13
ATOM     13  C   UNL     1       4.853   3.662  16.690  0.00  0.00    +0.000 C 
BRANCH  13  14
ATOM     14  C   UNL     1       5.419   4.242  15.402  0.00  0.00    +0.000 C 
BRANCH  14  16
ATOM     15  N   UNL     1       7.572   5.969  15.745  0.00  0.00    +0.000 NA
ATOM     16  C   UNL     1       6.595   5.186  15.590  0.00  0.00    +0.000 C 
ENDBRANCH  14  16
ENDBRANCH  13  14
ENDBRANCH   7  13
ENDBRANCH   1   9
BRANCH   4  17
ATOM     17  O   UNL     1       0.091  10.582  20.193  0.00  0.00    +0.000 OA
BRANCH  17  18
ATOM     18  C   UNL     1      -0.258  11.457  19.111  0.00  0.00    +0.000 C 
BRANCH  18  19
ATOM     19  C   UNL     1      -1.745  11.351  18.796  0.00  0.00    +0.000 A 
ATOM     20  C   UNL     1      -2.227  10.318  17.973  0.00  0.00    +0.000 A 
ATOM     21  C   UNL     1      -3.597  10.188  17.718  0.00  0.00    +0.000 A 
ATOM     22  C   UNL     1      -4.499  11.084  18.289  0.00  0.00    +0.000 A 
ATOM     23 CL   UNL     1      -6.184  10.927  17.971  0.00  0.00    +0.000 Cl
ATOM     24  C   UNL     1      -4.042  12.102  19.119  0.00  0.00    +0.000 A 
ATOM     25  C   UNL     1      -2.674  12.231  19.378  0.00  0.00    +0.000 A 
ENDBRANCH  18  19
ENDBRANCH  17  18
ENDBRANCH   4  17
TORSDOF 7
ENDMDL
MODEL 8
REMARK VINA RESULT:      -7.5      1.113      1.489
REMARK  Name = 
REMARK  7 active torsions:
REMARK  status: ('A' for Active; 'I' for Inactive)
REMARK    1  A    between atoms: C_2  and  C_3
REMARK    2  A    between atoms: C_3  and  C_4
REMARK    3  A    between atoms: C_4  and  N_5
REMARK    4  A    between atoms: C_7  and  C_8
REMARK    5  A    between atoms: C_11  and  O_12
REMARK    6  A    between atoms: O_12  and  C_13
REMARK    7  A    between atoms: C_13  and  C_14
REMARK                            x       y       z     vdW  Elec       q    Type
REMARK                         _______ _______ _______ _____ _____    ______ ____
ROOT
ATOM      1  C   UNL     1       5.661   5.533  18.281  0.00  0.00    +0.000 A 
ATOM      2  C   UNL     1       5.485   6.668  17.487  0.00  0.00    +0.000 A 
ATOM      3  C   UNL     1       6.501   7.638  17.408  0.00  0.00    +0.000 A 
ATOM      4  C   UNL     1       7.695   7.507  18.128  0.00  0.00    +0.000 A 
ATOM      5  C   UNL     1       7.885   6.370  18.904  0.00  0.00    +0.000 A 
ATOM      6  C   UNL     1       6.875   5.388  18.978  0.00  0.00    +0.000 A 
ENDROOT
BRANCH   1   9
ATOM      7  N   UNL     1       2.860   3.343  18.568  0.00  0.00    +0.000 N 
ATOM      8  N   UNL     1       3.287   4.635  18.342  0.00  0.00    +0.000 NA
ATOM      9  C   UNL     1       4.586   4.515  18.392  0.00  0.00    +0.000 A 
ATOM     10  O   UNL     1       5.055   3.256  18.569  0.00  0.00    +0.000 OA
ATOM     11  C   UNL     1       3.940   2.486  18.641  0.00  0.00    +0.000 A 
ATOM     12  O   UNL     1       3.937   1.269  18.717  0.00  0.00    +0.000 OA
BRANCH   7  13
ATOM     13  C   UNL     1       1.509   2.834  18.411  0.00  0.00    +0.000 C 
BRANCH  13  14
ATOM     14  C   UNL     1       0.607   2.679  19.626  0.00  0.00    +0.000 C 
BRANCH  14  16
ATOM     15  N   UNL     1       1.891   2.950  22.078  0.00  0.00    +0.000 NA
ATOM     16  C   UNL     1       1.308   2.827  20.965  0.00  0.00    +0.000 C 
ENDBRANCH  14  16
ENDBRANCH  13  14
ENDBRANCH   7  13
ENDBRANCH   1   9
BRANCH   4  17
ATOM     17  O   UNL     1       8.605   8.516  17.946  0.00  0.00    +0.000 OA
BRANCH  17  18
ATOM     18  C   UNL     1       8.097   9.844  17.763  0.00  0.00    +0.000 C 
BRANCH  18  19
ATOM     19  C   UNL     1       9.083  10.874  18.300  0.00  0.00    +0.000 A 
ATOM     20  C   UNL     1       9.823  10.609  19.466  0.00  0.00    +0.000 A 
ATOM     21  C   UNL     1      10.765  11.530  19.939  0.00  0.00    +0.000 A 
ATOM     22  C   UNL     1      10.981  12.721  19.247  0.00  0.00    +0.000 A 
ATOM     23 CL   UNL     1      12.136  13.857  19.832  0.00  0.00    +0.000 Cl
ATOM     24  C   UNL     1      10.269  12.992  18.083  0.00  0.00    +0.000 A 
ATOM     25  C   UNL     1       9.331  12.071  17.607  0.00  0.00    +0.000 A 
ENDBRANCH  18  19
ENDBRANCH  17  18
ENDBRANCH   4  17
TORSDOF 7
ENDMDL
MODEL 9
REMARK VINA RESULT:      -7.5      7.155      8.981
REMARK  Name = 
REMARK  7 active torsions:
REMARK  status: ('A' for Active; 'I' for Inactive)
REMARK    1  A    between atoms: C_2  and  C_3
REMARK    2  A    between atoms: C_3  and  C_4
REMARK    3  A    between atoms: C_4  and  N_5
REMARK    4  A    between atoms: C_7  and  C_8
REMARK    5  A    between atoms: C_11  and  O_12
REMARK    6  A    between atoms: O_12  and  C_13
REMARK    7  A    between atoms: C_13  and  C_14
REMARK                            x       y       z     vdW  Elec       q    Type
REMARK                         _______ _______ _______ _____ _____    ______ ____
ROOT
ATOM      1  C   UNL     1       2.525   7.283  18.781  0.00  0.00    +0.000 A 
ATOM      2  C   UNL     1       2.038   7.443  20.079  0.00  0.00    +0.000 A 
ATOM      3  C   UNL     1       1.281   8.581  20.413  0.00  0.00    +0.000 A 
ATOM      4  C   UNL     1       1.011   9.582  19.472  0.00  0.00    +0.000 A 
ATOM      5  C   UNL     1       1.475   9.419  18.173  0.00  0.00    +0.000 A 
ATOM      6  C   UNL     1       2.226   8.275  17.828  0.00  0.00    +0.000 A 
ENDROOT
BRANCH   1   9
ATOM      7  N   UNL     1       4.312   4.414  17.638  0.00  0.00    +0.000 N 
ATOM      8  N   UNL     1       3.424   5.419  17.311  0.00  0.00    +0.000 NA
ATOM      9  C   UNL     1       3.346   6.099  18.423  0.00  0.00    +0.000 A 
ATOM     10  O   UNL     1       4.143   5.672  19.432  0.00  0.00    +0.000 OA
ATOM     11  C   UNL     1       4.804   4.606  18.915  0.00  0.00    +0.000 A 
ATOM     12  O   UNL     1       5.684   3.986  19.486  0.00  0.00    +0.000 OA
BRANCH   7  13
ATOM     13  C   UNL     1       4.943   3.481  16.724  0.00  0.00    +0.000 C 
BRANCH  13  14
ATOM     14  C   UNL     1       5.677   3.997  15.495  0.00  0.00    +0.000 C 
BRANCH  14  16
ATOM     15  N   UNL     1       7.562   5.977  16.003  0.00  0.00    +0.000 NA
ATOM     16  C   UNL     1       6.707   5.079  15.773  0.00  0.00    +0.000 C 
ENDBRANCH  14  16
ENDBRANCH  13  14
ENDBRANCH   7  13
ENDBRANCH   1   9
BRANCH   4  17
ATOM     17  O   UNL     1       0.248  10.626  19.927  0.00  0.00    +0.000 OA
BRANCH  17  18
ATOM     18  C   UNL     1      -0.196  11.594  18.967  0.00  0.00    +0.000 C 
BRANCH  18  19
ATOM     19  C   UNL     1      -1.691  11.451  18.715  0.00  0.00    +0.000 A 
ATOM     20  C   UNL     1      -2.616  12.177  19.487  0.00  0.00    +0.000 A 
ATOM     21  C   UNL     1      -3.989  12.087  19.229  0.00  0.00    +0.000 A 
ATOM     22  C   UNL     1      -4.450  11.276  18.193  0.00  0.00    +0.000 A 
ATOM     23 CL   UNL     1      -6.139  11.161  17.880  0.00  0.00    +0.000 Cl
ATOM     24  C   UNL     1      -3.549  10.563  17.409  0.00  0.00    +0.000 A 
ATOM     25  C   UNL     1      -2.177  10.655  17.663  0.00  0.00    +0.000 A 
ENDBRANCH  18  19
ENDBRANCH  17  18
ENDBRANCH   4  17
TORSDOF 7
ENDMDL
