MODEL 1
REMARK VINA RESULT:      -7.8      0.000      0.000
REMARK  Name = 
REMARK  4 active torsions:
REMARK  status: ('A' for Active; 'I' for Inactive)
REMARK    1  A    between atoms: N_8  and  C_9
REMARK    2  A    between atoms: C_11  and  C_12
REMARK    3  A    between atoms: C_12  and  O_13
REMARK    4  A    between atoms: C_14  and  O_15
REMARK                            x       y       z     vdW  Elec       q    Type
REMARK                         _______ _______ _______ _____ _____    ______ ____
ROOT
ATOM      1  N   UNL     1       1.830   7.015  20.816  0.00  0.00    +0.000 N 
ATOM      2  C   UNL     1       2.311   5.793  20.482  0.00  0.00    +0.000 A 
ATOM      3  N   UNL     1       2.962   5.631  19.362  0.00  0.00    +0.000 NA
ATOM      4  C   UNL     1       3.367   4.351  19.152  0.00  0.00    +0.000 A 
ATOM      5  C   UNL     1       3.181   3.257  19.956  0.00  0.00    +0.000 A 
ATOM      6  N   UNL     1       3.702   2.123  19.382  0.00  0.00    +0.000 NA
ATOM      7  C   UNL     1       4.180   2.529  18.220  0.00  0.00    +0.000 A 
ATOM      8  N   UNL     1       4.046   3.882  18.057  0.00  0.00    +0.000 N 
ATOM      9  C   UNL     1       2.478   3.454  21.206  0.00  0.00    +0.000 A 
ATOM     10  O   UNL     1       2.234   2.589  22.041  0.00  0.00    +0.000 OA
ATOM     11  N   UNL     1       2.080   4.775  21.385  0.00  0.00    +0.000 N 
ATOM     12  H   UNL     1       2.232   7.768  20.266  0.00  0.00    +0.000 HD
ATOM     13  H   UNL     1       1.719   7.242  21.794  0.00  0.00    +0.000 HD
ATOM     14  H   UNL     1       1.554   4.954  22.223  0.00  0.00    +0.000 HD
ENDROOT
BRANCH   8  15
ATOM     15  C   UNL     1       4.476   4.701  16.937  0.00  0.00    +0.000 C 
ATOM     16  O   UNL     1       4.559   3.953  15.703  0.00  0.00    +0.000 OA
ATOM     17  C   UNL     1       5.411   4.732  14.796  0.00  0.00    +0.000 C 
ATOM     18  C   UNL     1       5.948   5.937  15.607  0.00  0.00    +0.000 C 
ATOM     19  C   UNL     1       5.832   5.382  17.023  0.00  0.00    +0.000 C 
ATOM     20  C   UNL     1       7.097   4.625  17.496  0.00  0.00    +0.000 C 
ATOM     21  C   UNL     1       6.857   5.372  18.805  0.00  0.00    +0.000 C 
ATOM     22  O   UNL     1       5.997   6.332  18.116  0.00  0.00    +0.000 OA
BRANCH  18  23
ATOM     23  O   UNL     1       5.117   7.092  15.420  0.00  0.00    +0.000 OA
ATOM     24  H   UNL     1       5.598   7.783  14.931  0.00  0.00    +0.000 HD
ENDBRANCH  18  23
BRANCH  17  25
ATOM     25  C   UNL     1       6.561   3.869  14.254  0.00  0.00    +0.000 C 
BRANCH  25  26
ATOM     26  O   UNL     1       6.163   3.196  13.065  0.00  0.00    +0.000 OA
ATOM     27  H   UNL     1       6.965   2.917  12.592  0.00  0.00    +0.000 HD
ENDBRANCH  25  26
ENDBRANCH  17  25
ENDBRANCH   8  15
TORSDOF 4
ENDMDL
MODEL 2
REMARK VINA RESULT:      -7.7      2.445      5.678
REMARK  Name = 
REMARK  4 active torsions:
REMARK  status: ('A' for Active; 'I' for Inactive)
REMARK    1  A    between atoms: N_8  and  C_9
REMARK    2  A    between atoms: C_11  and  C_12
REMARK    3  A    between atoms: C_12  and  O_13
REMARK    4  A    between atoms: C_14  and  O_15
REMARK                            x       y       z     vdW  Elec       q    Type
REMARK                         _______ _______ _______ _____ _____    ______ ____
ROOT
ATOM      1  N   UNL     1       8.304   5.571  20.075  0.00  0.00    +0.000 N 
ATOM      2  C   UNL     1       7.465   5.265  19.056  0.00  0.00    +0.000 A 
ATOM      3  N   UNL     1       6.303   4.725  19.307  0.00  0.00    +0.000 NA
ATOM      4  C   UNL     1       5.578   4.455  18.191  0.00  0.00    +0.000 A 
ATOM      5  C   UNL     1       5.916   4.683  16.882  0.00  0.00    +0.000 A 
ATOM      6  N   UNL     1       4.935   4.236  16.030  0.00  0.00    +0.000 NA
ATOM      7  C   UNL     1       4.018   3.715  16.823  0.00  0.00    +0.000 A 
ATOM      8  N   UNL     1       4.339   3.870  18.146  0.00  0.00    +0.000 N 
ATOM      9  C   UNL     1       7.198   5.302  16.617  0.00  0.00    +0.000 A 
ATOM     10  O   UNL     1       7.649   5.582  15.511  0.00  0.00    +0.000 OA
ATOM     11  N   UNL     1       7.908   5.563  17.784  0.00  0.00    +0.000 N 
ATOM     12  H   UNL     1       7.849   5.575  20.982  0.00  0.00    +0.000 HD
ATOM     13  H   UNL     1       8.964   6.327  19.949  0.00  0.00    +0.000 HD
ATOM     14  H   UNL     1       8.822   5.960  17.649  0.00  0.00    +0.000 HD
ENDROOT
BRANCH   8  15
ATOM     15  C   UNL     1       3.573   3.465  19.311  0.00  0.00    +0.000 C 
ATOM     16  O   UNL     1       2.736   2.316  19.053  0.00  0.00    +0.000 OA
ATOM     17  C   UNL     1       1.714   2.294  20.107  0.00  0.00    +0.000 C 
ATOM     18  C   UNL     1       1.907   3.580  20.947  0.00  0.00    +0.000 C 
ATOM     19  C   UNL     1       2.609   4.468  19.923  0.00  0.00    +0.000 C 
ATOM     20  C   UNL     1       1.634   5.299  19.053  0.00  0.00    +0.000 C 
ATOM     21  C   UNL     1       2.642   6.421  19.284  0.00  0.00    +0.000 C 
ATOM     22  O   UNL     1       3.206   5.699  20.423  0.00  0.00    +0.000 OA
BRANCH  18  23
ATOM     23  O   UNL     1       2.738   3.327  22.089  0.00  0.00    +0.000 OA
ATOM     24  H   UNL     1       3.669   3.518  21.882  0.00  0.00    +0.000 HD
ENDBRANCH  18  23
BRANCH  17  25
ATOM     25  C   UNL     1       0.305   2.232  19.498  0.00  0.00    +0.000 C 
BRANCH  25  26
ATOM     26  O   UNL     1       0.367   1.822  18.137  0.00  0.00    +0.000 OA
ATOM     27  H   UNL     1       0.965   2.427  17.666  0.00  0.00    +0.000 HD
ENDBRANCH  25  26
ENDBRANCH  17  25
ENDBRANCH   8  15
TORSDOF 4
ENDMDL
MODEL 3
REMARK VINA RESULT:      -7.5      2.552      5.784
REMARK  Name = 
REMARK  4 active torsions:
REMARK  status: ('A' for Active; 'I' for Inactive)
REMARK    1  A    between atoms: N_8  and  C_9
REMARK    2  A    between atoms: C_11  and  C_12
REMARK    3  A    between atoms: C_12  and  O_13
REMARK    4  A    between atoms: C_14  and  O_15
REMARK                            x       y       z     vdW  Elec       q    Type
REMARK                         _______ _______ _______ _____ _____    ______ ____
ROOT
ATOM      1  N   UNL     1       8.555   5.320  20.719  0.00  0.00    +0.000 N 
ATOM      2  C   UNL     1       7.678   5.490  19.700  0.00  0.00    +0.000 A 
ATOM      3  N   UNL     1       6.518   4.892  19.731  0.00  0.00    +0.000 NA
ATOM      4  C   UNL     1       5.752   5.139  18.636  0.00  0.00    +0.000 A 
ATOM      5  C   UNL     1       6.049   5.919  17.549  0.00  0.00    +0.000 A 
ATOM      6  N   UNL     1       5.034   5.890  16.623  0.00  0.00    +0.000 NA
ATOM      7  C   UNL     1       4.137   5.072  17.140  0.00  0.00    +0.000 A 
ATOM      8  N   UNL     1       4.504   4.630  18.384  0.00  0.00    +0.000 N 
ATOM      9  C   UNL     1       7.330   6.595  17.537  0.00  0.00    +0.000 A 
ATOM     10  O   UNL     1       7.747   7.334  16.651  0.00  0.00    +0.000 OA
ATOM     11  N   UNL     1       8.083   6.319  18.673  0.00  0.00    +0.000 N 
ATOM     12  H   UNL     1       8.131   4.923  21.551  0.00  0.00    +0.000 HD
ATOM     13  H   UNL     1       9.220   6.055  20.914  0.00  0.00    +0.000 HD
ATOM     14  H   UNL     1       8.997   6.736  18.693  0.00  0.00    +0.000 HD
ENDROOT
BRANCH   8  15
ATOM     15  C   UNL     1       3.773   3.752  19.280  0.00  0.00    +0.000 C 
ATOM     16  O   UNL     1       3.202   2.613  18.596  0.00  0.00    +0.000 OA
ATOM     17  C   UNL     1       2.149   2.082  19.471  0.00  0.00    +0.000 C 
ATOM     18  C   UNL     1       2.028   3.054  20.670  0.00  0.00    +0.000 C 
ATOM     19  C   UNL     1       2.592   4.326  20.045  0.00  0.00    +0.000 C 
ATOM     20  C   UNL     1       1.519   5.203  19.352  0.00  0.00    +0.000 C 
ATOM     21  C   UNL     1       2.262   6.355  20.022  0.00  0.00    +0.000 C 
ATOM     22  O   UNL     1       2.897   5.424  20.953  0.00  0.00    +0.000 OA
BRANCH  18  23
ATOM     23  O   UNL     1       2.828   2.606  21.775  0.00  0.00    +0.000 OA
ATOM     24  H   UNL     1       2.282   2.117  22.414  0.00  0.00    +0.000 HD
ENDBRANCH  18  23
BRANCH  17  25
ATOM     25  C   UNL     1       0.818   1.967  18.711  0.00  0.00    +0.000 C 
BRANCH  25  26
ATOM     26  O   UNL     1      -0.252   2.472  19.502  0.00  0.00    +0.000 OA
ATOM     27  H   UNL     1      -0.749   3.112  18.965  0.00  0.00    +0.000 HD
ENDBRANCH  25  26
ENDBRANCH  17  25
ENDBRANCH   8  15
TORSDOF 4
ENDMDL
MODEL 4
REMARK VINA RESULT:      -7.3      2.555      5.657
REMARK  Name = 
REMARK  4 active torsions:
REMARK  status: ('A' for Active; 'I' for Inactive)
REMARK    1  A    between atoms: N_8  and  C_9
REMARK    2  A    between atoms: C_11  and  C_12
REMARK    3  A    between atoms: C_12  and  O_13
REMARK    4  A    between atoms: C_14  and  O_15
REMARK                            x       y       z     vdW  Elec       q    Type
REMARK                         _______ _______ _______ _____ _____    ______ ____
ROOT
ATOM      1  N   UNL     1       8.175   6.988  18.955  0.00  0.00    +0.000 N 
ATOM      2  C   UNL     1       7.411   6.252  18.111  0.00  0.00    +0.000 A 
ATOM      3  N   UNL     1       6.321   5.681  18.547  0.00  0.00    +0.000 NA
ATOM      4  C   UNL     1       5.670   4.961  17.596  0.00  0.00    +0.000 A 
ATOM      5  C   UNL     1       6.015   4.780  16.282  0.00  0.00    +0.000 A 
ATOM      6  N   UNL     1       5.125   3.950  15.644  0.00  0.00    +0.000 NA
ATOM      7  C   UNL     1       4.259   3.610  16.580  0.00  0.00    +0.000 A 
ATOM      8  N   UNL     1       4.518   4.239  17.769  0.00  0.00    +0.000 N 
ATOM      9  C   UNL     1       7.214   5.436  15.806  0.00  0.00    +0.000 A 
ATOM     10  O   UNL     1       7.658   5.386  14.663  0.00  0.00    +0.000 OA
ATOM     11  N   UNL     1       7.851   6.163  16.806  0.00  0.00    +0.000 N 
ATOM     12  H   UNL     1       7.696   7.235  19.816  0.00  0.00    +0.000 HD
ATOM     13  H   UNL     1       8.735   7.737  18.573  0.00  0.00    +0.000 HD
ATOM     14  H   UNL     1       8.710   6.607  16.532  0.00  0.00    +0.000 HD
ENDROOT
BRANCH   8  15
ATOM     15  C   UNL     1       3.776   4.150  19.015  0.00  0.00    +0.000 C 
ATOM     16  O   UNL     1       3.130   2.868  19.186  0.00  0.00    +0.000 OA
ATOM     17  C   UNL     1       2.083   3.057  20.198  0.00  0.00    +0.000 C 
ATOM     18  C   UNL     1       2.049   4.568  20.533  0.00  0.00    +0.000 C 
ATOM     19  C   UNL     1       2.650   5.142  19.253  0.00  0.00    +0.000 C 
ATOM     20  C   UNL     1       1.597   5.459  18.163  0.00  0.00    +0.000 C 
ATOM     21  C   UNL     1       2.416   6.733  17.973  0.00  0.00    +0.000 C 
ATOM     22  O   UNL     1       3.036   6.547  19.283  0.00  0.00    +0.000 OA
BRANCH  18  23
ATOM     23  O   UNL     1       2.863   4.858  21.679  0.00  0.00    +0.000 OA
ATOM     24  H   UNL     1       2.470   4.475  22.482  0.00  0.00    +0.000 HD
ENDBRANCH  18  23
BRANCH  17  25
ATOM     25  C   UNL     1       0.724   2.572  19.670  0.00  0.00    +0.000 C 
BRANCH  25  26
ATOM     26  O   UNL     1       0.896   1.782  18.499  0.00  0.00    +0.000 OA
ATOM     27  H   UNL     1       0.033   1.704  18.058  0.00  0.00    +0.000 HD
ENDBRANCH  25  26
ENDBRANCH  17  25
ENDBRANCH   8  15
TORSDOF 4
ENDMDL
MODEL 5
REMARK VINA RESULT:      -6.9      2.103      4.020
REMARK  Name = 
REMARK  4 active torsions:
REMARK  status: ('A' for Active; 'I' for Inactive)
REMARK    1  A    between atoms: N_8  and  C_9
REMARK    2  A    between atoms: C_11  and  C_12
REMARK    3  A    between atoms: C_12  and  O_13
REMARK    4  A    between atoms: C_14  and  O_15
REMARK                            x       y       z     vdW  Elec       q    Type
REMARK                         _______ _______ _______ _____ _____    ______ ____
ROOT
ATOM      1  N   UNL     1       3.615   0.143  18.954  0.00  0.00    +0.000 N 
ATOM      2  C   UNL     1       3.196   1.410  18.720  0.00  0.00    +0.000 A 
ATOM      3  N   UNL     1       4.069   2.361  18.524  0.00  0.00    +0.000 NA
ATOM      4  C   UNL     1       3.506   3.580  18.321  0.00  0.00    +0.000 A 
ATOM      5  C   UNL     1       2.176   3.909  18.295  0.00  0.00    +0.000 A 
ATOM      6  N   UNL     1       2.000   5.257  18.101  0.00  0.00    +0.000 NA
ATOM      7  C   UNL     1       3.224   5.746  18.036  0.00  0.00    +0.000 A 
ATOM      8  N   UNL     1       4.172   4.760  18.113  0.00  0.00    +0.000 N 
ATOM      9  C   UNL     1       1.216   2.842  18.491  0.00  0.00    +0.000 A 
ATOM     10  O   UNL     1      -0.005   2.960  18.489  0.00  0.00    +0.000 OA
ATOM     11  N   UNL     1       1.831   1.611  18.695  0.00  0.00    +0.000 N 
ATOM     12  H   UNL     1       4.590  -0.008  18.716  0.00  0.00    +0.000 HD
ATOM     13  H   UNL     1       3.010  -0.624  18.693  0.00  0.00    +0.000 HD
ATOM     14  H   UNL     1       1.205   0.844  18.874  0.00  0.00    +0.000 HD
ENDROOT
BRANCH   8  15
ATOM     15  C   UNL     1       5.617   4.893  18.045  0.00  0.00    +0.000 C 
ATOM     16  O   UNL     1       6.083   6.157  18.570  0.00  0.00    +0.000 OA
ATOM     17  C   UNL     1       7.438   6.358  18.042  0.00  0.00    +0.000 C 
ATOM     18  C   UNL     1       7.712   5.197  17.055  0.00  0.00    +0.000 C 
ATOM     19  C   UNL     1       6.283   4.816  16.681  0.00  0.00    +0.000 C 
ATOM     20  C   UNL     1       5.735   5.594  15.460  0.00  0.00    +0.000 C 
ATOM     21  C   UNL     1       5.178   4.234  15.048  0.00  0.00    +0.000 C 
ATOM     22  O   UNL     1       6.106   3.564  15.958  0.00  0.00    +0.000 OA
BRANCH  18  23
ATOM     23  O   UNL     1       8.395   4.118  17.711  0.00  0.00    +0.000 OA
ATOM     24  H   UNL     1       9.353   4.283  17.732  0.00  0.00    +0.000 HD
ENDBRANCH  18  23
BRANCH  17  25
ATOM     25  C   UNL     1       7.552   7.721  17.342  0.00  0.00    +0.000 C 
BRANCH  25  26
ATOM     26  O   UNL     1       8.216   8.659  18.183  0.00  0.00    +0.000 OA
ATOM     27  H   UNL     1       7.566   9.011  18.815  0.00  0.00    +0.000 HD
ENDBRANCH  25  26
ENDBRANCH  17  25
ENDBRANCH   8  15
TORSDOF 4
ENDMDL
MODEL 6
REMARK VINA RESULT:      -6.7      2.490      5.961
REMARK  Name = 
REMARK  4 active torsions:
REMARK  status: ('A' for Active; 'I' for Inactive)
REMARK    1  A    between atoms: N_8  and  C_9
REMARK    2  A    between atoms: C_11  and  C_12
REMARK    3  A    between atoms: C_12  and  O_13
REMARK    4  A    between atoms: C_14  and  O_15
REMARK                            x       y       z     vdW  Elec       q    Type
REMARK                         _______ _______ _______ _____ _____    ______ ____
ROOT
ATOM      1  N   UNL     1       7.559   7.960  17.806  0.00  0.00    +0.000 N 
ATOM      2  C   UNL     1       6.975   6.818  17.367  0.00  0.00    +0.000 A 
ATOM      3  N   UNL     1       6.002   6.278  18.049  0.00  0.00    +0.000 NA
ATOM      4  C   UNL     1       5.527   5.130  17.500  0.00  0.00    +0.000 A 
ATOM      5  C   UNL     1       5.938   4.503  16.352  0.00  0.00    +0.000 A 
ATOM      6  N   UNL     1       5.242   3.337  16.145  0.00  0.00    +0.000 NA
ATOM      7  C   UNL     1       4.430   3.247  17.182  0.00  0.00    +0.000 A 
ATOM      8  N   UNL     1       4.530   4.337  18.006  0.00  0.00    +0.000 N 
ATOM      9  C   UNL     1       7.003   5.124  15.593  0.00  0.00    +0.000 A 
ATOM     10  O   UNL     1       7.482   4.702  14.544  0.00  0.00    +0.000 OA
ATOM     11  N   UNL     1       7.461   6.295  16.186  0.00  0.00    +0.000 N 
ATOM     12  H   UNL     1       7.018   8.438  18.520  0.00  0.00    +0.000 HD
ATOM     13  H   UNL     1       7.978   8.582  17.129  0.00  0.00    +0.000 HD
ATOM     14  H   UNL     1       8.227   6.743  15.714  0.00  0.00    +0.000 HD
ENDROOT
BRANCH   8  15
ATOM     15  C   UNL     1       3.784   4.620  19.219  0.00  0.00    +0.000 C 
ATOM     16  O   UNL     1       4.016   3.640  20.255  0.00  0.00    +0.000 OA
ATOM     17  C   UNL     1       2.907   3.764  21.208  0.00  0.00    +0.000 C 
ATOM     18  C   UNL     1       1.915   4.794  20.613  0.00  0.00    +0.000 C 
ATOM     19  C   UNL     1       2.268   4.683  19.133  0.00  0.00    +0.000 C 
ATOM     20  C   UNL     1       1.448   3.606  18.381  0.00  0.00    +0.000 C 
ATOM     21  C   UNL     1       1.358   4.668  17.290  0.00  0.00    +0.000 C 
ATOM     22  O   UNL     1       1.723   5.707  18.251  0.00  0.00    +0.000 OA
BRANCH  18  23
ATOM     23  O   UNL     1       2.176   6.110  21.124  0.00  0.00    +0.000 OA
ATOM     24  H   UNL     1       2.326   6.735  20.394  0.00  0.00    +0.000 HD
ENDBRANCH  18  23
BRANCH  17  25
ATOM     25  C   UNL     1       2.228   2.403  21.433  0.00  0.00    +0.000 C 
BRANCH  25  26
ATOM     26  O   UNL     1       1.148   2.531  22.352  0.00  0.00    +0.000 OA
ATOM     27  H   UNL     1       0.786   3.430  22.271  0.00  0.00    +0.000 HD
ENDBRANCH  25  26
ENDBRANCH  17  25
ENDBRANCH   8  15
TORSDOF 4
ENDMDL
MODEL 7
REMARK VINA RESULT:      -6.6      3.108      6.463
REMARK  Name = 
REMARK  4 active torsions:
REMARK  status: ('A' for Active; 'I' for Inactive)
REMARK    1  A    between atoms: N_8  and  C_9
REMARK    2  A    between atoms: C_11  and  C_12
REMARK    3  A    between atoms: C_12  and  O_13
REMARK    4  A    between atoms: C_14  and  O_15
REMARK                            x       y       z     vdW  Elec       q    Type
REMARK                         _______ _______ _______ _____ _____    ______ ____
ROOT
ATOM      1  N   UNL     1       5.685   2.548  11.900  0.00  0.00    +0.000 N 
ATOM      2  C   UNL     1       6.159   3.396  12.846  0.00  0.00    +0.000 A 
ATOM      3  N   UNL     1       5.703   3.332  14.067  0.00  0.00    +0.000 NA
ATOM      4  C   UNL     1       6.255   4.253  14.900  0.00  0.00    +0.000 A 
ATOM      5  C   UNL     1       7.204   5.200  14.611  0.00  0.00    +0.000 A 
ATOM      6  N   UNL     1       7.481   5.977  15.709  0.00  0.00    +0.000 NA
ATOM      7  C   UNL     1       6.681   5.517  16.652  0.00  0.00    +0.000 A 
ATOM      8  N   UNL     1       5.954   4.438  16.225  0.00  0.00    +0.000 N 
ATOM      9  C   UNL     1       7.718   5.245  13.258  0.00  0.00    +0.000 A 
ATOM     10  O   UNL     1       8.571   6.019  12.836  0.00  0.00    +0.000 OA
ATOM     11  N   UNL     1       7.130   4.288  12.438  0.00  0.00    +0.000 N 
ATOM     12  H   UNL     1       5.175   1.760  12.288  0.00  0.00    +0.000 HD
ATOM     13  H   UNL     1       6.284   2.302  11.125  0.00  0.00    +0.000 HD
ATOM     14  H   UNL     1       7.428   4.305  11.478  0.00  0.00    +0.000 HD
ENDROOT
BRANCH   8  15
ATOM     15  C   UNL     1       4.999   3.641  16.974  0.00  0.00    +0.000 C 
ATOM     16  O   UNL     1       3.665   3.708  16.420  0.00  0.00    +0.000 OA
ATOM     17  C   UNL     1       2.748   3.269  17.478  0.00  0.00    +0.000 C 
ATOM     18  C   UNL     1       3.600   3.057  18.753  0.00  0.00    +0.000 C 
ATOM     19  C   UNL     1       4.783   3.969  18.442  0.00  0.00    +0.000 C 
ATOM     20  C   UNL     1       4.588   5.425  18.933  0.00  0.00    +0.000 C 
ATOM     21  C   UNL     1       6.042   5.298  19.376  0.00  0.00    +0.000 C 
ATOM     22  O   UNL     1       5.954   3.841  19.300  0.00  0.00    +0.000 OA
BRANCH  18  23
ATOM     23  O   UNL     1       4.005   1.685  18.876  0.00  0.00    +0.000 OA
ATOM     24  H   UNL     1       3.299   1.092  18.567  0.00  0.00    +0.000 HD
ENDBRANCH  18  23
BRANCH  17  25
ATOM     25  C   UNL     1       1.647   4.315  17.713  0.00  0.00    +0.000 C 
BRANCH  25  26
ATOM     26  O   UNL     1       1.207   4.282  19.066  0.00  0.00    +0.000 OA
ATOM     27  H   UNL     1       0.277   4.564  19.089  0.00  0.00    +0.000 HD
ENDBRANCH  25  26
ENDBRANCH  17  25
ENDBRANCH   8  15
TORSDOF 4
ENDMDL
MODEL 8
REMARK VINA RESULT:      -6.5      2.745      5.691
REMARK  Name = 
REMARK  4 active torsions:
REMARK  status: ('A' for Active; 'I' for Inactive)
REMARK    1  A    between atoms: N_8  and  C_9
REMARK    2  A    between atoms: C_11  and  C_12
REMARK    3  A    between atoms: C_12  and  O_13
REMARK    4  A    between atoms: C_14  and  O_15
REMARK                            x       y       z     vdW  Elec       q    Type
REMARK                         _______ _______ _______ _____ _____    ______ ____
ROOT
ATOM      1  N   UNL     1       8.282   5.190  20.591  0.00  0.00    +0.000 N 
ATOM      2  C   UNL     1       7.422   5.624  19.637  0.00  0.00    +0.000 A 
ATOM      3  N   UNL     1       6.168   5.264  19.677  0.00  0.00    +0.000 NA
ATOM      4  C   UNL     1       5.430   5.757  18.648  0.00  0.00    +0.000 A 
ATOM      5  C   UNL     1       5.841   6.563  17.618  0.00  0.00    +0.000 A 
ATOM      6  N   UNL     1       4.810   6.820  16.747  0.00  0.00    +0.000 NA
ATOM      7  C   UNL     1       3.785   6.148  17.237  0.00  0.00    +0.000 A 
ATOM      8  N   UNL     1       4.098   5.528  18.418  0.00  0.00    +0.000 N 
ATOM      9  C   UNL     1       7.229   6.973  17.598  0.00  0.00    +0.000 A 
ATOM     10  O   UNL     1       7.755   7.696  16.757  0.00  0.00    +0.000 OA
ATOM     11  N   UNL     1       7.949   6.449  18.666  0.00  0.00    +0.000 N 
ATOM     12  H   UNL     1       7.815   4.807  21.407  0.00  0.00    +0.000 HD
ATOM     13  H   UNL     1       9.087   5.759  20.814  0.00  0.00    +0.000 HD
ATOM     14  H   UNL     1       8.929   6.676  18.674  0.00  0.00    +0.000 HD
ENDROOT
BRANCH   8  15
ATOM     15  C   UNL     1       3.237   4.730  19.272  0.00  0.00    +0.000 C 
ATOM     16  O   UNL     1       3.941   4.175  20.406  0.00  0.00    +0.000 OA
ATOM     17  C   UNL     1       3.123   3.064  20.907  0.00  0.00    +0.000 C 
ATOM     18  C   UNL     1       1.942   2.896  19.921  0.00  0.00    +0.000 C 
ATOM     19  C   UNL     1       2.546   3.520  18.666  0.00  0.00    +0.000 C 
ATOM     20  C   UNL     1       3.306   2.506  17.776  0.00  0.00    +0.000 C 
ATOM     21  C   UNL     1       2.606   3.234  16.632  0.00  0.00    +0.000 C 
ATOM     22  O   UNL     1       1.632   3.796  17.566  0.00  0.00    +0.000 OA
BRANCH  18  23
ATOM     23  O   UNL     1       0.789   3.622  20.373  0.00  0.00    +0.000 OA
ATOM     24  H   UNL     1       0.869   3.832  21.320  0.00  0.00    +0.000 HD
ENDBRANCH  18  23
BRANCH  17  25
ATOM     25  C   UNL     1       3.956   1.776  21.003  0.00  0.00    +0.000 C 
BRANCH  25  26
ATOM     26  O   UNL     1       5.221   1.951  20.374  0.00  0.00    +0.000 OA
ATOM     27  H   UNL     1       5.877   2.148  21.065  0.00  0.00    +0.000 HD
ENDBRANCH  25  26
ENDBRANCH  17  25
ENDBRANCH   8  15
TORSDOF 4
ENDMDL
MODEL 9
REMARK VINA RESULT:      -6.4      2.621      6.032
REMARK  Name = 
REMARK  4 active torsions:
REMARK  status: ('A' for Active; 'I' for Inactive)
REMARK    1  A    between atoms: N_8  and  C_9
REMARK    2  A    between atoms: C_11  and  C_12
REMARK    3  A    between atoms: C_12  and  O_13
REMARK    4  A    between atoms: C_14  and  O_15
REMARK                            x       y       z     vdW  Elec       q    Type
REMARK                         _______ _______ _______ _____ _____    ______ ____
ROOT
ATOM      1  N   UNL     1       6.312   3.568  13.847  0.00  0.00    +0.000 N 
ATOM      2  C   UNL     1       6.174   4.283  14.991  0.00  0.00    +0.000 A 
ATOM      3  N   UNL     1       5.176   4.038  15.796  0.00  0.00    +0.000 NA
ATOM      4  C   UNL     1       5.154   4.843  16.891  0.00  0.00    +0.000 A 
ATOM      5  C   UNL     1       6.032   5.840  17.231  0.00  0.00    +0.000 A 
ATOM      6  N   UNL     1       5.653   6.460  18.397  0.00  0.00    +0.000 NA
ATOM      7  C   UNL     1       4.533   5.855  18.745  0.00  0.00    +0.000 A 
ATOM      8  N   UNL     1       4.216   4.833  17.891  0.00  0.00    +0.000 N 
ATOM      9  C   UNL     1       7.147   6.086  16.340  0.00  0.00    +0.000 A 
ATOM     10  O   UNL     1       8.024   6.929  16.499  0.00  0.00    +0.000 OA
ATOM     11  N   UNL     1       7.135   5.243  15.234  0.00  0.00    +0.000 N 
ATOM     12  H   UNL     1       5.750   2.723  13.832  0.00  0.00    +0.000 HD
ATOM     13  H   UNL     1       7.238   3.446  13.461  0.00  0.00    +0.000 HD
ATOM     14  H   UNL     1       7.870   5.401  14.567  0.00  0.00    +0.000 HD
ENDROOT
BRANCH   8  15
ATOM     15  C   UNL     1       3.090   3.919  17.957  0.00  0.00    +0.000 C 
ATOM     16  O   UNL     1       1.869   4.573  18.374  0.00  0.00    +0.000 OA
ATOM     17  C   UNL     1       0.962   3.515  18.836  0.00  0.00    +0.000 C 
ATOM     18  C   UNL     1       1.760   2.188  18.796  0.00  0.00    +0.000 C 
ATOM     19  C   UNL     1       3.184   2.727  18.896  0.00  0.00    +0.000 C 
ATOM     20  C   UNL     1       3.689   2.873  20.352  0.00  0.00    +0.000 C 
ATOM     21  C   UNL     1       4.981   2.286  19.791  0.00  0.00    +0.000 C 
ATOM     22  O   UNL     1       4.262   1.786  18.620  0.00  0.00    +0.000 OA
BRANCH  18  23
ATOM     23  O   UNL     1       1.540   1.496  17.558  0.00  0.00    +0.000 OA
ATOM     24  H   UNL     1       1.811   0.565  17.636  0.00  0.00    +0.000 HD
ENDBRANCH  18  23
BRANCH  17  25
ATOM     25  C   UNL     1       0.453   3.815  20.254  0.00  0.00    +0.000 C 
BRANCH  25  26
ATOM     26  O   UNL     1       1.067   4.993  20.766  0.00  0.00    +0.000 OA
ATOM     27  H   UNL     1       1.148   5.632  20.038  0.00  0.00    +0.000 HD
ENDBRANCH  25  26
ENDBRANCH  17  25
ENDBRANCH   8  15
TORSDOF 4
ENDMDL
