MODEL 1
REMARK VINA RESULT:      -8.4      0.000      0.000
REMARK  Name = 
REMARK  1 active torsions:
REMARK  status: ('A' for Active; 'I' for Inactive)
REMARK    1  A    between atoms: N_15  and  C_16
REMARK                            x       y       z     vdW  Elec       q    Type
REMARK                         _______ _______ _______ _____ _____    ______ ____
ROOT
ATOM      1  O   UNL     1       0.697  11.809  18.774  0.00  0.00    +0.000 OA
ATOM      2  C   UNL     1       0.837  10.702  19.267  0.00  0.00    +0.000 C 
ATOM      3  C   UNL     1       0.350  10.403  20.650  0.00  0.00    +0.000 A 
ATOM      4  C   UNL     1      -0.260  11.427  21.389  0.00  0.00    +0.000 A 
ATOM      5  C   UNL     1      -0.704  11.183  22.690  0.00  0.00    +0.000 A 
ATOM      6  C   UNL     1      -0.537   9.924  23.267  0.00  0.00    +0.000 A 
ATOM      7  C   UNL     1       0.071   8.899  22.542  0.00  0.00    +0.000 A 
ATOM      8  C   UNL     1       0.512   9.132  21.230  0.00  0.00    +0.000 A 
ATOM      9  C   UNL     1       1.164   8.015  20.487  0.00  0.00    +0.000 C 
ATOM     10  O   UNL     1       1.294   6.925  21.028  0.00  0.00    +0.000 OA
ATOM     11  C   UNL     1       1.619   8.347  19.171  0.00  0.00    +0.000 A 
ATOM     12  C   UNL     1       1.495   9.594  18.606  0.00  0.00    +0.000 A 
ATOM     13  N   UNL     1       2.160   9.634  17.421  0.00  0.00    +0.000 NA
ATOM     14  N   UNL     1       2.762   8.461  17.258  0.00  0.00    +0.000 NA
ATOM     15  N   UNL     1       2.393   7.644  18.277  0.00  0.00    +0.000 N 
ENDROOT
BRANCH  15  16
ATOM     16  C   UNL     1       2.938   6.351  18.411  0.00  0.00    +0.000 A 
ATOM     17  C   UNL     1       4.185   6.213  19.061  0.00  0.00    +0.000 A 
ATOM     18  C   UNL     1       4.665   4.940  19.385  0.00  0.00    +0.000 A 
ATOM     19  C   UNL     1       3.899   3.854  19.015  0.00  0.00    +0.000 A 
ATOM     20  C   UNL     1       2.717   3.995  18.321  0.00  0.00    +0.000 A 
ATOM     21  C   UNL     1       2.209   5.231  17.997  0.00  0.00    +0.000 A 
ATOM     22  O   UNL     1       2.127   2.801  18.056  0.00  0.00    +0.000 OA
ATOM     23  C   UNL     1       2.957   1.922  18.844  0.00  0.00    +0.000 C 
ATOM     24  O   UNL     1       4.173   2.552  19.298  0.00  0.00    +0.000 OA
ENDBRANCH  15  16
TORSDOF 1
ENDMDL
MODEL 2
REMARK VINA RESULT:      -7.9      3.922      5.186
REMARK  Name = 
REMARK  1 active torsions:
REMARK  status: ('A' for Active; 'I' for Inactive)
REMARK    1  A    between atoms: N_15  and  C_16
REMARK                            x       y       z     vdW  Elec       q    Type
REMARK                         _______ _______ _______ _____ _____    ______ ____
ROOT
ATOM      1  O   UNL     1       2.142   4.689  21.353  0.00  0.00    +0.000 OA
ATOM      2  C   UNL     1       2.570   5.279  20.375  0.00  0.00    +0.000 C 
ATOM      3  C   UNL     1       2.115   6.666  20.048  0.00  0.00    +0.000 A 
ATOM      4  C   UNL     1       1.166   7.281  20.878  0.00  0.00    +0.000 A 
ATOM      5  C   UNL     1       0.707   8.566  20.584  0.00  0.00    +0.000 A 
ATOM      6  C   UNL     1       1.181   9.245  19.462  0.00  0.00    +0.000 A 
ATOM      7  C   UNL     1       2.122   8.642  18.628  0.00  0.00    +0.000 A 
ATOM      8  C   UNL     1       2.597   7.354  18.920  0.00  0.00    +0.000 A 
ATOM      9  C   UNL     1       3.599   6.737  18.002  0.00  0.00    +0.000 C 
ATOM     10  O   UNL     1       3.990   7.363  17.026  0.00  0.00    +0.000 OA
ATOM     11  C   UNL     1       4.001   5.408  18.350  0.00  0.00    +0.000 A 
ATOM     12  C   UNL     1       3.513   4.714  19.432  0.00  0.00    +0.000 A 
ATOM     13  N   UNL     1       3.965   3.433  19.403  0.00  0.00    +0.000 NA
ATOM     14  N   UNL     1       4.670   3.280  18.288  0.00  0.00    +0.000 NA
ATOM     15  N   UNL     1       4.759   4.484  17.668  0.00  0.00    +0.000 N 
ENDROOT
BRANCH  15  16
ATOM     16  C   UNL     1       5.389   4.616  16.415  0.00  0.00    +0.000 A 
ATOM     17  C   UNL     1       6.679   5.192  16.369  0.00  0.00    +0.000 A 
ATOM     18  C   UNL     1       7.414   5.164  15.179  0.00  0.00    +0.000 A 
ATOM     19  C   UNL     1       6.819   4.595  14.073  0.00  0.00    +0.000 A 
ATOM     20  C   UNL     1       5.534   4.097  14.109  0.00  0.00    +0.000 A 
ATOM     21  C   UNL     1       4.787   4.096  15.264  0.00  0.00    +0.000 A 
ATOM     22  O   UNL     1       5.144   3.587  12.912  0.00  0.00    +0.000 OA
ATOM     23  C   UNL     1       6.395   3.627  12.193  0.00  0.00    +0.000 C 
ATOM     24  O   UNL     1       7.399   4.424  12.855  0.00  0.00    +0.000 OA
ENDBRANCH  15  16
TORSDOF 1
ENDMDL
MODEL 3
REMARK VINA RESULT:      -7.8      4.156      5.655
REMARK  Name = 
REMARK  1 active torsions:
REMARK  status: ('A' for Active; 'I' for Inactive)
REMARK    1  A    between atoms: N_15  and  C_16
REMARK                            x       y       z     vdW  Elec       q    Type
REMARK                         _______ _______ _______ _____ _____    ______ ____
ROOT
ATOM      1  O   UNL     1       2.433   5.154  21.098  0.00  0.00    +0.000 OA
ATOM      2  C   UNL     1       2.867   5.582  20.041  0.00  0.00    +0.000 C 
ATOM      3  C   UNL     1       2.448   6.918  19.516  0.00  0.00    +0.000 A 
ATOM      4  C   UNL     1       1.525   7.675  20.253  0.00  0.00    +0.000 A 
ATOM      5  C   UNL     1       1.098   8.917  19.776  0.00  0.00    +0.000 A 
ATOM      6  C   UNL     1       1.579   9.409  18.564  0.00  0.00    +0.000 A 
ATOM      7  C   UNL     1       2.495   8.664  17.821  0.00  0.00    +0.000 A 
ATOM      8  C   UNL     1       2.937   7.419  18.297  0.00  0.00    +0.000 A 
ATOM      9  C   UNL     1       3.911   6.645  17.473  0.00  0.00    +0.000 C 
ATOM     10  O   UNL     1       4.309   7.110  16.413  0.00  0.00    +0.000 OA
ATOM     11  C   UNL     1       4.280   5.371  18.010  0.00  0.00    +0.000 A 
ATOM     12  C   UNL     1       3.784   4.857  19.185  0.00  0.00    +0.000 A 
ATOM     13  N   UNL     1       4.200   3.572  19.341  0.00  0.00    +0.000 NA
ATOM     14  N   UNL     1       4.889   3.238  18.257  0.00  0.00    +0.000 NA
ATOM     15  N   UNL     1       5.005   4.335  17.466  0.00  0.00    +0.000 N 
ENDROOT
BRANCH  15  16
ATOM     16  C   UNL     1       5.625   4.263  16.203  0.00  0.00    +0.000 A 
ATOM     17  C   UNL     1       4.983   3.527  15.181  0.00  0.00    +0.000 A 
ATOM     18  C   UNL     1       5.463   3.591  13.869  0.00  0.00    +0.000 A 
ATOM     19  C   UNL     1       6.585   4.358  13.634  0.00  0.00    +0.000 A 
ATOM     20  C   UNL     1       7.244   5.018  14.649  0.00  0.00    +0.000 A 
ATOM     21  C   UNL     1       6.794   4.988  15.948  0.00  0.00    +0.000 A 
ATOM     22  O   UNL     1       8.323   5.710  14.200  0.00  0.00    +0.000 OA
ATOM     23  C   UNL     1       8.137   5.583  12.774  0.00  0.00    +0.000 C 
ATOM     24  O   UNL     1       7.154   4.587  12.421  0.00  0.00    +0.000 OA
ENDBRANCH  15  16
TORSDOF 1
ENDMDL
MODEL 4
REMARK VINA RESULT:      -7.8      1.881      6.666
REMARK  Name = 
REMARK  1 active torsions:
REMARK  status: ('A' for Active; 'I' for Inactive)
REMARK    1  A    between atoms: N_15  and  C_16
REMARK                            x       y       z     vdW  Elec       q    Type
REMARK                         _______ _______ _______ _____ _____    ______ ____
ROOT
ATOM      1  O   UNL     1       4.166   5.318  17.074  0.00  0.00    +0.000 OA
ATOM      2  C   UNL     1       3.488   5.729  18.001  0.00  0.00    +0.000 C 
ATOM      3  C   UNL     1       3.104   4.834  19.136  0.00  0.00    +0.000 A 
ATOM      4  C   UNL     1       3.523   3.496  19.114  0.00  0.00    +0.000 A 
ATOM      5  C   UNL     1       3.160   2.631  20.149  0.00  0.00    +0.000 A 
ATOM      6  C   UNL     1       2.375   3.088  21.207  0.00  0.00    +0.000 A 
ATOM      7  C   UNL     1       1.951   4.416  21.238  0.00  0.00    +0.000 A 
ATOM      8  C   UNL     1       2.318   5.296  20.207  0.00  0.00    +0.000 A 
ATOM      9  C   UNL     1       1.840   6.708  20.269  0.00  0.00    +0.000 C 
ATOM     10  O   UNL     1       1.150   7.071  21.212  0.00  0.00    +0.000 OA
ATOM     11  C   UNL     1       2.225   7.527  19.160  0.00  0.00    +0.000 A 
ATOM     12  C   UNL     1       2.967   7.078  18.093  0.00  0.00    +0.000 A 
ATOM     13  N   UNL     1       3.032   8.042  17.136  0.00  0.00    +0.000 NA
ATOM     14  N   UNL     1       2.288   9.063  17.543  0.00  0.00    +0.000 NA
ATOM     15  N   UNL     1       1.843   8.798  18.798  0.00  0.00    +0.000 N 
ENDROOT
BRANCH  15  16
ATOM     16  C   UNL     1       0.962   9.675  19.462  0.00  0.00    +0.000 A 
ATOM     17  C   UNL     1      -0.158  10.164  18.753  0.00  0.00    +0.000 A 
ATOM     18  C   UNL     1      -1.154  10.876  19.429  0.00  0.00    +0.000 A 
ATOM     19  C   UNL     1      -0.976  11.103  20.778  0.00  0.00    +0.000 A 
ATOM     20  C   UNL     1       0.153  10.681  21.447  0.00  0.00    +0.000 A 
ATOM     21  C   UNL     1       1.146   9.967  20.817  0.00  0.00    +0.000 A 
ATOM     22  O   UNL     1       0.127  11.010  22.764  0.00  0.00    +0.000 OA
ATOM     23  C   UNL     1      -1.230  11.490  22.883  0.00  0.00    +0.000 C 
ATOM     24  O   UNL     1      -1.861  11.718  21.606  0.00  0.00    +0.000 OA
ENDBRANCH  15  16
TORSDOF 1
ENDMDL
MODEL 5
REMARK VINA RESULT:      -7.6      1.879      6.736
REMARK  Name = 
REMARK  1 active torsions:
REMARK  status: ('A' for Active; 'I' for Inactive)
REMARK    1  A    between atoms: N_15  and  C_16
REMARK                            x       y       z     vdW  Elec       q    Type
REMARK                         _______ _______ _______ _____ _____    ______ ____
ROOT
ATOM      1  O   UNL     1       4.313   5.608  17.105  0.00  0.00    +0.000 OA
ATOM      2  C   UNL     1       3.573   5.948  18.013  0.00  0.00    +0.000 C 
ATOM      3  C   UNL     1       3.195   4.995  19.103  0.00  0.00    +0.000 A 
ATOM      4  C   UNL     1       3.692   3.684  19.058  0.00  0.00    +0.000 A 
ATOM      5  C   UNL     1       3.338   2.766  20.048  0.00  0.00    +0.000 A 
ATOM      6  C   UNL     1       2.483   3.142  21.084  0.00  0.00    +0.000 A 
ATOM      7  C   UNL     1       1.980   4.442  21.137  0.00  0.00    +0.000 A 
ATOM      8  C   UNL     1       2.338   5.375  20.151  0.00  0.00    +0.000 A 
ATOM      9  C   UNL     1       1.775   6.754  20.235  0.00  0.00    +0.000 C 
ATOM     10  O   UNL     1       1.026   7.046  21.158  0.00  0.00    +0.000 OA
ATOM     11  C   UNL     1       2.159   7.630  19.170  0.00  0.00    +0.000 A 
ATOM     12  C   UNL     1       2.970   7.261  18.123  0.00  0.00    +0.000 A 
ATOM     13  N   UNL     1       3.019   8.258  17.200  0.00  0.00    +0.000 NA
ATOM     14  N   UNL     1       2.199   9.221  17.605  0.00  0.00    +0.000 NA
ATOM     15  N   UNL     1       1.718   8.889  18.830  0.00  0.00    +0.000 N 
ENDROOT
BRANCH  15  16
ATOM     16  C   UNL     1       0.759   9.691  19.481  0.00  0.00    +0.000 A 
ATOM     17  C   UNL     1       1.077  10.215  20.754  0.00  0.00    +0.000 A 
ATOM     18  C   UNL     1       0.239  11.167  21.345  0.00  0.00    +0.000 A 
ATOM     19  C   UNL     1      -0.900  11.531  20.659  0.00  0.00    +0.000 A 
ATOM     20  C   UNL     1      -1.237  10.964  19.448  0.00  0.00    +0.000 A 
ATOM     21  C   UNL     1      -0.431  10.035  18.832  0.00  0.00    +0.000 A 
ATOM     22  O   UNL     1      -2.397  11.462  18.949  0.00  0.00    +0.000 OA
ATOM     23  C   UNL     1      -2.630  12.548  19.871  0.00  0.00    +0.000 C 
ATOM     24  O   UNL     1      -1.795  12.479  21.045  0.00  0.00    +0.000 OA
ENDBRANCH  15  16
TORSDOF 1
ENDMDL
MODEL 6
REMARK VINA RESULT:      -7.5      1.683      6.815
REMARK  Name = 
REMARK  1 active torsions:
REMARK  status: ('A' for Active; 'I' for Inactive)
REMARK    1  A    between atoms: N_15  and  C_16
REMARK                            x       y       z     vdW  Elec       q    Type
REMARK                         _______ _______ _______ _____ _____    ______ ____
ROOT
ATOM      1  O   UNL     1       4.450   5.307  16.503  0.00  0.00    +0.000 OA
ATOM      2  C   UNL     1       3.719   5.401  17.474  0.00  0.00    +0.000 C 
ATOM      3  C   UNL     1       3.199   4.185  18.173  0.00  0.00    +0.000 A 
ATOM      4  C   UNL     1       3.553   2.919  17.682  0.00  0.00    +0.000 A 
ATOM      5  C   UNL     1       3.064   1.767  18.301  0.00  0.00    +0.000 A 
ATOM      6  C   UNL     1       2.217   1.864  19.404  0.00  0.00    +0.000 A 
ATOM      7  C   UNL     1       1.857   3.117  19.899  0.00  0.00    +0.000 A 
ATOM      8  C   UNL     1       2.350   4.281  19.290  0.00  0.00    +0.000 A 
ATOM      9  C   UNL     1       1.938   5.605  19.842  0.00  0.00    +0.000 C 
ATOM     10  O   UNL     1       1.191   5.650  20.810  0.00  0.00    +0.000 OA
ATOM     11  C   UNL     1       2.453   6.741  19.139  0.00  0.00    +0.000 A 
ATOM     12  C   UNL     1       3.258   6.658  18.027  0.00  0.00    +0.000 A 
ATOM     13  N   UNL     1       3.448   7.897  17.500  0.00  0.00    +0.000 NA
ATOM     14  N   UNL     1       2.724   8.752  18.211  0.00  0.00    +0.000 NA
ATOM     15  N   UNL     1       2.164   8.082  19.250  0.00  0.00    +0.000 N 
ENDROOT
BRANCH  15  16
ATOM     16  C   UNL     1       1.275   8.719  20.138  0.00  0.00    +0.000 A 
ATOM     17  C   UNL     1       1.432   8.491  21.524  0.00  0.00    +0.000 A 
ATOM     18  C   UNL     1       0.700   9.250  22.443  0.00  0.00    +0.000 A 
ATOM     19  C   UNL     1      -0.185  10.182  21.942  0.00  0.00    +0.000 A 
ATOM     20  C   UNL     1      -0.382  10.350  20.589  0.00  0.00    +0.000 A 
ATOM     21  C   UNL     1       0.329   9.630  19.657  0.00  0.00    +0.000 A 
ATOM     22  O   UNL     1      -1.298  11.315  20.315  0.00  0.00    +0.000 OA
ATOM     23  C   UNL     1      -1.488  11.872  21.633  0.00  0.00    +0.000 C 
ATOM     24  O   UNL     1      -0.932  11.047  22.679  0.00  0.00    +0.000 OA
ENDBRANCH  15  16
TORSDOF 1
ENDMDL
MODEL 7
REMARK VINA RESULT:      -7.5      4.506      8.005
REMARK  Name = 
REMARK  1 active torsions:
REMARK  status: ('A' for Active; 'I' for Inactive)
REMARK    1  A    between atoms: N_15  and  C_16
REMARK                            x       y       z     vdW  Elec       q    Type
REMARK                         _______ _______ _______ _____ _____    ______ ____
ROOT
ATOM      1  O   UNL     1       8.666   5.881  14.130  0.00  0.00    +0.000 OA
ATOM      2  C   UNL     1       7.619   5.406  14.538  0.00  0.00    +0.000 C 
ATOM      3  C   UNL     1       6.760   4.555  13.658  0.00  0.00    +0.000 A 
ATOM      4  C   UNL     1       7.168   4.320  12.336  0.00  0.00    +0.000 A 
ATOM      5  C   UNL     1       6.375   3.548  11.485  0.00  0.00    +0.000 A 
ATOM      6  C   UNL     1       5.171   3.011  11.938  0.00  0.00    +0.000 A 
ATOM      7  C   UNL     1       4.754   3.240  13.249  0.00  0.00    +0.000 A 
ATOM      8  C   UNL     1       5.549   4.007  14.115  0.00  0.00    +0.000 A 
ATOM      9  C   UNL     1       5.068   4.238  15.509  0.00  0.00    +0.000 C 
ATOM     10  O   UNL     1       4.004   3.752  15.870  0.00  0.00    +0.000 OA
ATOM     11  C   UNL     1       5.917   5.062  16.314  0.00  0.00    +0.000 A 
ATOM     12  C   UNL     1       7.088   5.629  15.867  0.00  0.00    +0.000 A 
ATOM     13  N   UNL     1       7.580   6.478  16.808  0.00  0.00    +0.000 NA
ATOM     14  N   UNL     1       6.710   6.516  17.810  0.00  0.00    +0.000 NA
ATOM     15  N   UNL     1       5.726   5.615  17.559  0.00  0.00    +0.000 N 
ENDROOT
BRANCH  15  16
ATOM     16  C   UNL     1       4.616   5.487  18.418  0.00  0.00    +0.000 A 
ATOM     17  C   UNL     1       3.579   6.442  18.321  0.00  0.00    +0.000 A 
ATOM     18  C   UNL     1       2.381   6.242  19.014  0.00  0.00    +0.000 A 
ATOM     19  C   UNL     1       2.277   5.116  19.803  0.00  0.00    +0.000 A 
ATOM     20  C   UNL     1       3.319   4.225  19.945  0.00  0.00    +0.000 A 
ATOM     21  C   UNL     1       4.507   4.382  19.270  0.00  0.00    +0.000 A 
ATOM     22  O   UNL     1       3.007   3.191  20.768  0.00  0.00    +0.000 OA
ATOM     23  C   UNL     1       1.594   3.423  20.950  0.00  0.00    +0.000 C 
ATOM     24  O   UNL     1       1.174   4.727  20.496  0.00  0.00    +0.000 OA
ENDBRANCH  15  16
TORSDOF 1
ENDMDL
MODEL 8
REMARK VINA RESULT:      -7.4      0.770      1.469
REMARK  Name = 
REMARK  1 active torsions:
REMARK  status: ('A' for Active; 'I' for Inactive)
REMARK    1  A    between atoms: N_15  and  C_16
REMARK                            x       y       z     vdW  Elec       q    Type
REMARK                         _______ _______ _______ _____ _____    ______ ____
ROOT
ATOM      1  O   UNL     1       0.895  12.212  18.823  0.00  0.00    +0.000 OA
ATOM      2  C   UNL     1       0.878  11.097  19.318  0.00  0.00    +0.000 C 
ATOM      3  C   UNL     1       0.273  10.856  20.665  0.00  0.00    +0.000 A 
ATOM      4  C   UNL     1      -0.265  11.944  21.369  0.00  0.00    +0.000 A 
ATOM      5  C   UNL     1      -0.816  11.753  22.638  0.00  0.00    +0.000 A 
ATOM      6  C   UNL     1      -0.828  10.484  23.217  0.00  0.00    +0.000 A 
ATOM      7  C   UNL     1      -0.294   9.397  22.527  0.00  0.00    +0.000 A 
ATOM      8  C   UNL     1       0.254   9.577  21.247  0.00  0.00    +0.000 A 
ATOM      9  C   UNL     1       0.824   8.392  20.542  0.00  0.00    +0.000 C 
ATOM     10  O   UNL     1       0.797   7.295  21.084  0.00  0.00    +0.000 OA
ATOM     11  C   UNL     1       1.397   8.669  19.260  0.00  0.00    +0.000 A 
ATOM     12  C   UNL     1       1.450   9.921  18.694  0.00  0.00    +0.000 A 
ATOM     13  N   UNL     1       2.190   9.884  17.554  0.00  0.00    +0.000 NA
ATOM     14  N   UNL     1       2.666   8.651  17.424  0.00  0.00    +0.000 NA
ATOM     15  N   UNL     1       2.143   7.882  18.413  0.00  0.00    +0.000 N 
ENDROOT
BRANCH  15  16
ATOM     16  C   UNL     1       2.530   6.537  18.574  0.00  0.00    +0.000 A 
ATOM     17  C   UNL     1       1.723   5.532  17.995  0.00  0.00    +0.000 A 
ATOM     18  C   UNL     1       2.171   4.208  17.966  0.00  0.00    +0.000 A 
ATOM     19  C   UNL     1       3.391   3.932  18.548  0.00  0.00    +0.000 A 
ATOM     20  C   UNL     1       4.140   4.906  19.171  0.00  0.00    +0.000 A 
ATOM     21  C   UNL     1       3.737   6.220  19.207  0.00  0.00    +0.000 A 
ATOM     22  O   UNL     1       5.302   4.419  19.678  0.00  0.00    +0.000 OA
ATOM     23  C   UNL     1       5.292   3.089  19.117  0.00  0.00    +0.000 C 
ATOM     24  O   UNL     1       4.012   2.722  18.561  0.00  0.00    +0.000 OA
ENDBRANCH  15  16
TORSDOF 1
ENDMDL
MODEL 9
REMARK VINA RESULT:      -7.4      2.395      7.450
REMARK  Name = 
REMARK  1 active torsions:
REMARK  status: ('A' for Active; 'I' for Inactive)
REMARK    1  A    between atoms: N_15  and  C_16
REMARK                            x       y       z     vdW  Elec       q    Type
REMARK                         _______ _______ _______ _____ _____    ______ ____
ROOT
ATOM      1  O   UNL     1       4.041   2.590  18.721  0.00  0.00    +0.000 OA
ATOM      2  C   UNL     1       3.891   3.767  18.440  0.00  0.00    +0.000 C 
ATOM      3  C   UNL     1       4.617   4.388  17.289  0.00  0.00    +0.000 A 
ATOM      4  C   UNL     1       5.498   3.595  16.538  0.00  0.00    +0.000 A 
ATOM      5  C   UNL     1       6.207   4.153  15.472  0.00  0.00    +0.000 A 
ATOM      6  C   UNL     1       6.051   5.501  15.151  0.00  0.00    +0.000 A 
ATOM      7  C   UNL     1       5.180   6.299  15.893  0.00  0.00    +0.000 A 
ATOM      8  C   UNL     1       4.456   5.745  16.960  0.00  0.00    +0.000 A 
ATOM      9  C   UNL     1       3.540   6.631  17.737  0.00  0.00    +0.000 C 
ATOM     10  O   UNL     1       3.432   7.809  17.426  0.00  0.00    +0.000 OA
ATOM     11  C   UNL     1       2.870   5.997  18.831  0.00  0.00    +0.000 A 
ATOM     12  C   UNL     1       3.044   4.679  19.182  0.00  0.00    +0.000 A 
ATOM     13  N   UNL     1       2.398   4.421  20.350  0.00  0.00    +0.000 NA
ATOM     14  N   UNL     1       1.880   5.564  20.784  0.00  0.00    +0.000 NA
ATOM     15  N   UNL     1       2.099   6.519  19.845  0.00  0.00    +0.000 N 
ENDROOT
BRANCH  15  16
ATOM     16  C   UNL     1       1.724   7.859  20.064  0.00  0.00    +0.000 A 
ATOM     17  C   UNL     1       1.565   8.704  18.942  0.00  0.00    +0.000 A 
ATOM     18  C   UNL     1       1.011   9.978  19.101  0.00  0.00    +0.000 A 
ATOM     19  C   UNL     1       0.669  10.373  20.378  0.00  0.00    +0.000 A 
ATOM     20  C   UNL     1       0.891   9.569  21.475  0.00  0.00    +0.000 A 
ATOM     21  C   UNL     1       1.422   8.306  21.355  0.00  0.00    +0.000 A 
ATOM     22  O   UNL     1       0.485  10.151  22.633  0.00  0.00    +0.000 OA
ATOM     23  C   UNL     1      -0.205  11.307  22.113  0.00  0.00    +0.000 C 
ATOM     24  O   UNL     1       0.065  11.543  20.715  0.00  0.00    +0.000 OA
ENDBRANCH  15  16
TORSDOF 1
ENDMDL
