MODEL 1
REMARK VINA RESULT:      -8.6      0.000      0.000
REMARK  Name = 
REMARK  7 active torsions:
REMARK  status: ('A' for Active; 'I' for Inactive)
REMARK    1  A    between atoms: O_1  and  C_2
REMARK    2  A    between atoms: C_2  and  C_3
REMARK    3  A    between atoms: C_5  and  C_6
REMARK    4  A    between atoms: C_9  and  C_10
REMARK    5  A    between atoms: C_21  and  O_22
REMARK    6  A    between atoms: C_23  and  O_24
REMARK    7  A    between atoms: C_25  and  O_26
REMARK                            x       y       z     vdW  Elec       q    Type
REMARK                         _______ _______ _______ _____ _____    ______ ____
ROOT
ATOM      1  C   UNL     1       6.805   4.901  18.616  0.00  0.00    +0.000 C 
ATOM      2  O   UNL     1       5.567   5.289  19.219  0.00  0.00    +0.000 OA
ATOM      3  C   UNL     1       4.450   4.464  18.876  0.00  0.00    +0.000 C 
ATOM      4  C   UNL     1       4.205   4.478  17.357  0.00  0.00    +0.000 C 
ATOM      5  C   UNL     1       5.500   4.100  16.616  0.00  0.00    +0.000 C 
ATOM      6  C   UNL     1       6.686   4.956  17.087  0.00  0.00    +0.000 C 
ENDROOT
BRANCH   3   7
ATOM      7  C   UNL     1       3.288   5.035  19.611  0.00  0.00    +0.000 A 
ATOM      8  N   UNL     1       2.423   4.447  20.408  0.00  0.00    +0.000 NA
ATOM      9  N   UNL     1       1.575   5.439  20.854  0.00  0.00    +0.000 NA
ATOM     10  C   UNL     1       1.986   6.565  20.306  0.00  0.00    +0.000 A 
ATOM     11  O   UNL     1       3.073   6.387  19.495  0.00  0.00    +0.000 OA
BRANCH  10  12
ATOM     12  C   UNL     1       1.438   7.912  20.407  0.00  0.00    +0.000 A 
ATOM     13  C   UNL     1       1.513   8.829  19.353  0.00  0.00    +0.000 A 
ATOM     14  C   UNL     1       0.925  10.095  19.464  0.00  0.00    +0.000 A 
ATOM     15  C   UNL     1       0.247  10.468  20.634  0.00  0.00    +0.000 A 
ATOM     16  C   UNL     1      -0.383  11.718  20.754  0.00  0.00    +0.000 A 
ATOM     17  C   UNL     1      -1.059  12.066  21.925  0.00  0.00    +0.000 A 
ATOM     18  C   UNL     1      -1.104  11.177  22.995  0.00  0.00    +0.000 A 
ATOM     19  C   UNL     1      -0.481   9.933  22.891  0.00  0.00    +0.000 A 
ATOM     20  C   UNL     1       0.189   9.562  21.716  0.00  0.00    +0.000 A 
ATOM     21  C   UNL     1       0.790   8.298  21.590  0.00  0.00    +0.000 A 
ENDBRANCH  10  12
ENDBRANCH   3   7
BRANCH   4  22
ATOM     22  O   UNL     1       3.139   3.601  16.975  0.00  0.00    +0.000 OA
ATOM     23  H   UNL     1       2.535   3.473  17.729  0.00  0.00    +0.000 HD
ENDBRANCH   4  22
BRANCH   5  24
ATOM     24  O   UNL     1       5.332   4.226  15.201  0.00  0.00    +0.000 OA
ATOM     25  H   UNL     1       5.094   3.353  14.834  0.00  0.00    +0.000 HD
ENDBRANCH   5  24
BRANCH   6  26
ATOM     26  O   UNL     1       7.910   4.538  16.479  0.00  0.00    +0.000 OA
ATOM     27  H   UNL     1       7.972   4.928  15.590  0.00  0.00    +0.000 HD
ENDBRANCH   6  26
BRANCH   1  28
ATOM     28  C   UNL     1       7.881   5.882  19.103  0.00  0.00    +0.000 C 
BRANCH  28  29
ATOM     29  O   UNL     1       8.597   5.315  20.200  0.00  0.00    +0.000 OA
ATOM     30  H   UNL     1       8.835   6.049  20.792  0.00  0.00    +0.000 HD
ENDBRANCH  28  29
ENDBRANCH   1  28
TORSDOF 7
ENDMDL
MODEL 2
REMARK VINA RESULT:      -8.6      2.094      3.360
REMARK  Name = 
REMARK  7 active torsions:
REMARK  status: ('A' for Active; 'I' for Inactive)
REMARK    1  A    between atoms: O_1  and  C_2
REMARK    2  A    between atoms: C_2  and  C_3
REMARK    3  A    between atoms: C_5  and  C_6
REMARK    4  A    between atoms: C_9  and  C_10
REMARK    5  A    between atoms: C_21  and  O_22
REMARK    6  A    between atoms: C_23  and  O_24
REMARK    7  A    between atoms: C_25  and  O_26
REMARK                            x       y       z     vdW  Elec       q    Type
REMARK                         _______ _______ _______ _____ _____    ______ ____
ROOT
ATOM      1  C   UNL     1       3.048   3.484  19.339  0.00  0.00    +0.000 C 
ATOM      2  O   UNL     1       2.673   4.864  19.306  0.00  0.00    +0.000 OA
ATOM      3  C   UNL     1       3.267   5.620  18.246  0.00  0.00    +0.000 C 
ATOM      4  C   UNL     1       4.802   5.600  18.354  0.00  0.00    +0.000 C 
ATOM      5  C   UNL     1       5.301   4.146  18.428  0.00  0.00    +0.000 C 
ATOM      6  C   UNL     1       4.566   3.356  19.523  0.00  0.00    +0.000 C 
ENDROOT
BRANCH   3   7
ATOM      7  C   UNL     1       2.738   7.003  18.394  0.00  0.00    +0.000 A 
ATOM      8  N   UNL     1       2.853   8.040  17.593  0.00  0.00    +0.000 NA
ATOM      9  N   UNL     1       2.143   9.064  18.185  0.00  0.00    +0.000 NA
ATOM     10  C   UNL     1       1.637   8.580  19.301  0.00  0.00    +0.000 A 
ATOM     11  O   UNL     1       1.977   7.271  19.506  0.00  0.00    +0.000 OA
BRANCH  10  12
ATOM     12  C   UNL     1       0.833   9.232  20.327  0.00  0.00    +0.000 A 
ATOM     13  C   UNL     1       0.921   8.883  21.679  0.00  0.00    +0.000 A 
ATOM     14  C   UNL     1       0.176   9.571  22.644  0.00  0.00    +0.000 A 
ATOM     15  C   UNL     1      -0.672  10.626  22.276  0.00  0.00    +0.000 A 
ATOM     16  C   UNL     1      -1.400  11.355  23.231  0.00  0.00    +0.000 A 
ATOM     17  C   UNL     1      -2.233  12.406  22.842  0.00  0.00    +0.000 A 
ATOM     18  C   UNL     1      -2.360  12.734  21.496  0.00  0.00    +0.000 A 
ATOM     19  C   UNL     1      -1.645  12.018  20.536  0.00  0.00    +0.000 A 
ATOM     20  C   UNL     1      -0.791  10.969  20.911  0.00  0.00    +0.000 A 
ATOM     21  C   UNL     1      -0.042  10.265  19.954  0.00  0.00    +0.000 A 
ENDBRANCH  10  12
ENDBRANCH   3   7
BRANCH   4  22
ATOM     22  O   UNL     1       5.428   6.286  17.264  0.00  0.00    +0.000 OA
ATOM     23  H   UNL     1       5.074   7.192  17.202  0.00  0.00    +0.000 HD
ENDBRANCH   4  22
BRANCH   5  24
ATOM     24  O   UNL     1       6.713   4.103  18.654  0.00  0.00    +0.000 OA
ATOM     25  H   UNL     1       7.130   3.590  17.935  0.00  0.00    +0.000 HD
ENDBRANCH   5  24
BRANCH   6  26
ATOM     26  O   UNL     1       4.951   1.979  19.525  0.00  0.00    +0.000 OA
ATOM     27  H   UNL     1       4.735   1.588  18.661  0.00  0.00    +0.000 HD
ENDBRANCH   6  26
BRANCH   1  28
ATOM     28  C   UNL     1       2.312   2.836  20.521  0.00  0.00    +0.000 C 
BRANCH  28  29
ATOM     29  O   UNL     1       3.232   2.563  21.578  0.00  0.00    +0.000 OA
ATOM     30  H   UNL     1       3.754   1.789  21.304  0.00  0.00    +0.000 HD
ENDBRANCH  28  29
ENDBRANCH   1  28
TORSDOF 7
ENDMDL
MODEL 3
REMARK VINA RESULT:      -8.4      0.903      1.029
REMARK  Name = 
REMARK  7 active torsions:
REMARK  status: ('A' for Active; 'I' for Inactive)
REMARK    1  A    between atoms: O_1  and  C_2
REMARK    2  A    between atoms: C_2  and  C_3
REMARK    3  A    between atoms: C_5  and  C_6
REMARK    4  A    between atoms: C_9  and  C_10
REMARK    5  A    between atoms: C_21  and  O_22
REMARK    6  A    between atoms: C_23  and  O_24
REMARK    7  A    between atoms: C_25  and  O_26
REMARK                            x       y       z     vdW  Elec       q    Type
REMARK                         _______ _______ _______ _____ _____    ______ ____
ROOT
ATOM      1  C   UNL     1       6.821   5.648  17.762  0.00  0.00    +0.000 C 
ATOM      2  O   UNL     1       5.619   5.888  18.500  0.00  0.00    +0.000 OA
ATOM      3  C   UNL     1       4.667   4.821  18.454  0.00  0.00    +0.000 C 
ATOM      4  C   UNL     1       4.227   4.541  17.006  0.00  0.00    +0.000 C 
ATOM      5  C   UNL     1       5.464   4.300  16.123  0.00  0.00    +0.000 C 
ATOM      6  C   UNL     1       6.494   5.431  16.279  0.00  0.00    +0.000 C 
ENDROOT
BRANCH   3   7
ATOM      7  C   UNL     1       3.517   5.273  19.285  0.00  0.00    +0.000 A 
ATOM      8  N   UNL     1       2.753   4.590  20.109  0.00  0.00    +0.000 NA
ATOM      9  N   UNL     1       1.865   5.498  20.650  0.00  0.00    +0.000 NA
ATOM     10  C   UNL     1       2.154   6.671  20.125  0.00  0.00    +0.000 A 
ATOM     11  O   UNL     1       3.195   6.608  19.241  0.00  0.00    +0.000 OA
BRANCH  10  12
ATOM     12  C   UNL     1       1.516   7.968  20.318  0.00  0.00    +0.000 A 
ATOM     13  C   UNL     1       1.502   8.948  19.320  0.00  0.00    +0.000 A 
ATOM     14  C   UNL     1       0.829  10.160  19.519  0.00  0.00    +0.000 A 
ATOM     15  C   UNL     1       0.154  10.415  20.722  0.00  0.00    +0.000 A 
ATOM     16  C   UNL     1      -0.560  11.606  20.929  0.00  0.00    +0.000 A 
ATOM     17  C   UNL     1      -1.230  11.836  22.132  0.00  0.00    +0.000 A 
ATOM     18  C   UNL     1      -1.187  10.885  23.147  0.00  0.00    +0.000 A 
ATOM     19  C   UNL     1      -0.481   9.697  22.957  0.00  0.00    +0.000 A 
ATOM     20  C   UNL     1       0.185   9.444  21.748  0.00  0.00    +0.000 A 
ATOM     21  C   UNL     1       0.870   8.236  21.535  0.00  0.00    +0.000 A 
ENDBRANCH  10  12
ENDBRANCH   3   7
BRANCH   4  22
ATOM     22  O   UNL     1       3.330   3.428  16.921  0.00  0.00    +0.000 OA
ATOM     23  H   UNL     1       2.417   3.732  17.076  0.00  0.00    +0.000 HD
ENDBRANCH   4  22
BRANCH   5  24
ATOM     24  O   UNL     1       5.089   4.161  14.749  0.00  0.00    +0.000 OA
ATOM     25  H   UNL     1       4.930   3.216  14.562  0.00  0.00    +0.000 HD
ENDBRANCH   5  24
BRANCH   6  26
ATOM     26  O   UNL     1       7.688   5.159  15.542  0.00  0.00    +0.000 OA
ATOM     27  H   UNL     1       7.570   5.462  14.625  0.00  0.00    +0.000 HD
ENDBRANCH   6  26
BRANCH   1  28
ATOM     28  C   UNL     1       7.720   6.881  17.934  0.00  0.00    +0.000 C 
BRANCH  28  29
ATOM     29  O   UNL     1       7.307   7.914  17.040  0.00  0.00    +0.000 OA
ATOM     30  H   UNL     1       8.011   8.009  16.375  0.00  0.00    +0.000 HD
ENDBRANCH  28  29
ENDBRANCH   1  28
TORSDOF 7
ENDMDL
MODEL 4
REMARK VINA RESULT:      -8.3      2.061      3.079
REMARK  Name = 
REMARK  7 active torsions:
REMARK  status: ('A' for Active; 'I' for Inactive)
REMARK    1  A    between atoms: O_1  and  C_2
REMARK    2  A    between atoms: C_2  and  C_3
REMARK    3  A    between atoms: C_5  and  C_6
REMARK    4  A    between atoms: C_9  and  C_10
REMARK    5  A    between atoms: C_21  and  O_22
REMARK    6  A    between atoms: C_23  and  O_24
REMARK    7  A    between atoms: C_25  and  O_26
REMARK                            x       y       z     vdW  Elec       q    Type
REMARK                         _______ _______ _______ _____ _____    ______ ____
ROOT
ATOM      1  C   UNL     1       5.208   4.771  18.766  0.00  0.00    +0.000 C 
ATOM      2  O   UNL     1       4.416   5.903  18.397  0.00  0.00    +0.000 OA
ATOM      3  C   UNL     1       3.418   6.272  19.354  0.00  0.00    +0.000 C 
ATOM      4  C   UNL     1       2.427   5.117  19.583  0.00  0.00    +0.000 C 
ATOM      5  C   UNL     1       3.195   3.837  19.957  0.00  0.00    +0.000 C 
ATOM      6  C   UNL     1       4.312   3.538  18.945  0.00  0.00    +0.000 C 
ENDROOT
BRANCH   3   7
ATOM      7  C   UNL     1       2.731   7.461  18.780  0.00  0.00    +0.000 A 
ATOM      8  N   UNL     1       2.819   7.987  17.577  0.00  0.00    +0.000 NA
ATOM      9  N   UNL     1       1.943   9.053  17.559  0.00  0.00    +0.000 NA
ATOM     10  C   UNL     1       1.375   9.098  18.747  0.00  0.00    +0.000 A 
ATOM     11  O   UNL     1       1.829   8.117  19.584  0.00  0.00    +0.000 OA
BRANCH  10  12
ATOM     12  C   UNL     1       0.400  10.039  19.285  0.00  0.00    +0.000 A 
ATOM     13  C   UNL     1      -0.423  10.814  18.461  0.00  0.00    +0.000 A 
ATOM     14  C   UNL     1      -1.389  11.664  19.013  0.00  0.00    +0.000 A 
ATOM     15  C   UNL     1      -1.552  11.755  20.403  0.00  0.00    +0.000 A 
ATOM     16  C   UNL     1      -2.539  12.572  20.978  0.00  0.00    +0.000 A 
ATOM     17  C   UNL     1      -2.688  12.643  22.364  0.00  0.00    +0.000 A 
ATOM     18  C   UNL     1      -1.847  11.908  23.194  0.00  0.00    +0.000 A 
ATOM     19  C   UNL     1      -0.860  11.093  22.638  0.00  0.00    +0.000 A 
ATOM     20  C   UNL     1      -0.708  11.000  21.246  0.00  0.00    +0.000 A 
ATOM     21  C   UNL     1       0.261  10.156  20.677  0.00  0.00    +0.000 A 
ENDBRANCH  10  12
ENDBRANCH   3   7
BRANCH   4  22
ATOM     22  O   UNL     1       1.459   5.430  20.591  0.00  0.00    +0.000 OA
ATOM     23  H   UNL     1       1.878   5.957  21.295  0.00  0.00    +0.000 HD
ENDBRANCH   4  22
BRANCH   5  24
ATOM     24  O   UNL     1       2.305   2.720  20.053  0.00  0.00    +0.000 OA
ATOM     25  H   UNL     1       2.616   2.019  19.450  0.00  0.00    +0.000 HD
ENDBRANCH   5  24
BRANCH   6  26
ATOM     26  O   UNL     1       5.094   2.410  19.345  0.00  0.00    +0.000 OA
ATOM     27  H   UNL     1       4.499   1.671  19.558  0.00  0.00    +0.000 HD
ENDBRANCH   6  26
BRANCH   1  28
ATOM     28  C   UNL     1       6.223   4.533  17.639  0.00  0.00    +0.000 C 
BRANCH  28  29
ATOM     29  O   UNL     1       7.495   4.194  18.192  0.00  0.00    +0.000 OA
ATOM     30  H   UNL     1       8.125   4.160  17.451  0.00  0.00    +0.000 HD
ENDBRANCH  28  29
ENDBRANCH   1  28
TORSDOF 7
ENDMDL
MODEL 5
REMARK VINA RESULT:      -8.2      3.783      8.369
REMARK  Name = 
REMARK  7 active torsions:
REMARK  status: ('A' for Active; 'I' for Inactive)
REMARK    1  A    between atoms: O_1  and  C_2
REMARK    2  A    between atoms: C_2  and  C_3
REMARK    3  A    between atoms: C_5  and  C_6
REMARK    4  A    between atoms: C_9  and  C_10
REMARK    5  A    between atoms: C_21  and  O_22
REMARK    6  A    between atoms: C_23  and  O_24
REMARK    7  A    between atoms: C_25  and  O_26
REMARK                            x       y       z     vdW  Elec       q    Type
REMARK                         _______ _______ _______ _____ _____    ______ ____
ROOT
ATOM      1  C   UNL     1      -0.409  11.112  21.915  0.00  0.00    +0.000 C 
ATOM      2  O   UNL     1       0.255  10.301  20.941  0.00  0.00    +0.000 OA
ATOM      3  C   UNL     1       0.682  11.002  19.770  0.00  0.00    +0.000 C 
ATOM      4  C   UNL     1      -0.517  11.641  19.046  0.00  0.00    +0.000 C 
ATOM      5  C   UNL     1      -1.315  12.514  20.029  0.00  0.00    +0.000 C 
ATOM      6  C   UNL     1      -1.671  11.738  21.308  0.00  0.00    +0.000 C 
ENDROOT
BRANCH   3   7
ATOM      7  C   UNL     1       1.346   9.984  18.911  0.00  0.00    +0.000 A 
ATOM      8  N   UNL     1       1.758  10.071  17.665  0.00  0.00    +0.000 NA
ATOM      9  N   UNL     1       2.337   8.854  17.366  0.00  0.00    +0.000 NA
ATOM     10  C   UNL     1       2.247   8.114  18.452  0.00  0.00    +0.000 A 
ATOM     11  O   UNL     1       1.622   8.764  19.480  0.00  0.00    +0.000 OA
BRANCH  10  12
ATOM     12  C   UNL     1       2.666   6.737  18.686  0.00  0.00    +0.000 A 
ATOM     13  C   UNL     1       3.575   6.081  17.849  0.00  0.00    +0.000 A 
ATOM     14  C   UNL     1       3.999   4.778  18.137  0.00  0.00    +0.000 A 
ATOM     15  C   UNL     1       3.523   4.105  19.272  0.00  0.00    +0.000 A 
ATOM     16  C   UNL     1       3.963   2.813  19.602  0.00  0.00    +0.000 A 
ATOM     17  C   UNL     1       3.481   2.164  20.740  0.00  0.00    +0.000 A 
ATOM     18  C   UNL     1       2.545   2.792  21.556  0.00  0.00    +0.000 A 
ATOM     19  C   UNL     1       2.097   4.074  21.241  0.00  0.00    +0.000 A 
ATOM     20  C   UNL     1       2.583   4.746  20.109  0.00  0.00    +0.000 A 
ATOM     21  C   UNL     1       2.163   6.051  19.802  0.00  0.00    +0.000 A 
ENDBRANCH  10  12
ENDBRANCH   3   7
BRANCH   4  22
ATOM     22  O   UNL     1      -0.111  12.412  17.910  0.00  0.00    +0.000 OA
ATOM     23  H   UNL     1      -0.702  12.224  17.159  0.00  0.00    +0.000 HD
ENDBRANCH   4  22
BRANCH   5  24
ATOM     24  O   UNL     1      -2.504  13.018  19.412  0.00  0.00    +0.000 OA
ATOM     25  H   UNL     1      -2.339  13.933  19.115  0.00  0.00    +0.000 HD
ENDBRANCH   5  24
BRANCH   6  26
ATOM     26  O   UNL     1      -2.321  12.575  22.267  0.00  0.00    +0.000 OA
ATOM     27  H   UNL     1      -2.952  12.041  22.778  0.00  0.00    +0.000 HD
ENDBRANCH   6  26
BRANCH   1  28
ATOM     28  C   UNL     1      -0.780  10.202  23.095  0.00  0.00    +0.000 C 
BRANCH  28  29
ATOM     29  O   UNL     1       0.404   9.722  23.731  0.00  0.00    +0.000 OA
ATOM     30  H   UNL     1       0.978   9.367  23.030  0.00  0.00    +0.000 HD
ENDBRANCH  28  29
ENDBRANCH   1  28
TORSDOF 7
ENDMDL
MODEL 6
REMARK VINA RESULT:      -8.2      1.938      3.216
REMARK  Name = 
REMARK  7 active torsions:
REMARK  status: ('A' for Active; 'I' for Inactive)
REMARK    1  A    between atoms: O_1  and  C_2
REMARK    2  A    between atoms: C_2  and  C_3
REMARK    3  A    between atoms: C_5  and  C_6
REMARK    4  A    between atoms: C_9  and  C_10
REMARK    5  A    between atoms: C_21  and  O_22
REMARK    6  A    between atoms: C_23  and  O_24
REMARK    7  A    between atoms: C_25  and  O_26
REMARK                            x       y       z     vdW  Elec       q    Type
REMARK                         _______ _______ _______ _____ _____    ______ ____
ROOT
ATOM      1  C   UNL     1       4.572   3.739  17.986  0.00  0.00    +0.000 C 
ATOM      2  O   UNL     1       3.967   5.030  18.101  0.00  0.00    +0.000 OA
ATOM      3  C   UNL     1       3.150   5.207  19.262  0.00  0.00    +0.000 C 
ATOM      4  C   UNL     1       1.993   4.192  19.276  0.00  0.00    +0.000 C 
ATOM      5  C   UNL     1       2.548   2.765  19.125  0.00  0.00    +0.000 C 
ATOM      6  C   UNL     1       3.489   2.655  17.915  0.00  0.00    +0.000 C 
ENDROOT
BRANCH   3   7
ATOM      7  C   UNL     1       2.638   6.602  19.185  0.00  0.00    +0.000 A 
ATOM      8  N   UNL     1       2.783   7.502  18.237  0.00  0.00    +0.000 NA
ATOM      9  N   UNL     1       2.075   8.613  18.650  0.00  0.00    +0.000 NA
ATOM     10  C   UNL     1       1.540   8.310  19.815  0.00  0.00    +0.000 A 
ATOM     11  O   UNL     1       1.857   7.045  20.226  0.00  0.00    +0.000 OA
BRANCH  10  12
ATOM     12  C   UNL     1       0.724   9.120  20.712  0.00  0.00    +0.000 A 
ATOM     13  C   UNL     1       0.695   8.906  22.094  0.00  0.00    +0.000 A 
ATOM     14  C   UNL     1      -0.055   9.741  22.931  0.00  0.00    +0.000 A 
ATOM     15  C   UNL     1      -0.791  10.811  22.401  0.00  0.00    +0.000 A 
ATOM     16  C   UNL     1      -1.519  11.684  23.225  0.00  0.00    +0.000 A 
ATOM     17  C   UNL     1      -2.240  12.748  22.676  0.00  0.00    +0.000 A 
ATOM     18  C   UNL     1      -2.251  12.944  21.299  0.00  0.00    +0.000 A 
ATOM     19  C   UNL     1      -1.533  12.084  20.467  0.00  0.00    +0.000 A 
ATOM     20  C   UNL     1      -0.792  11.021  21.004  0.00  0.00    +0.000 A 
ATOM     21  C   UNL     1      -0.039  10.170  20.177  0.00  0.00    +0.000 A 
ENDBRANCH  10  12
ENDBRANCH   3   7
BRANCH   4  22
ATOM     22  O   UNL     1       1.200   4.295  20.465  0.00  0.00    +0.000 OA
ATOM     23  H   UNL     1       1.450   3.588  21.087  0.00  0.00    +0.000 HD
ENDBRANCH   4  22
BRANCH   5  24
ATOM     24  O   UNL     1       1.484   1.815  19.011  0.00  0.00    +0.000 OA
ATOM     25  H   UNL     1       1.214   1.758  18.074  0.00  0.00    +0.000 HD
ENDBRANCH   5  24
BRANCH   6  26
ATOM     26  O   UNL     1       4.089   1.360  17.832  0.00  0.00    +0.000 OA
ATOM     27  H   UNL     1       4.156   0.984  18.727  0.00  0.00    +0.000 HD
ENDBRANCH   6  26
BRANCH   1  28
ATOM     28  C   UNL     1       5.413   3.738  16.701  0.00  0.00    +0.000 C 
BRANCH  28  29
ATOM     29  O   UNL     1       6.764   4.083  17.002  0.00  0.00    +0.000 OA
ATOM     30  H   UNL     1       7.327   3.598  16.374  0.00  0.00    +0.000 HD
ENDBRANCH  28  29
ENDBRANCH   1  28
TORSDOF 7
ENDMDL
MODEL 7
REMARK VINA RESULT:      -8.1      0.684      1.738
REMARK  Name = 
REMARK  7 active torsions:
REMARK  status: ('A' for Active; 'I' for Inactive)
REMARK    1  A    between atoms: O_1  and  C_2
REMARK    2  A    between atoms: C_2  and  C_3
REMARK    3  A    between atoms: C_5  and  C_6
REMARK    4  A    between atoms: C_9  and  C_10
REMARK    5  A    between atoms: C_21  and  O_22
REMARK    6  A    between atoms: C_23  and  O_24
REMARK    7  A    between atoms: C_25  and  O_26
REMARK                            x       y       z     vdW  Elec       q    Type
REMARK                         _______ _______ _______ _____ _____    ______ ____
ROOT
ATOM      1  C   UNL     1       6.733   4.818  18.595  0.00  0.00    +0.000 C 
ATOM      2  O   UNL     1       5.496   5.205  19.200  0.00  0.00    +0.000 OA
ATOM      3  C   UNL     1       4.373   4.400  18.831  0.00  0.00    +0.000 C 
ATOM      4  C   UNL     1       4.136   4.452  17.312  0.00  0.00    +0.000 C 
ATOM      5  C   UNL     1       5.432   4.079  16.569  0.00  0.00    +0.000 C 
ATOM      6  C   UNL     1       6.624   4.912  17.067  0.00  0.00    +0.000 C 
ENDROOT
BRANCH   3   7
ATOM      7  C   UNL     1       3.212   4.965  19.573  0.00  0.00    +0.000 A 
ATOM      8  N   UNL     1       2.302   4.358  20.303  0.00  0.00    +0.000 NA
ATOM      9  N   UNL     1       1.480   5.351  20.796  0.00  0.00    +0.000 NA
ATOM     10  C   UNL     1       1.950   6.494  20.340  0.00  0.00    +0.000 A 
ATOM     11  O   UNL     1       3.053   6.329  19.548  0.00  0.00    +0.000 OA
BRANCH  10  12
ATOM     12  C   UNL     1       1.452   7.852  20.521  0.00  0.00    +0.000 A 
ATOM     13  C   UNL     1       0.865   8.279  21.717  0.00  0.00    +0.000 A 
ATOM     14  C   UNL     1       0.451   9.607  21.875  0.00  0.00    +0.000 A 
ATOM     15  C   UNL     1       0.617  10.537  20.839  0.00  0.00    +0.000 A 
ATOM     16  C   UNL     1       0.244  11.882  20.988  0.00  0.00    +0.000 A 
ATOM     17  C   UNL     1       0.425  12.793  19.945  0.00  0.00    +0.000 A 
ATOM     18  C   UNL     1       0.969  12.369  18.737  0.00  0.00    +0.000 A 
ATOM     19  C   UNL     1       1.343  11.035  18.572  0.00  0.00    +0.000 A 
ATOM     20  C   UNL     1       1.182  10.111  19.616  0.00  0.00    +0.000 A 
ATOM     21  C   UNL     1       1.587   8.774  19.471  0.00  0.00    +0.000 A 
ENDBRANCH  10  12
ENDBRANCH   3   7
BRANCH   4  22
ATOM     22  O   UNL     1       3.063   3.596  16.903  0.00  0.00    +0.000 OA
ATOM     23  H   UNL     1       2.739   3.091  17.670  0.00  0.00    +0.000 HD
ENDBRANCH   4  22
BRANCH   5  24
ATOM     24  O   UNL     1       5.273   4.242  15.156  0.00  0.00    +0.000 OA
ATOM     25  H   UNL     1       5.991   3.761  14.703  0.00  0.00    +0.000 HD
ENDBRANCH   5  24
BRANCH   6  26
ATOM     26  O   UNL     1       7.847   4.496  16.455  0.00  0.00    +0.000 OA
ATOM     27  H   UNL     1       8.024   5.062  15.685  0.00  0.00    +0.000 HD
ENDBRANCH   6  26
BRANCH   1  28
ATOM     28  C   UNL     1       7.817   5.776  19.111  0.00  0.00    +0.000 C 
BRANCH  28  29
ATOM     29  O   UNL     1       8.122   5.478  20.473  0.00  0.00    +0.000 OA
ATOM     30  H   UNL     1       8.988   5.878  20.662  0.00  0.00    +0.000 HD
ENDBRANCH  28  29
ENDBRANCH   1  28
TORSDOF 7
ENDMDL
MODEL 8
REMARK VINA RESULT:      -8.1      2.338      2.999
REMARK  Name = 
REMARK  7 active torsions:
REMARK  status: ('A' for Active; 'I' for Inactive)
REMARK    1  A    between atoms: O_1  and  C_2
REMARK    2  A    between atoms: C_2  and  C_3
REMARK    3  A    between atoms: C_5  and  C_6
REMARK    4  A    between atoms: C_9  and  C_10
REMARK    5  A    between atoms: C_21  and  O_22
REMARK    6  A    between atoms: C_23  and  O_24
REMARK    7  A    between atoms: C_25  and  O_26
REMARK                            x       y       z     vdW  Elec       q    Type
REMARK                         _______ _______ _______ _____ _____    ______ ____
ROOT
ATOM      1  C   UNL     1       5.518   5.366  16.285  0.00  0.00    +0.000 C 
ATOM      2  O   UNL     1       4.584   6.402  16.599  0.00  0.00    +0.000 OA
ATOM      3  C   UNL     1       3.990   6.299  17.897  0.00  0.00    +0.000 C 
ATOM      4  C   UNL     1       3.221   4.974  18.044  0.00  0.00    +0.000 C 
ATOM      5  C   UNL     1       4.144   3.794  17.693  0.00  0.00    +0.000 C 
ATOM      6  C   UNL     1       4.823   3.999  16.329  0.00  0.00    +0.000 C 
ENDROOT
BRANCH   3   7
ATOM      7  C   UNL     1       3.074   7.466  18.014  0.00  0.00    +0.000 A 
ATOM      8  N   UNL     1       2.724   8.357  17.113  0.00  0.00    +0.000 NA
ATOM      9  N   UNL     1       1.822   9.197  17.732  0.00  0.00    +0.000 NA
ATOM     10  C   UNL     1       1.677   8.756  18.965  0.00  0.00    +0.000 A 
ATOM     11  O   UNL     1       2.447   7.656  19.223  0.00  0.00    +0.000 OA
BRANCH  10  12
ATOM     12  C   UNL     1       0.874   9.283  20.062  0.00  0.00    +0.000 A 
ATOM     13  C   UNL     1       0.910   8.730  21.347  0.00  0.00    +0.000 A 
ATOM     14  C   UNL     1       0.169   9.299  22.390  0.00  0.00    +0.000 A 
ATOM     15  C   UNL     1      -0.624  10.435  22.168  0.00  0.00    +0.000 A 
ATOM     16  C   UNL     1      -1.345  11.044  23.208  0.00  0.00    +0.000 A 
ATOM     17  C   UNL     1      -2.123  12.179  22.966  0.00  0.00    +0.000 A 
ATOM     18  C   UNL     1      -2.198  12.711  21.683  0.00  0.00    +0.000 A 
ATOM     19  C   UNL     1      -1.489  12.116  20.640  0.00  0.00    +0.000 A 
ATOM     20  C   UNL     1      -0.691  10.985  20.869  0.00  0.00    +0.000 A 
ATOM     21  C   UNL     1       0.054  10.399  19.832  0.00  0.00    +0.000 A 
ENDBRANCH  10  12
ENDBRANCH   3   7
BRANCH   4  22
ATOM     22  O   UNL     1       2.679   4.809  19.359  0.00  0.00    +0.000 OA
ATOM     23  H   UNL     1       3.404   4.738  20.005  0.00  0.00    +0.000 HD
ENDBRANCH   4  22
BRANCH   5  24
ATOM     24  O   UNL     1       3.417   2.561  17.700  0.00  0.00    +0.000 OA
ATOM     25  H   UNL     1       2.570   2.699  18.166  0.00  0.00    +0.000 HD
ENDBRANCH   5  24
BRANCH   6  26
ATOM     26  O   UNL     1       5.760   2.957  16.047  0.00  0.00    +0.000 OA
ATOM     27  H   UNL     1       6.049   2.555  16.885  0.00  0.00    +0.000 HD
ENDBRANCH   6  26
BRANCH   1  28
ATOM     28  C   UNL     1       6.056   5.645  14.874  0.00  0.00    +0.000 C 
BRANCH  28  29
ATOM     29  O   UNL     1       7.447   5.331  14.812  0.00  0.00    +0.000 OA
ATOM     30  H   UNL     1       7.544   4.603  14.173  0.00  0.00    +0.000 HD
ENDBRANCH  28  29
ENDBRANCH   1  28
TORSDOF 7
ENDMDL
MODEL 9
REMARK VINA RESULT:      -8.1      3.905      8.687
REMARK  Name = 
REMARK  7 active torsions:
REMARK  status: ('A' for Active; 'I' for Inactive)
REMARK    1  A    between atoms: O_1  and  C_2
REMARK    2  A    between atoms: C_2  and  C_3
REMARK    3  A    between atoms: C_5  and  C_6
REMARK    4  A    between atoms: C_9  and  C_10
REMARK    5  A    between atoms: C_21  and  O_22
REMARK    6  A    between atoms: C_23  and  O_24
REMARK    7  A    between atoms: C_25  and  O_26
REMARK                            x       y       z     vdW  Elec       q    Type
REMARK                         _______ _______ _______ _____ _____    ______ ____
ROOT
ATOM      1  C   UNL     1      -0.407  11.371  21.922  0.00  0.00    +0.000 C 
ATOM      2  O   UNL     1       0.220  10.462  21.013  0.00  0.00    +0.000 OA
ATOM      3  C   UNL     1       0.721  11.065  19.816  0.00  0.00    +0.000 C 
ATOM      4  C   UNL     1      -0.414  11.741  19.026  0.00  0.00    +0.000 C 
ATOM      5  C   UNL     1      -1.172  12.721  19.938  0.00  0.00    +0.000 C 
ATOM      6  C   UNL     1      -1.609  12.046  21.248  0.00  0.00    +0.000 C 
ENDROOT
BRANCH   3   7
ATOM      7  C   UNL     1       1.331   9.956  19.033  0.00  0.00    +0.000 A 
ATOM      8  N   UNL     1       1.814   9.954  17.809  0.00  0.00    +0.000 NA
ATOM      9  N   UNL     1       2.293   8.679  17.587  0.00  0.00    +0.000 NA
ATOM     10  C   UNL     1       2.078   7.995  18.692  0.00  0.00    +0.000 A 
ATOM     11  O   UNL     1       1.463   8.740  19.660  0.00  0.00    +0.000 OA
BRANCH  10  12
ATOM     12  C   UNL     1       2.355   6.596  18.999  0.00  0.00    +0.000 A 
ATOM     13  C   UNL     1       2.184   6.065  20.282  0.00  0.00    +0.000 A 
ATOM     14  C   UNL     1       2.404   4.704  20.526  0.00  0.00    +0.000 A 
ATOM     15  C   UNL     1       2.798   3.845  19.490  0.00  0.00    +0.000 A 
ATOM     16  C   UNL     1       2.987   2.470  19.703  0.00  0.00    +0.000 A 
ATOM     17  C   UNL     1       3.373   1.632  18.655  0.00  0.00    +0.000 A 
ATOM     18  C   UNL     1       3.586   2.158  17.385  0.00  0.00    +0.000 A 
ATOM     19  C   UNL     1       3.404   3.522  17.157  0.00  0.00    +0.000 A 
ATOM     20  C   UNL     1       3.001   4.375  18.196  0.00  0.00    +0.000 A 
ATOM     21  C   UNL     1       2.782   5.744  17.969  0.00  0.00    +0.000 A 
ENDBRANCH  10  12
ENDBRANCH   3   7
BRANCH   4  22
ATOM     22  O   UNL     1       0.069  12.417  17.860  0.00  0.00    +0.000 OA
ATOM     23  H   UNL     1      -0.619  12.413  17.171  0.00  0.00    +0.000 HD
ENDBRANCH   4  22
BRANCH   5  24
ATOM     24  O   UNL     1      -2.309  13.269  19.263  0.00  0.00    +0.000 OA
ATOM     25  H   UNL     1      -2.425  12.800  18.414  0.00  0.00    +0.000 HD
ENDBRANCH   5  24
BRANCH   6  26
ATOM     26  O   UNL     1      -2.221  12.979  22.141  0.00  0.00    +0.000 OA
ATOM     27  H   UNL     1      -2.834  12.502  22.726  0.00  0.00    +0.000 HD
ENDBRANCH   6  26
BRANCH   1  28
ATOM     28  C   UNL     1      -0.867  10.558  23.141  0.00  0.00    +0.000 C 
BRANCH  28  29
ATOM     29  O   UNL     1       0.232   9.824  23.680  0.00  0.00    +0.000 OA
ATOM     30  H   UNL     1      -0.144   9.118  24.234  0.00  0.00    +0.000 HD
ENDBRANCH  28  29
ENDBRANCH   1  28
TORSDOF 7
ENDMDL
