MODEL 1
REMARK VINA RESULT:      -7.8      0.000      0.000
REMARK  Name = 
REMARK  5 active torsions:
REMARK  status: ('A' for Active; 'I' for Inactive)
REMARK    1  A    between atoms: C_1  and  O_2
REMARK    2  A    between atoms: O_2  and  C_3
REMARK    3  A    between atoms: C_19  and  O_20
REMARK    4  A    between atoms: O_20  and  C_21
REMARK    5  A    between atoms: N_26  and  C_27
REMARK                            x       y       z     vdW  Elec       q    Type
REMARK                         _______ _______ _______ _____ _____    ______ ____
ROOT
ATOM      1  C   UNL     1       2.323   4.391  18.616  0.00  0.00    +0.000 A 
ATOM      2  C   UNL     1       2.073   4.417  19.981  0.00  0.00    +0.000 A 
ATOM      3  C   UNL     1       1.926   5.632  20.633  0.00  0.00    +0.000 A 
ATOM      4  C   UNL     1       2.062   6.817  19.922  0.00  0.00    +0.000 A 
ATOM      5  C   UNL     1       1.811   8.140  20.257  0.00  0.00    +0.000 A 
ATOM      6  C   UNL     1       1.740   8.946  19.120  0.00  0.00    +0.000 A 
ATOM      7  N   UNL     1       2.130   8.096  18.086  0.00  0.00    +0.000 N 
ATOM      8  C   UNL     1       2.234   6.753  18.570  0.00  0.00    +0.000 A 
ATOM      9  C   UNL     1       2.393   5.570  17.845  0.00  0.00    +0.000 A 
ATOM     10  C   UNL     1       0.950  10.288  18.998  0.00  0.00    +0.000 C 
ATOM     11  N   UNL     1      -0.145  10.027  19.768  0.00  0.00    +0.000 N 
ATOM     12  C   UNL     1       0.737   9.875  21.344  0.00  0.00    +0.000 C 
ATOM     13  C   UNL     1       1.292   8.532  21.569  0.00  0.00    +0.000 C 
ATOM     14  C   UNL     1      -0.944  11.523  19.257  0.00  0.00    +0.000 C 
ATOM     15  O   UNL     1      -1.272  11.706  18.077  0.00  0.00    +0.000 OA
ATOM     16  C   UNL     1      -0.619  12.919  20.320  0.00  0.00    +0.000 A 
ATOM     17  C   UNL     1      -0.472  13.599  21.695  0.00  0.00    +0.000 A 
ATOM     18  C   UNL     1      -1.322  13.521  22.812  0.00  0.00    +0.000 A 
ATOM     19  C   UNL     1      -2.350  12.777  22.509  0.00  0.00    +0.000 A 
ATOM     20  C   UNL     1      -1.867  11.868  21.530  0.00  0.00    +0.000 A 
ATOM     21  C   UNL     1      -0.513  11.745  20.791  0.00  0.00    +0.000 A 
ATOM     22  N   UNL     1       1.040  11.651  19.970  0.00  0.00    +0.000 N 
ATOM     23  C   UNL     1       2.086  12.417  19.145  0.00  0.00    +0.000 C 
ATOM     24  H   UNL     1       2.103   8.289  17.097  0.00  0.00    +0.000 HD
ENDROOT
BRANCH   1  26
ATOM     25  C   UNL     1       1.714   2.169  18.926  0.00  0.00    +0.000 C 
ATOM     26  O   UNL     1       2.345   3.126  18.092  0.00  0.00    +0.000 OA
ENDBRANCH   1  26
BRANCH  17  27
ATOM     27  O   UNL     1       0.746  13.981  22.315  0.00  0.00    +0.000 OA
ATOM     28  C   UNL     1       1.212  15.106  21.675  0.00  0.00    +0.000 C 
ENDBRANCH  17  27
TORSDOF 2
ENDMDL
MODEL 2
REMARK VINA RESULT:      -7.2      1.203      1.432
REMARK  Name = 
REMARK  5 active torsions:
REMARK  status: ('A' for Active; 'I' for Inactive)
REMARK    1  A    between atoms: C_1  and  O_2
REMARK    2  A    between atoms: O_2  and  C_3
REMARK    3  A    between atoms: C_19  and  O_20
REMARK    4  A    between atoms: O_20  and  C_21
REMARK    5  A    between atoms: N_26  and  C_27
REMARK                            x       y       z     vdW  Elec       q    Type
REMARK                         _______ _______ _______ _____ _____    ______ ____
ROOT
ATOM      1  C   UNL     1       2.380   5.511  18.764  0.00  0.00    +0.000 A 
ATOM      2  C   UNL     1       1.978   5.315  20.078  0.00  0.00    +0.000 A 
ATOM      3  C   UNL     1       1.633   6.404  20.865  0.00  0.00    +0.000 A 
ATOM      4  C   UNL     1       1.723   7.687  20.343  0.00  0.00    +0.000 A 
ATOM      5  C   UNL     1       1.300   8.921  20.819  0.00  0.00    +0.000 A 
ATOM      6  C   UNL     1       1.273   9.874  19.802  0.00  0.00    +0.000 A 
ATOM      7  N   UNL     1       1.862   9.223  18.720  0.00  0.00    +0.000 N 
ATOM      8  C   UNL     1       2.051   7.838  19.027  0.00  0.00    +0.000 A 
ATOM      9  C   UNL     1       2.412   6.792  18.175  0.00  0.00    +0.000 A 
ATOM     10  C   UNL     1       0.366  11.146  19.765  0.00  0.00    +0.000 C 
ATOM     11  N   UNL     1      -0.775  10.681  20.350  0.00  0.00    +0.000 N 
ATOM     12  C   UNL     1      -0.062  10.376  21.988  0.00  0.00    +0.000 C 
ATOM     13  C   UNL     1       0.601   9.069  22.098  0.00  0.00    +0.000 C 
ATOM     14  C   UNL     1      -1.663  12.160  19.949  0.00  0.00    +0.000 C 
ATOM     15  O   UNL     1      -1.875  12.484  18.773  0.00  0.00    +0.000 OA
ATOM     16  C   UNL     1      -1.606  13.407  21.223  0.00  0.00    +0.000 A 
ATOM     17  C   UNL     1      -1.684  13.889  22.685  0.00  0.00    +0.000 A 
ATOM     18  C   UNL     1      -2.641  13.575  23.666  0.00  0.00    +0.000 A 
ATOM     19  C   UNL     1      -3.545  12.796  23.140  0.00  0.00    +0.000 A 
ATOM     20  C   UNL     1      -2.864  12.086  22.115  0.00  0.00    +0.000 A 
ATOM     21  C   UNL     1      -1.432  12.191  21.541  0.00  0.00    +0.000 A 
ATOM     22  N   UNL     1       0.205  12.355  20.915  0.00  0.00    +0.000 N 
ATOM     23  C   UNL     1       1.251  13.321  20.339  0.00  0.00    +0.000 C 
ATOM     24  H   UNL     1       1.925   9.555  17.770  0.00  0.00    +0.000 HD
ENDROOT
BRANCH   1  26
ATOM     25  C   UNL     1       1.573   3.381  18.300  0.00  0.00    +0.000 C 
ATOM     26  O   UNL     1       2.591   4.344  18.081  0.00  0.00    +0.000 OA
ENDBRANCH   1  26
BRANCH  17  27
ATOM     27  O   UNL     1      -0.589  14.282  23.499  0.00  0.00    +0.000 OA
ATOM     28  C   UNL     1      -1.036  15.244  24.374  0.00  0.00    +0.000 C 
ENDBRANCH  17  27
TORSDOF 2
ENDMDL
MODEL 3
REMARK VINA RESULT:      -6.8      2.403      4.295
REMARK  Name = 
REMARK  5 active torsions:
REMARK  status: ('A' for Active; 'I' for Inactive)
REMARK    1  A    between atoms: C_1  and  O_2
REMARK    2  A    between atoms: O_2  and  C_3
REMARK    3  A    between atoms: C_19  and  O_20
REMARK    4  A    between atoms: O_20  and  C_21
REMARK    5  A    between atoms: N_26  and  C_27
REMARK                            x       y       z     vdW  Elec       q    Type
REMARK                         _______ _______ _______ _____ _____    ______ ____
ROOT
ATOM      1  C   UNL     1       2.244   6.696  19.868  0.00  0.00    +0.000 A 
ATOM      2  C   UNL     1       2.545   7.142  18.588  0.00  0.00    +0.000 A 
ATOM      3  C   UNL     1       2.170   8.418  18.194  0.00  0.00    +0.000 A 
ATOM      4  C   UNL     1       1.465   9.230  19.073  0.00  0.00    +0.000 A 
ATOM      5  C   UNL     1       1.112  10.572  19.023  0.00  0.00    +0.000 A 
ATOM      6  C   UNL     1       0.735  11.043  20.281  0.00  0.00    +0.000 A 
ATOM      7  N   UNL     1       0.704   9.894  21.070  0.00  0.00    +0.000 N 
ATOM      8  C   UNL     1       1.251   8.788  20.345  0.00  0.00    +0.000 A 
ATOM      9  C   UNL     1       1.597   7.519  20.813  0.00  0.00    +0.000 A 
ATOM     10  C   UNL     1       0.821  12.525  20.766  0.00  0.00    +0.000 C 
ATOM     11  N   UNL     1       1.964  12.944  20.149  0.00  0.00    +0.000 N 
ATOM     12  C   UNL     1       1.353  12.797  18.450  0.00  0.00    +0.000 C 
ATOM     13  C   UNL     1       1.482  11.439  17.903  0.00  0.00    +0.000 C 
ATOM     14  C   UNL     1       1.963  14.474  21.041  0.00  0.00    +0.000 C 
ATOM     15  O   UNL     1       2.095  14.502  22.272  0.00  0.00    +0.000 OA
ATOM     16  C   UNL     1       1.114  15.801  20.204  0.00  0.00    +0.000 A 
ATOM     17  C   UNL     1       0.766  16.650  18.965  0.00  0.00    +0.000 A 
ATOM     18  C   UNL     1       1.631  17.204  18.006  0.00  0.00    +0.000 A 
ATOM     19  C   UNL     1       2.862  16.923  18.335  0.00  0.00    +0.000 A 
ATOM     20  C   UNL     1       2.779  15.696  19.046  0.00  0.00    +0.000 A 
ATOM     21  C   UNL     1       1.582  14.839  19.521  0.00  0.00    +0.000 A 
ATOM     22  N   UNL     1       0.189  13.903  20.049  0.00  0.00    +0.000 N 
ATOM     23  C   UNL     1      -1.143  13.934  20.815  0.00  0.00    +0.000 C 
ATOM     24  H   UNL     1       0.575   9.845  22.069  0.00  0.00    +0.000 HD
ENDROOT
BRANCH   1  26
ATOM     25  C   UNL     1       3.995   5.213  19.491  0.00  0.00    +0.000 C 
ATOM     26  O   UNL     1       2.762   5.461  20.149  0.00  0.00    +0.000 OA
ENDBRANCH   1  26
BRANCH  17  27
ATOM     27  O   UNL     1      -0.449  16.607  18.233  0.00  0.00    +0.000 OA
ATOM     28  C   UNL     1      -0.610  17.821  17.607  0.00  0.00    +0.000 C 
ENDBRANCH  17  27
TORSDOF 2
ENDMDL
MODEL 4
REMARK VINA RESULT:      -6.7      1.683      2.450
REMARK  Name = 
REMARK  5 active torsions:
REMARK  status: ('A' for Active; 'I' for Inactive)
REMARK    1  A    between atoms: C_1  and  O_2
REMARK    2  A    between atoms: O_2  and  C_3
REMARK    3  A    between atoms: C_19  and  O_20
REMARK    4  A    between atoms: O_20  and  C_21
REMARK    5  A    between atoms: N_26  and  C_27
REMARK                            x       y       z     vdW  Elec       q    Type
REMARK                         _______ _______ _______ _____ _____    ______ ____
ROOT
ATOM      1  C   UNL     1       2.263   6.604  18.671  0.00  0.00    +0.000 A 
ATOM      2  C   UNL     1       1.921   6.222  19.961  0.00  0.00    +0.000 A 
ATOM      3  C   UNL     1       1.527   7.181  20.883  0.00  0.00    +0.000 A 
ATOM      4  C   UNL     1       1.509   8.521  20.520  0.00  0.00    +0.000 A 
ATOM      5  C   UNL     1       1.016   9.653  21.154  0.00  0.00    +0.000 A 
ATOM      6  C   UNL     1       0.886  10.717  20.262  0.00  0.00    +0.000 A 
ATOM      7  N   UNL     1       1.483  10.245  19.094  0.00  0.00    +0.000 N 
ATOM      8  C   UNL     1       1.780   8.851  19.225  0.00  0.00    +0.000 A 
ATOM      9  C   UNL     1       2.184   7.946  18.242  0.00  0.00    +0.000 A 
ATOM     10  C   UNL     1      -0.108  11.913  20.404  0.00  0.00    +0.000 C 
ATOM     11  N   UNL     1      -1.193  11.297  20.957  0.00  0.00    +0.000 N 
ATOM     12  C   UNL     1      -0.405  10.852  22.526  0.00  0.00    +0.000 C 
ATOM     13  C   UNL     1       0.352   9.594  22.459  0.00  0.00    +0.000 C 
ATOM     14  C   UNL     1      -2.197  12.744  20.763  0.00  0.00    +0.000 C 
ATOM     15  O   UNL     1      -2.472  13.190  19.641  0.00  0.00    +0.000 OA
ATOM     16  C   UNL     1      -2.184  13.830  22.178  0.00  0.00    +0.000 A 
ATOM     17  C   UNL     1      -2.246  14.126  23.689  0.00  0.00    +0.000 A 
ATOM     18  C   UNL     1      -3.144  13.626  24.649  0.00  0.00    +0.000 A 
ATOM     19  C   UNL     1      -4.009  12.851  24.054  0.00  0.00    +0.000 A 
ATOM     20  C   UNL     1      -3.315  12.321  22.933  0.00  0.00    +0.000 A 
ATOM     21  C   UNL     1      -1.914  12.600  22.340  0.00  0.00    +0.000 A 
ATOM     22  N   UNL     1      -0.316  12.959  21.697  0.00  0.00    +0.000 N 
ATOM     23  C   UNL     1       0.639  14.063  21.217  0.00  0.00    +0.000 C 
ATOM     24  H   UNL     1       1.490  10.693  18.191  0.00  0.00    +0.000 HD
ENDROOT
BRANCH   1  26
ATOM     25  C   UNL     1       3.898   5.165  17.861  0.00  0.00    +0.000 C 
ATOM     26  O   UNL     1       2.533   5.547  17.845  0.00  0.00    +0.000 OA
ENDBRANCH   1  26
BRANCH  17  27
ATOM     27  O   UNL     1      -1.154  14.498  24.516  0.00  0.00    +0.000 OA
ATOM     28  C   UNL     1      -1.044  15.868  24.480  0.00  0.00    +0.000 C 
ENDBRANCH  17  27
TORSDOF 2
ENDMDL
MODEL 5
REMARK VINA RESULT:      -6.6      3.669      5.572
REMARK  Name = 
REMARK  5 active torsions:
REMARK  status: ('A' for Active; 'I' for Inactive)
REMARK    1  A    between atoms: C_1  and  O_2
REMARK    2  A    between atoms: O_2  and  C_3
REMARK    3  A    between atoms: C_19  and  O_20
REMARK    4  A    between atoms: O_20  and  C_21
REMARK    5  A    between atoms: N_26  and  C_27
REMARK                            x       y       z     vdW  Elec       q    Type
REMARK                         _______ _______ _______ _____ _____    ______ ____
ROOT
ATOM      1  C   UNL     1       1.181   9.005  20.416  0.00  0.00    +0.000 A 
ATOM      2  C   UNL     1       0.771   8.716  21.711  0.00  0.00    +0.000 A 
ATOM      3  C   UNL     1      -0.092   9.579  22.370  0.00  0.00    +0.000 A 
ATOM      4  C   UNL     1      -0.513  10.745  21.744  0.00  0.00    +0.000 A 
ATOM      5  C   UNL     1      -1.476  11.687  22.077  0.00  0.00    +0.000 A 
ATOM      6  C   UNL     1      -1.809  12.481  20.979  0.00  0.00    +0.000 A 
ATOM      7  N   UNL     1      -0.886  12.103  20.004  0.00  0.00    +0.000 N 
ATOM      8  C   UNL     1      -0.149  10.959  20.447  0.00  0.00    +0.000 A 
ATOM      9  C   UNL     1       0.716  10.139  19.719  0.00  0.00    +0.000 A 
ATOM     10  C   UNL     1      -3.167  13.221  20.764  0.00  0.00    +0.000 C 
ATOM     11  N   UNL     1      -4.047  12.330  21.305  0.00  0.00    +0.000 N 
ATOM     12  C   UNL     1      -3.448  12.450  23.010  0.00  0.00    +0.000 C 
ATOM     13  C   UNL     1      -2.299  11.575  23.283  0.00  0.00    +0.000 C 
ATOM     14  C   UNL     1      -5.443  13.247  20.711  0.00  0.00    +0.000 C 
ATOM     15  O   UNL     1      -5.651  13.387  19.499  0.00  0.00    +0.000 OA
ATOM     16  C   UNL     1      -6.064  14.453  21.870  0.00  0.00    +0.000 A 
ATOM     17  C   UNL     1      -6.495  14.921  23.274  0.00  0.00    +0.000 A 
ATOM     18  C   UNL     1      -7.316  14.266  24.208  0.00  0.00    +0.000 A 
ATOM     19  C   UNL     1      -7.734  13.144  23.689  0.00  0.00    +0.000 A 
ATOM     20  C   UNL     1      -6.710  12.757  22.783  0.00  0.00    +0.000 A 
ATOM     21  C   UNL     1      -5.414  13.454  22.306  0.00  0.00    +0.000 A 
ATOM     22  N   UNL     1      -3.955  14.290  21.788  0.00  0.00    +0.000 N 
ATOM     23  C   UNL     1      -3.378  15.589  21.204  0.00  0.00    +0.000 C 
ATOM     24  H   UNL     1      -0.875  12.383  19.036  0.00  0.00    +0.000 HD
ENDROOT
BRANCH   1  26
ATOM     25  C   UNL     1       2.198   8.225  18.476  0.00  0.00    +0.000 C 
ATOM     26  O   UNL     1       1.947   8.018  19.857  0.00  0.00    +0.000 OA
ENDBRANCH   1  26
BRANCH  17  27
ATOM     27  O   UNL     1      -5.768  15.794  24.125  0.00  0.00    +0.000 OA
ATOM     28  C   UNL     1      -5.915  17.074  23.643  0.00  0.00    +0.000 C 
ENDBRANCH  17  27
TORSDOF 2
ENDMDL
MODEL 6
REMARK VINA RESULT:      -6.5      3.025      8.730
REMARK  Name = 
REMARK  5 active torsions:
REMARK  status: ('A' for Active; 'I' for Inactive)
REMARK    1  A    between atoms: C_1  and  O_2
REMARK    2  A    between atoms: O_2  and  C_3
REMARK    3  A    between atoms: C_19  and  O_20
REMARK    4  A    between atoms: O_20  and  C_21
REMARK    5  A    between atoms: N_26  and  C_27
REMARK                            x       y       z     vdW  Elec       q    Type
REMARK                         _______ _______ _______ _____ _____    ______ ____
ROOT
ATOM      1  C   UNL     1      -0.599  10.275  19.901  0.00  0.00    +0.000 A 
ATOM      2  C   UNL     1      -0.022  10.807  18.755  0.00  0.00    +0.000 A 
ATOM      3  C   UNL     1       1.138  10.245  18.241  0.00  0.00    +0.000 A 
ATOM      4  C   UNL     1       1.733   9.174  18.895  0.00  0.00    +0.000 A 
ATOM      5  C   UNL     1       2.771   8.324  18.539  0.00  0.00    +0.000 A 
ATOM      6  C   UNL     1       2.781   7.177  19.334  0.00  0.00    +0.000 A 
ATOM      7  N   UNL     1       1.816   7.438  20.305  0.00  0.00    +0.000 N 
ATOM      8  C   UNL     1       1.100   8.632  19.975  0.00  0.00    +0.000 A 
ATOM      9  C   UNL     1      -0.066   9.142  20.550  0.00  0.00    +0.000 A 
ATOM     10  C   UNL     1       3.366   5.788  18.926  0.00  0.00    +0.000 C 
ATOM     11  N   UNL     1       3.056   5.744  17.598  0.00  0.00    +0.000 N 
ATOM     12  C   UNL     1       4.113   7.125  17.089  0.00  0.00    +0.000 C 
ATOM     13  C   UNL     1       3.474   8.437  17.259  0.00  0.00    +0.000 C 
ATOM     14  C   UNL     1       3.560   4.051  17.468  0.00  0.00    +0.000 C 
ATOM     15  O   UNL     1       2.969   3.155  18.084  0.00  0.00    +0.000 OA
ATOM     16  C   UNL     1       5.269   3.837  17.000  0.00  0.00    +0.000 A 
ATOM     17  C   UNL     1       6.517   4.157  16.155  0.00  0.00    +0.000 A 
ATOM     18  C   UNL     1       6.624   4.302  14.761  0.00  0.00    +0.000 A 
ATOM     19  C   UNL     1       5.457   4.077  14.223  0.00  0.00    +0.000 A 
ATOM     20  C   UNL     1       4.517   4.456  15.218  0.00  0.00    +0.000 A 
ATOM     21  C   UNL     1       4.672   4.913  16.688  0.00  0.00    +0.000 A 
ATOM     22  N   UNL     1       4.900   5.419  18.357  0.00  0.00    +0.000 N 
ATOM     23  C   UNL     1       5.538   5.073  19.711  0.00  0.00    +0.000 C 
ATOM     24  H   UNL     1       1.463   6.797  20.998  0.00  0.00    +0.000 HD
ENDROOT
BRANCH   1  26
ATOM     25  C   UNL     1      -2.178  11.879  19.323  0.00  0.00    +0.000 C 
ATOM     26  O   UNL     1      -1.788  10.864  20.233  0.00  0.00    +0.000 OA
ENDBRANCH   1  26
BRANCH  17  27
ATOM     27  O   UNL     1       7.656   4.888  16.586  0.00  0.00    +0.000 OA
ATOM     28  C   UNL     1       8.053   4.376  17.799  0.00  0.00    +0.000 C 
ENDBRANCH  17  27
TORSDOF 2
ENDMDL
MODEL 7
REMARK VINA RESULT:      -6.4      2.319      3.665
REMARK  Name = 
REMARK  5 active torsions:
REMARK  status: ('A' for Active; 'I' for Inactive)
REMARK    1  A    between atoms: C_1  and  O_2
REMARK    2  A    between atoms: O_2  and  C_3
REMARK    3  A    between atoms: C_19  and  O_20
REMARK    4  A    between atoms: O_20  and  C_21
REMARK    5  A    between atoms: N_26  and  C_27
REMARK                            x       y       z     vdW  Elec       q    Type
REMARK                         _______ _______ _______ _____ _____    ______ ____
ROOT
ATOM      1  C   UNL     1       5.643   5.156  18.302  0.00  0.00    +0.000 A 
ATOM      2  C   UNL     1       5.542   6.080  17.270  0.00  0.00    +0.000 A 
ATOM      3  C   UNL     1       4.467   6.955  17.229  0.00  0.00    +0.000 A 
ATOM      4  C   UNL     1       3.479   6.879  18.202  0.00  0.00    +0.000 A 
ATOM      5  C   UNL     1       2.405   7.705  18.508  0.00  0.00    +0.000 A 
ATOM      6  C   UNL     1       1.907   7.436  19.782  0.00  0.00    +0.000 A 
ATOM      7  N   UNL     1       2.605   6.296  20.178  0.00  0.00    +0.000 N 
ATOM      8  C   UNL     1       3.647   6.010  19.240  0.00  0.00    +0.000 A 
ATOM      9  C   UNL     1       4.700   5.099  19.350  0.00  0.00    +0.000 A 
ATOM     10  C   UNL     1       1.141   8.444  20.696  0.00  0.00    +0.000 C 
ATOM     11  N   UNL     1       1.780   9.613  20.402  0.00  0.00    +0.000 N 
ATOM     12  C   UNL     1       1.262   9.706  18.669  0.00  0.00    +0.000 C 
ATOM     13  C   UNL     1       2.125   8.934  17.763  0.00  0.00    +0.000 C 
ATOM     14  C   UNL     1       0.943  10.477  21.702  0.00  0.00    +0.000 C 
ATOM     15  O   UNL     1       1.113  10.172  22.890  0.00  0.00    +0.000 OA
ATOM     16  C   UNL     1      -0.575  11.263  21.190  0.00  0.00    +0.000 A 
ATOM     17  C   UNL     1      -1.433  12.107  20.228  0.00  0.00    +0.000 A 
ATOM     18  C   UNL     1      -1.120  13.331  19.610  0.00  0.00    +0.000 A 
ATOM     19  C   UNL     1       0.061  13.715  20.010  0.00  0.00    +0.000 A 
ATOM     20  C   UNL     1       0.758  12.512  20.301  0.00  0.00    +0.000 A 
ATOM     21  C   UNL     1       0.323  11.027  20.323  0.00  0.00    +0.000 A 
ATOM     22  N   UNL     1      -0.223   9.355  20.344  0.00  0.00    +0.000 N 
ATOM     23  C   UNL     1      -1.267   8.368  20.889  0.00  0.00    +0.000 C 
ATOM     24  H   UNL     1       2.594   5.861  21.088  0.00  0.00    +0.000 HD
ENDROOT
BRANCH   1  26
ATOM     25  C   UNL     1       7.472   4.510  17.022  0.00  0.00    +0.000 C 
ATOM     26  O   UNL     1       6.802   4.430  18.270  0.00  0.00    +0.000 OA
ENDBRANCH   1  26
BRANCH  17  27
ATOM     27  O   UNL     1      -2.438  11.618  19.352  0.00  0.00    +0.000 OA
ATOM     28  C   UNL     1      -3.617  12.254  19.665  0.00  0.00    +0.000 C 
ENDBRANCH  17  27
TORSDOF 2
ENDMDL
MODEL 8
REMARK VINA RESULT:      -6.3      1.867      2.840
REMARK  Name = 
REMARK  5 active torsions:
REMARK  status: ('A' for Active; 'I' for Inactive)
REMARK    1  A    between atoms: C_1  and  O_2
REMARK    2  A    between atoms: O_2  and  C_3
REMARK    3  A    between atoms: C_19  and  O_20
REMARK    4  A    between atoms: O_20  and  C_21
REMARK    5  A    between atoms: N_26  and  C_27
REMARK                            x       y       z     vdW  Elec       q    Type
REMARK                         _______ _______ _______ _____ _____    ______ ____
ROOT
ATOM      1  C   UNL     1       2.237   7.227  18.453  0.00  0.00    +0.000 A 
ATOM      2  C   UNL     1       2.198   7.012  19.824  0.00  0.00    +0.000 A 
ATOM      3  C   UNL     1       1.754   8.019  20.668  0.00  0.00    +0.000 A 
ATOM      4  C   UNL     1       1.382   9.248  20.140  0.00  0.00    +0.000 A 
ATOM      5  C   UNL     1       0.758  10.354  20.700  0.00  0.00    +0.000 A 
ATOM      6  C   UNL     1       0.256  11.205  19.715  0.00  0.00    +0.000 A 
ATOM      7  N   UNL     1       0.748  10.665  18.528  0.00  0.00    +0.000 N 
ATOM      8  C   UNL     1       1.363   9.398  18.784  0.00  0.00    +0.000 A 
ATOM      9  C   UNL     1       1.796   8.434  17.872  0.00  0.00    +0.000 A 
ATOM     10  C   UNL     1      -0.943  12.192  19.884  0.00  0.00    +0.000 C 
ATOM     11  N   UNL     1      -1.762  11.481  20.711  0.00  0.00    +0.000 N 
ATOM     12  C   UNL     1      -0.656  11.472  22.146  0.00  0.00    +0.000 C 
ATOM     13  C   UNL     1       0.340  10.392  22.103  0.00  0.00    +0.000 C 
ATOM     14  C   UNL     1      -3.079  12.651  20.522  0.00  0.00    +0.000 C 
ATOM     15  O   UNL     1      -3.621  12.837  19.424  0.00  0.00    +0.000 OA
ATOM     16  C   UNL     1      -3.082  13.944  21.750  0.00  0.00    +0.000 A 
ATOM     17  C   UNL     1      -2.967  14.476  23.193  0.00  0.00    +0.000 A 
ATOM     18  C   UNL     1      -3.567  13.983  24.364  0.00  0.00    +0.000 A 
ATOM     19  C   UNL     1      -4.322  12.965  24.055  0.00  0.00    +0.000 A 
ATOM     20  C   UNL     1      -3.716  12.396  22.903  0.00  0.00    +0.000 A 
ATOM     21  C   UNL     1      -2.524  12.836  22.020  0.00  0.00    +0.000 A 
ATOM     22  N   UNL     1      -1.168  13.383  21.042  0.00  0.00    +0.000 N 
ATOM     23  C   UNL     1      -0.570  14.553  20.244  0.00  0.00    +0.000 C 
ATOM     24  H   UNL     1       0.512  10.945  17.588  0.00  0.00    +0.000 HD
ENDROOT
BRANCH   1  26
ATOM     25  C   UNL     1       1.893   4.950  18.132  0.00  0.00    +0.000 C 
ATOM     26  O   UNL     1       2.599   6.116  17.739  0.00  0.00    +0.000 OA
ENDBRANCH   1  26
BRANCH  17  27
ATOM     27  O   UNL     1      -1.867  15.188  23.738  0.00  0.00    +0.000 OA
ATOM     28  C   UNL     1      -2.198  16.523  23.764  0.00  0.00    +0.000 C 
ENDBRANCH  17  27
TORSDOF 2
ENDMDL
MODEL 9
REMARK VINA RESULT:      -6.1      1.656      1.967
REMARK  Name = 
REMARK  5 active torsions:
REMARK  status: ('A' for Active; 'I' for Inactive)
REMARK    1  A    between atoms: C_1  and  O_2
REMARK    2  A    between atoms: O_2  and  C_3
REMARK    3  A    between atoms: C_19  and  O_20
REMARK    4  A    between atoms: O_20  and  C_21
REMARK    5  A    between atoms: N_26  and  C_27
REMARK                            x       y       z     vdW  Elec       q    Type
REMARK                         _______ _______ _______ _____ _____    ______ ____
ROOT
ATOM      1  C   UNL     1       2.866   6.232  18.402  0.00  0.00    +0.000 A 
ATOM      2  C   UNL     1       2.626   6.206  19.769  0.00  0.00    +0.000 A 
ATOM      3  C   UNL     1       2.101   7.324  20.400  0.00  0.00    +0.000 A 
ATOM      4  C   UNL     1       1.850   8.475  19.665  0.00  0.00    +0.000 A 
ATOM      5  C   UNL     1       1.191   9.657  19.978  0.00  0.00    +0.000 A 
ATOM      6  C   UNL     1       0.863  10.373  18.827  0.00  0.00    +0.000 A 
ATOM      7  N   UNL     1       1.500   9.671  17.805  0.00  0.00    +0.000 N 
ATOM      8  C   UNL     1       2.029   8.441  18.313  0.00  0.00    +0.000 A 
ATOM      9  C   UNL     1       2.554   7.356  17.609  0.00  0.00    +0.000 A 
ATOM     10  C   UNL     1      -0.314  11.391  18.687  0.00  0.00    +0.000 C 
ATOM     11  N   UNL     1      -1.266  10.811  19.474  0.00  0.00    +0.000 N 
ATOM     12  C   UNL     1      -0.376  10.981  21.042  0.00  0.00    +0.000 C 
ATOM     13  C   UNL     1       0.579   9.890  21.288  0.00  0.00    +0.000 C 
ATOM     14  C   UNL     1      -2.502  11.964  18.942  0.00  0.00    +0.000 C 
ATOM     15  O   UNL     1      -2.875  12.008  17.763  0.00  0.00    +0.000 OA
ATOM     16  C   UNL     1      -2.635  13.412  19.976  0.00  0.00    +0.000 A 
ATOM     17  C   UNL     1      -2.707  14.133  21.336  0.00  0.00    +0.000 A 
ATOM     18  C   UNL     1      -3.484  13.811  22.463  0.00  0.00    +0.000 A 
ATOM     19  C   UNL     1      -4.223  12.772  22.184  0.00  0.00    +0.000 A 
ATOM     20  C   UNL     1      -3.479  12.044  21.218  0.00  0.00    +0.000 A 
ATOM     21  C   UNL     1      -2.159  12.343  20.468  0.00  0.00    +0.000 A 
ATOM     22  N   UNL     1      -0.660  12.732  19.633  0.00  0.00    +0.000 N 
ATOM     23  C   UNL     1       0.085  13.774  18.783  0.00  0.00    +0.000 C 
ATOM     24  H   UNL     1       1.409   9.824  16.813  0.00  0.00    +0.000 HD
ENDROOT
BRANCH   1  26
ATOM     25  C   UNL     1       3.434   4.034  18.901  0.00  0.00    +0.000 C 
ATOM     26  O   UNL     1       3.288   5.030  17.902  0.00  0.00    +0.000 OA
ENDBRANCH   1  26
BRANCH  17  27
ATOM     27  O   UNL     1      -1.672  14.896  21.937  0.00  0.00    +0.000 OA
ATOM     28  C   UNL     1      -1.587  16.094  21.266  0.00  0.00    +0.000 C 
ENDBRANCH  17  27
TORSDOF 2
ENDMDL
