MODEL 1
REMARK VINA RESULT:      -7.5      0.000      0.000
REMARK  Name = 
REMARK  4 active torsions:
REMARK  status: ('A' for Active; 'I' for Inactive)
REMARK    1  A    between atoms: C_1  and  O_2
REMARK    2  A    between atoms: O_2  and  C_3
REMARK    3  A    between atoms: C_3  and  C_5
REMARK    4  A    between atoms: C_5  and  C_6
REMARK                            x       y       z     vdW  Elec       q    Type
REMARK                         _______ _______ _______ _____ _____    ______ ____
ROOT
ATOM      1  C   UNL     1       0.786   8.564  20.563  0.00  0.00    +0.000 A 
ATOM      2  N   UNL     1       1.403   7.410  20.560  0.00  0.00    +0.000 NA
ATOM      3  N   UNL     1       2.246   7.239  19.494  0.00  0.00    +0.000 N 
ATOM      4  C   UNL     1       2.429   8.194  18.494  0.00  0.00    +0.000 A 
ATOM      5  N   UNL     1       1.891   9.365  18.418  0.00  0.00    +0.000 NA
ATOM      6  C   UNL     1       1.072   9.627  19.493  0.00  0.00    +0.000 A 
ATOM      7  O   UNL     1       0.516  10.715  19.642  0.00  0.00    +0.000 OA
ATOM      8  S   UNL     1       3.509   7.640  17.218  0.00  0.00    +0.000 S 
ATOM      9  C   UNL     1       3.656   6.059  18.026  0.00  0.00    +0.000 A 
ATOM     10  C   UNL     1       4.402   5.001  17.543  0.00  0.00    +0.000 A 
ATOM     11  C   UNL     1       4.408   3.819  18.272  0.00  0.00    +0.000 A 
ATOM     12  C   UNL     1       3.666   3.691  19.460  0.00  0.00    +0.000 A 
ATOM     13  C   UNL     1       3.704   2.464  20.140  0.00  0.00    +0.000 A 
ATOM     14  C   UNL     1       2.979   2.267  21.310  0.00  0.00    +0.000 A 
ATOM     15  C   UNL     1       2.201   3.301  21.812  0.00  0.00    +0.000 A 
ATOM     16  C   UNL     1       2.152   4.534  21.149  0.00  0.00    +0.000 A 
ATOM     17  C   UNL     1       2.885   4.778  19.961  0.00  0.00    +0.000 A 
ATOM     18  C   UNL     1       2.904   5.993  19.224  0.00  0.00    +0.000 A 
ENDROOT
BRANCH   1  19
ATOM     19  C   UNL     1      -0.241   8.906  21.612  0.00  0.00    +0.000 C 
BRANCH  19  20
ATOM     20  C   UNL     1       0.383   9.585  22.793  0.00  0.00    +0.000 C 
ATOM     21  O   UNL     1       1.567   9.549  23.065  0.00  0.00    +0.000 OA
BRANCH  20  23
ATOM     22  C   UNL     1      -1.110  11.361  22.900  0.00  0.00    +0.000 C 
ATOM     23  O   UNL     1      -0.569  10.208  23.550  0.00  0.00    +0.000 OA
ENDBRANCH  20  23
ENDBRANCH  19  20
ENDBRANCH   1  19
TORSDOF 3
ENDMDL
MODEL 2
REMARK VINA RESULT:      -7.2      1.007      1.194
REMARK  Name = 
REMARK  4 active torsions:
REMARK  status: ('A' for Active; 'I' for Inactive)
REMARK    1  A    between atoms: C_1  and  O_2
REMARK    2  A    between atoms: O_2  and  C_3
REMARK    3  A    between atoms: C_3  and  C_5
REMARK    4  A    between atoms: C_5  and  C_6
REMARK                            x       y       z     vdW  Elec       q    Type
REMARK                         _______ _______ _______ _____ _____    ______ ____
ROOT
ATOM      1  C   UNL     1       1.328   8.850  19.551  0.00  0.00    +0.000 A 
ATOM      2  N   UNL     1       1.797   7.651  19.788  0.00  0.00    +0.000 NA
ATOM      3  N   UNL     1       2.700   7.218  18.853  0.00  0.00    +0.000 N 
ATOM      4  C   UNL     1       3.085   7.971  17.745  0.00  0.00    +0.000 A 
ATOM      5  N   UNL     1       2.703   9.165  17.435  0.00  0.00    +0.000 NA
ATOM      6  C   UNL     1       1.834   9.687  18.367  0.00  0.00    +0.000 A 
ATOM      7  O   UNL     1       1.405  10.838  18.289  0.00  0.00    +0.000 OA
ATOM      8  S   UNL     1       4.194   7.104  16.687  0.00  0.00    +0.000 S 
ATOM      9  C   UNL     1       4.075   5.669  17.738  0.00  0.00    +0.000 A 
ATOM     10  C   UNL     1       4.724   4.472  17.502  0.00  0.00    +0.000 A 
ATOM     11  C   UNL     1       4.522   3.432  18.399  0.00  0.00    +0.000 A 
ATOM     12  C   UNL     1       3.671   3.581  19.509  0.00  0.00    +0.000 A 
ATOM     13  C   UNL     1       3.501   2.484  20.368  0.00  0.00    +0.000 A 
ATOM     14  C   UNL     1       2.659   2.561  21.473  0.00  0.00    +0.000 A 
ATOM     15  C   UNL     1       1.974   3.741  21.728  0.00  0.00    +0.000 A 
ATOM     16  C   UNL     1       2.134   4.846  20.883  0.00  0.00    +0.000 A 
ATOM     17  C   UNL     1       2.990   4.813  19.755  0.00  0.00    +0.000 A 
ATOM     18  C   UNL     1       3.221   5.881  18.847  0.00  0.00    +0.000 A 
ENDROOT
BRANCH   1  19
ATOM     19  C   UNL     1       0.265   9.468  20.422  0.00  0.00    +0.000 C 
BRANCH  19  20
ATOM     20  C   UNL     1       0.864  10.298  21.517  0.00  0.00    +0.000 C 
ATOM     21  O   UNL     1       1.177  11.468  21.403  0.00  0.00    +0.000 OA
BRANCH  20  23
ATOM     22  C   UNL     1      -0.121   9.475  23.452  0.00  0.00    +0.000 C 
ATOM     23  O   UNL     1       1.055   9.548  22.642  0.00  0.00    +0.000 OA
ENDBRANCH  20  23
ENDBRANCH  19  20
ENDBRANCH   1  19
TORSDOF 3
ENDMDL
MODEL 3
REMARK VINA RESULT:      -7.1      2.877      6.196
REMARK  Name = 
REMARK  4 active torsions:
REMARK  status: ('A' for Active; 'I' for Inactive)
REMARK    1  A    between atoms: C_1  and  O_2
REMARK    2  A    between atoms: O_2  and  C_3
REMARK    3  A    between atoms: C_3  and  C_5
REMARK    4  A    between atoms: C_5  and  C_6
REMARK                            x       y       z     vdW  Elec       q    Type
REMARK                         _______ _______ _______ _____ _____    ______ ____
ROOT
ATOM      1  C   UNL     1       2.439   5.566  20.348  0.00  0.00    +0.000 A 
ATOM      2  N   UNL     1       1.744   6.631  20.655  0.00  0.00    +0.000 NA
ATOM      3  N   UNL     1       1.786   7.612  19.699  0.00  0.00    +0.000 N 
ATOM      4  C   UNL     1       2.506   7.500  18.510  0.00  0.00    +0.000 A 
ATOM      5  N   UNL     1       3.199   6.489  18.104  0.00  0.00    +0.000 NA
ATOM      6  C   UNL     1       3.153   5.441  18.994  0.00  0.00    +0.000 A 
ATOM      7  O   UNL     1       3.696   4.361  18.761  0.00  0.00    +0.000 OA
ATOM      8  S   UNL     1       2.428   8.961  17.531  0.00  0.00    +0.000 S 
ATOM      9  C   UNL     1       1.458   9.758  18.795  0.00  0.00    +0.000 A 
ATOM     10  C   UNL     1       1.000  11.061  18.724  0.00  0.00    +0.000 A 
ATOM     11  C   UNL     1       0.269  11.555  19.796  0.00  0.00    +0.000 A 
ATOM     12  C   UNL     1       0.011  10.764  20.930  0.00  0.00    +0.000 A 
ATOM     13  C   UNL     1      -0.722  11.332  21.984  0.00  0.00    +0.000 A 
ATOM     14  C   UNL     1      -0.995  10.608  23.140  0.00  0.00    +0.000 A 
ATOM     15  C   UNL     1      -0.533   9.305  23.255  0.00  0.00    +0.000 A 
ATOM     16  C   UNL     1       0.198   8.721  22.212  0.00  0.00    +0.000 A 
ATOM     17  C   UNL     1       0.487   9.420  21.014  0.00  0.00    +0.000 A 
ATOM     18  C   UNL     1       1.213   8.911  19.903  0.00  0.00    +0.000 A 
ENDROOT
BRANCH   1  19
ATOM     19  C   UNL     1       2.581   4.412  21.307  0.00  0.00    +0.000 C 
BRANCH  19  20
ATOM     20  C   UNL     1       1.425   3.464  21.202  0.00  0.00    +0.000 C 
ATOM     21  O   UNL     1       1.168   2.596  22.014  0.00  0.00    +0.000 OA
BRANCH  20  23
ATOM     22  C   UNL     1       0.777   2.548  19.169  0.00  0.00    +0.000 C 
ATOM     23  O   UNL     1       0.730   3.676  20.045  0.00  0.00    +0.000 OA
ENDBRANCH  20  23
ENDBRANCH  19  20
ENDBRANCH   1  19
TORSDOF 3
ENDMDL
MODEL 4
REMARK VINA RESULT:      -6.9      3.896      7.321
REMARK  Name = 
REMARK  4 active torsions:
REMARK  status: ('A' for Active; 'I' for Inactive)
REMARK    1  A    between atoms: C_1  and  O_2
REMARK    2  A    between atoms: O_2  and  C_3
REMARK    3  A    between atoms: C_3  and  C_5
REMARK    4  A    between atoms: C_5  and  C_6
REMARK                            x       y       z     vdW  Elec       q    Type
REMARK                         _______ _______ _______ _____ _____    ______ ____
ROOT
ATOM      1  C   UNL     1       4.453   5.779  17.199  0.00  0.00    +0.000 A 
ATOM      2  N   UNL     1       3.787   6.773  17.731  0.00  0.00    +0.000 NA
ATOM      3  N   UNL     1       3.101   6.430  18.866  0.00  0.00    +0.000 N 
ATOM      4  C   UNL     1       3.096   5.145  19.408  0.00  0.00    +0.000 A 
ATOM      5  N   UNL     1       3.735   4.109  18.977  0.00  0.00    +0.000 NA
ATOM      6  C   UNL     1       4.496   4.397  17.866  0.00  0.00    +0.000 A 
ATOM      7  O   UNL     1       5.230   3.560  17.342  0.00  0.00    +0.000 OA
ATOM      8  S   UNL     1       2.051   5.008  20.818  0.00  0.00    +0.000 S 
ATOM      9  C   UNL     1       1.560   6.709  20.622  0.00  0.00    +0.000 A 
ATOM     10  C   UNL     1       0.652   7.359  21.436  0.00  0.00    +0.000 A 
ATOM     11  C   UNL     1       0.351   8.685  21.151  0.00  0.00    +0.000 A 
ATOM     12  C   UNL     1       0.938   9.347  20.058  0.00  0.00    +0.000 A 
ATOM     13  C   UNL     1       0.578  10.682  19.817  0.00  0.00    +0.000 A 
ATOM     14  C   UNL     1       1.109  11.387  18.743  0.00  0.00    +0.000 A 
ATOM     15  C   UNL     1       2.008  10.759  17.892  0.00  0.00    +0.000 A 
ATOM     16  C   UNL     1       2.381   9.428  18.117  0.00  0.00    +0.000 A 
ATOM     17  C   UNL     1       1.871   8.679  19.207  0.00  0.00    +0.000 A 
ATOM     18  C   UNL     1       2.195   7.331  19.519  0.00  0.00    +0.000 A 
ENDROOT
BRANCH   1  19
ATOM     19  C   UNL     1       5.207   5.939  15.904  0.00  0.00    +0.000 C 
BRANCH  19  20
ATOM     20  C   UNL     1       6.646   6.281  16.142  0.00  0.00    +0.000 C 
ATOM     21  O   UNL     1       7.031   7.235  16.791  0.00  0.00    +0.000 OA
BRANCH  20  23
ATOM     22  C   UNL     1       6.809   4.764  14.391  0.00  0.00    +0.000 C 
ATOM     23  O   UNL     1       7.465   5.405  15.488  0.00  0.00    +0.000 OA
ENDBRANCH  20  23
ENDBRANCH  19  20
ENDBRANCH   1  19
TORSDOF 3
ENDMDL
MODEL 5
REMARK VINA RESULT:      -6.9      3.891      7.118
REMARK  Name = 
REMARK  4 active torsions:
REMARK  status: ('A' for Active; 'I' for Inactive)
REMARK    1  A    between atoms: C_1  and  O_2
REMARK    2  A    between atoms: O_2  and  C_3
REMARK    3  A    between atoms: C_3  and  C_5
REMARK    4  A    between atoms: C_5  and  C_6
REMARK                            x       y       z     vdW  Elec       q    Type
REMARK                         _______ _______ _______ _____ _____    ______ ____
ROOT
ATOM      1  C   UNL     1       4.359   5.476  17.198  0.00  0.00    +0.000 A 
ATOM      2  N   UNL     1       3.739   6.506  17.717  0.00  0.00    +0.000 NA
ATOM      3  N   UNL     1       3.069   6.219  18.877  0.00  0.00    +0.000 N 
ATOM      4  C   UNL     1       3.036   4.951  19.455  0.00  0.00    +0.000 A 
ATOM      5  N   UNL     1       3.629   3.882  19.040  0.00  0.00    +0.000 NA
ATOM      6  C   UNL     1       4.371   4.112  17.904  0.00  0.00    +0.000 A 
ATOM      7  O   UNL     1       5.065   3.237  17.387  0.00  0.00    +0.000 OA
ATOM      8  S   UNL     1       2.020   4.888  20.893  0.00  0.00    +0.000 S 
ATOM      9  C   UNL     1       1.582   6.599  20.659  0.00  0.00    +0.000 A 
ATOM     10  C   UNL     1       0.716   7.302  21.475  0.00  0.00    +0.000 A 
ATOM     11  C   UNL     1       0.452   8.628  21.159  0.00  0.00    +0.000 A 
ATOM     12  C   UNL     1       1.034   9.239  20.034  0.00  0.00    +0.000 A 
ATOM     13  C   UNL     1       0.713  10.579  19.763  0.00  0.00    +0.000 A 
ATOM     14  C   UNL     1       1.241  11.235  18.657  0.00  0.00    +0.000 A 
ATOM     15  C   UNL     1       2.097  10.553  17.804  0.00  0.00    +0.000 A 
ATOM     16  C   UNL     1       2.431   9.217  18.058  0.00  0.00    +0.000 A 
ATOM     17  C   UNL     1       1.924   8.517  19.181  0.00  0.00    +0.000 A 
ATOM     18  C   UNL     1       2.210   7.168  19.524  0.00  0.00    +0.000 A 
ENDROOT
BRANCH   1  19
ATOM     19  C   UNL     1       5.085   5.573  15.882  0.00  0.00    +0.000 C 
BRANCH  19  20
ATOM     20  C   UNL     1       6.542   5.866  16.076  0.00  0.00    +0.000 C 
ATOM     21  O   UNL     1       7.435   5.053  15.931  0.00  0.00    +0.000 OA
BRANCH  20  23
ATOM     22  C   UNL     1       7.562   7.243  17.643  0.00  0.00    +0.000 C 
ATOM     23  O   UNL     1       6.725   7.156  16.488  0.00  0.00    +0.000 OA
ENDBRANCH  20  23
ENDBRANCH  19  20
ENDBRANCH   1  19
TORSDOF 3
ENDMDL
MODEL 6
REMARK VINA RESULT:      -6.8      2.968      6.051
REMARK  Name = 
REMARK  4 active torsions:
REMARK  status: ('A' for Active; 'I' for Inactive)
REMARK    1  A    between atoms: C_1  and  O_2
REMARK    2  A    between atoms: O_2  and  C_3
REMARK    3  A    between atoms: C_3  and  C_5
REMARK    4  A    between atoms: C_5  and  C_6
REMARK                            x       y       z     vdW  Elec       q    Type
REMARK                         _______ _______ _______ _____ _____    ______ ____
ROOT
ATOM      1  C   UNL     1       2.839   4.763  20.282  0.00  0.00    +0.000 A 
ATOM      2  N   UNL     1       2.184   5.889  20.398  0.00  0.00    +0.000 NA
ATOM      3  N   UNL     1       2.407   6.766  19.369  0.00  0.00    +0.000 N 
ATOM      4  C   UNL     1       3.258   6.497  18.298  0.00  0.00    +0.000 A 
ATOM      5  N   UNL     1       3.927   5.415  18.078  0.00  0.00    +0.000 NA
ATOM      6  C   UNL     1       3.703   4.464  19.048  0.00  0.00    +0.000 A 
ATOM      7  O   UNL     1       4.197   3.339  18.987  0.00  0.00    +0.000 OA
ATOM      8  S   UNL     1       3.399   7.856  17.187  0.00  0.00    +0.000 S 
ATOM      9  C   UNL     1       2.336   8.827  18.237  0.00  0.00    +0.000 A 
ATOM     10  C   UNL     1       1.978  10.138  17.989  0.00  0.00    +0.000 A 
ATOM     11  C   UNL     1       1.156  10.776  18.908  0.00  0.00    +0.000 A 
ATOM     12  C   UNL     1       0.710  10.118  20.067  0.00  0.00    +0.000 A 
ATOM     13  C   UNL     1      -0.107  10.826  20.962  0.00  0.00    +0.000 A 
ATOM     14  C   UNL     1      -0.567  10.238  22.135  0.00  0.00    +0.000 A 
ATOM     15  C   UNL     1      -0.210   8.929  22.428  0.00  0.00    +0.000 A 
ATOM     16  C   UNL     1       0.602   8.205  21.546  0.00  0.00    +0.000 A 
ATOM     17  C   UNL     1       1.082   8.764  20.335  0.00  0.00    +0.000 A 
ATOM     18  C   UNL     1       1.902   8.109  19.378  0.00  0.00    +0.000 A 
ENDROOT
BRANCH   1  19
ATOM     19  C   UNL     1       2.785   3.704  21.353  0.00  0.00    +0.000 C 
BRANCH  19  20
ATOM     20  C   UNL     1       1.468   2.988  21.354  0.00  0.00    +0.000 C 
ATOM     21  O   UNL     1       1.068   2.281  22.258  0.00  0.00    +0.000 OA
BRANCH  20  23
ATOM     22  C   UNL     1       0.893   2.079  19.296  0.00  0.00    +0.000 C 
ATOM     23  O   UNL     1       0.803   3.200  20.180  0.00  0.00    +0.000 OA
ENDBRANCH  20  23
ENDBRANCH  19  20
ENDBRANCH   1  19
TORSDOF 3
ENDMDL
MODEL 7
REMARK VINA RESULT:      -6.6      5.246      7.659
REMARK  Name = 
REMARK  4 active torsions:
REMARK  status: ('A' for Active; 'I' for Inactive)
REMARK    1  A    between atoms: C_1  and  O_2
REMARK    2  A    between atoms: O_2  and  C_3
REMARK    3  A    between atoms: C_3  and  C_5
REMARK    4  A    between atoms: C_5  and  C_6
REMARK                            x       y       z     vdW  Elec       q    Type
REMARK                         _______ _______ _______ _____ _____    ______ ____
ROOT
ATOM      1  C   UNL     1       5.815   4.201  15.147  0.00  0.00    +0.000 A 
ATOM      2  N   UNL     1       4.797   4.050  15.955  0.00  0.00    +0.000 NA
ATOM      3  N   UNL     1       4.578   5.126  16.773  0.00  0.00    +0.000 N 
ATOM      4  C   UNL     1       5.366   6.276  16.763  0.00  0.00    +0.000 A 
ATOM      5  N   UNL     1       6.371   6.533  15.994  0.00  0.00    +0.000 NA
ATOM      6  C   UNL     1       6.612   5.512  15.102  0.00  0.00    +0.000 A 
ATOM      7  O   UNL     1       7.486   5.590  14.239  0.00  0.00    +0.000 OA
ATOM      8  S   UNL     1       4.882   7.442  17.991  0.00  0.00    +0.000 S 
ATOM      9  C   UNL     1       3.632   6.312  18.571  0.00  0.00    +0.000 A 
ATOM     10  C   UNL     1       2.785   6.563  19.634  0.00  0.00    +0.000 A 
ATOM     11  C   UNL     1       1.870   5.580  19.986  0.00  0.00    +0.000 A 
ATOM     12  C   UNL     1       1.813   4.356  19.296  0.00  0.00    +0.000 A 
ATOM     13  C   UNL     1       0.873   3.400  19.713  0.00  0.00    +0.000 A 
ATOM     14  C   UNL     1       0.779   2.163  19.084  0.00  0.00    +0.000 A 
ATOM     15  C   UNL     1       1.628   1.869  18.027  0.00  0.00    +0.000 A 
ATOM     16  C   UNL     1       2.570   2.811  17.594  0.00  0.00    +0.000 A 
ATOM     17  C   UNL     1       2.690   4.086  18.201  0.00  0.00    +0.000 A 
ATOM     18  C   UNL     1       3.607   5.106  17.829  0.00  0.00    +0.000 A 
ENDROOT
BRANCH   1  19
ATOM     19  C   UNL     1       6.262   3.095  14.226  0.00  0.00    +0.000 C 
BRANCH  19  20
ATOM     20  C   UNL     1       5.988   3.428  12.791  0.00  0.00    +0.000 C 
ATOM     21  O   UNL     1       6.840   3.522  11.929  0.00  0.00    +0.000 OA
BRANCH  20  23
ATOM     22  C   UNL     1       4.209   3.212  11.315  0.00  0.00    +0.000 C 
ATOM     23  O   UNL     1       4.656   3.660  12.596  0.00  0.00    +0.000 OA
ENDBRANCH  20  23
ENDBRANCH  19  20
ENDBRANCH   1  19
TORSDOF 3
ENDMDL
MODEL 8
REMARK VINA RESULT:      -6.5      2.001      3.977
REMARK  Name = 
REMARK  4 active torsions:
REMARK  status: ('A' for Active; 'I' for Inactive)
REMARK    1  A    between atoms: C_1  and  O_2
REMARK    2  A    between atoms: O_2  and  C_3
REMARK    3  A    between atoms: C_3  and  C_5
REMARK    4  A    between atoms: C_5  and  C_6
REMARK                            x       y       z     vdW  Elec       q    Type
REMARK                         _______ _______ _______ _____ _____    ______ ____
ROOT
ATOM      1  C   UNL     1       1.633   8.794  19.447  0.00  0.00    +0.000 A 
ATOM      2  N   UNL     1       2.330   7.933  18.751  0.00  0.00    +0.000 NA
ATOM      3  N   UNL     1       2.392   6.687  19.317  0.00  0.00    +0.000 N 
ATOM      4  C   UNL     1       1.780   6.358  20.526  0.00  0.00    +0.000 A 
ATOM      5  N   UNL     1       1.055   7.121  21.272  0.00  0.00    +0.000 NA
ATOM      6  C   UNL     1       0.902   8.378  20.732  0.00  0.00    +0.000 A 
ATOM      7  O   UNL     1       0.192   9.234  21.258  0.00  0.00    +0.000 OA
ATOM      8  S   UNL     1       2.116   4.703  21.026  0.00  0.00    +0.000 S 
ATOM      9  C   UNL     1       3.162   4.483  19.601  0.00  0.00    +0.000 A 
ATOM     10  C   UNL     1       3.855   3.322  19.312  0.00  0.00    +0.000 A 
ATOM     11  C   UNL     1       4.648   3.302  18.173  0.00  0.00    +0.000 A 
ATOM     12  C   UNL     1       4.761   4.431  17.342  0.00  0.00    +0.000 A 
ATOM     13  C   UNL     1       5.592   4.347  16.213  0.00  0.00    +0.000 A 
ATOM     14  C   UNL     1       5.759   5.433  15.362  0.00  0.00    +0.000 A 
ATOM     15  C   UNL     1       5.096   6.621  15.633  0.00  0.00    +0.000 A 
ATOM     16  C   UNL     1       4.260   6.724  16.753  0.00  0.00    +0.000 A 
ATOM     17  C   UNL     1       4.054   5.637  17.638  0.00  0.00    +0.000 A 
ATOM     18  C   UNL     1       3.224   5.643  18.791  0.00  0.00    +0.000 A 
ENDROOT
BRANCH   1  19
ATOM     19  C   UNL     1       1.515  10.237  19.028  0.00  0.00    +0.000 C 
BRANCH  19  20
ATOM     20  C   UNL     1       0.190  10.518  18.387  0.00  0.00    +0.000 C 
ATOM     21  O   UNL     1      -0.423   9.730  17.693  0.00  0.00    +0.000 OA
BRANCH  20  23
ATOM     22  C   UNL     1      -1.535  12.059  18.180  0.00  0.00    +0.000 C 
ATOM     23  O   UNL     1      -0.210  11.798  18.649  0.00  0.00    +0.000 OA
ENDBRANCH  20  23
ENDBRANCH  19  20
ENDBRANCH   1  19
TORSDOF 3
ENDMDL
MODEL 9
REMARK VINA RESULT:      -6.5      2.749      6.333
REMARK  Name = 
REMARK  4 active torsions:
REMARK  status: ('A' for Active; 'I' for Inactive)
REMARK    1  A    between atoms: C_1  and  O_2
REMARK    2  A    between atoms: O_2  and  C_3
REMARK    3  A    between atoms: C_3  and  C_5
REMARK    4  A    between atoms: C_5  and  C_6
REMARK                            x       y       z     vdW  Elec       q    Type
REMARK                         _______ _______ _______ _____ _____    ______ ____
ROOT
ATOM      1  C   UNL     1       2.484   6.472  19.525  0.00  0.00    +0.000 A 
ATOM      2  N   UNL     1       1.737   7.407  20.055  0.00  0.00    +0.000 NA
ATOM      3  N   UNL     1       1.726   8.575  19.340  0.00  0.00    +0.000 N 
ATOM      4  C   UNL     1       2.447   8.765  18.162  0.00  0.00    +0.000 A 
ATOM      5  N   UNL     1       3.188   7.906  17.547  0.00  0.00    +0.000 NA
ATOM      6  C   UNL     1       3.198   6.685  18.183  0.00  0.00    +0.000 A 
ATOM      7  O   UNL     1       3.793   5.712  17.721  0.00  0.00    +0.000 OA
ATOM      8  S   UNL     1       2.293  10.402  17.530  0.00  0.00    +0.000 S 
ATOM      9  C   UNL     1       1.288  10.850  18.931  0.00  0.00    +0.000 A 
ATOM     10  C   UNL     1       0.765  12.111  19.147  0.00  0.00    +0.000 A 
ATOM     11  C   UNL     1       0.014  12.320  20.296  0.00  0.00    +0.000 A 
ATOM     12  C   UNL     1      -0.199  11.286  21.224  0.00  0.00    +0.000 A 
ATOM     13  C   UNL     1      -0.957  11.568  22.372  0.00  0.00    +0.000 A 
ATOM     14  C   UNL     1      -1.189  10.594  23.338  0.00  0.00    +0.000 A 
ATOM     15  C   UNL     1      -0.662   9.323  23.164  0.00  0.00    +0.000 A 
ATOM     16  C   UNL     1       0.094   9.021  22.024  0.00  0.00    +0.000 A 
ATOM     17  C   UNL     1       0.344   9.981  21.013  0.00  0.00    +0.000 A 
ATOM     18  C   UNL     1       1.090   9.768  19.822  0.00  0.00    +0.000 A 
ENDROOT
BRANCH   1  19
ATOM     19  C   UNL     1       2.686   5.143  20.206  0.00  0.00    +0.000 C 
BRANCH  19  20
ATOM     20  C   UNL     1       1.591   4.178  19.867  0.00  0.00    +0.000 C 
ATOM     21  O   UNL     1       1.222   3.921  18.737  0.00  0.00    +0.000 OA
BRANCH  20  23
ATOM     22  C   UNL     1       1.887   2.720  21.650  0.00  0.00    +0.000 C 
ATOM     23  O   UNL     1       1.031   3.664  21.002  0.00  0.00    +0.000 OA
ENDBRANCH  20  23
ENDBRANCH  19  20
ENDBRANCH   1  19
TORSDOF 3
ENDMDL
