MODEL 1
REMARK VINA RESULT:      -8.5      0.000      0.000
REMARK  Name = 
REMARK  5 active torsions:
REMARK  status: ('A' for Active; 'I' for Inactive)
REMARK    1  A    between atoms: C_1  and  C_2
REMARK    2  A    between atoms: C_5  and  O_6
REMARK    3  A    between atoms: O_6  and  C_7
REMARK    4  A    between atoms: C_19  and  C_21
REMARK    5  A    between atoms: C_26  and  N_27
REMARK                            x       y       z     vdW  Elec       q    Type
REMARK                         _______ _______ _______ _____ _____    ______ ____
ROOT
ATOM      1  C   UNL     1       2.535   2.220  17.519  0.00  0.00    +0.000 C 
ATOM      2  C   UNL     1       2.950   3.692  17.478  0.00  0.00    +0.000 C 
ATOM      3  C   UNL     1       1.768   4.665  17.668  0.00  0.00    +0.000 C 
ATOM      4  C   UNL     1       1.259   4.732  19.111  0.00  0.00    +0.000 C 
ATOM      5  C   UNL     1       2.389   4.982  20.128  0.00  0.00    +0.000 C 
ATOM      6  C   UNL     1       3.548   3.997  19.860  0.00  0.00    +0.000 C 
ATOM      7  N   UNL     1       4.003   4.006  18.465  0.00  0.00    +0.000 N 
ATOM      8  C   UNL     1       5.357   4.327  18.232  0.00  0.00    +0.000 C 
ATOM      9  O   UNL     1       6.120   4.647  19.143  0.00  0.00    +0.000 OA
ENDROOT
BRANCH   8  10
ATOM     10  C   UNL     1       5.915   4.383  16.849  0.00  0.00    +0.000 A 
ATOM     11  C   UNL     1       5.393   3.476  15.909  0.00  0.00    +0.000 A 
ATOM     12  C   UNL     1       5.830   3.450  14.584  0.00  0.00    +0.000 A 
ATOM     13  C   UNL     1       6.701   4.426  14.133  0.00  0.00    +0.000 A 
ATOM     14  C   UNL     1       7.119   5.428  15.005  0.00  0.00    +0.000 A 
ATOM     15  C   UNL     1       6.752   5.412  16.373  0.00  0.00    +0.000 A 
BRANCH  15  16
ATOM     16  N   UNL     1       7.255   6.471  17.173  0.00  0.00    +0.000 N 
ATOM     17  N   UNL     1       8.163   6.321  18.177  0.00  0.00    +0.000 NA
ATOM     18  C   UNL     1       8.325   7.576  18.605  0.00  0.00    +0.000 A 
ATOM     19  C   UNL     1       7.593   8.459  17.809  0.00  0.00    +0.000 A 
ATOM     20  N   UNL     1       6.967   7.778  16.851  0.00  0.00    +0.000 NA
ENDBRANCH  15  16
ENDBRANCH   8  10
BRANCH   5  21
ATOM     21  O   UNL     1       2.802   6.363  20.041  0.00  0.00    +0.000 OA
BRANCH  21  22
ATOM     22  C   UNL     1       1.856   7.321  20.344  0.00  0.00    +0.000 A 
ATOM     23  C   UNL     1       1.052   7.271  21.491  0.00  0.00    +0.000 A 
ATOM     24  C   UNL     1       0.116   8.262  21.763  0.00  0.00    +0.000 A 
ATOM     25  C   UNL     1      -0.044   9.327  20.887  0.00  0.00    +0.000 A 
ATOM     26  C   UNL     1       0.754   9.427  19.743  0.00  0.00    +0.000 A 
ATOM     27  C   UNL     1       0.601  10.517  18.878  0.00  0.00    +0.000 A 
ATOM     28  C   UNL     1       1.410  10.604  17.764  0.00  0.00    +0.000 A 
ATOM     29  N   UNL     1       2.347   9.686  17.447  0.00  0.00    +0.000 NA
ATOM     30  C   UNL     1       2.479   8.630  18.300  0.00  0.00    +0.000 A 
ATOM     31  C   UNL     1       1.720   8.430  19.464  0.00  0.00    +0.000 A 
ENDBRANCH  21  22
ENDBRANCH   5  21
TORSDOF 4
ENDMDL
MODEL 2
REMARK VINA RESULT:      -8.1      4.993      8.593
REMARK  Name = 
REMARK  5 active torsions:
REMARK  status: ('A' for Active; 'I' for Inactive)
REMARK    1  A    between atoms: C_1  and  C_2
REMARK    2  A    between atoms: C_5  and  O_6
REMARK    3  A    between atoms: O_6  and  C_7
REMARK    4  A    between atoms: C_19  and  C_21
REMARK    5  A    between atoms: C_26  and  N_27
REMARK                            x       y       z     vdW  Elec       q    Type
REMARK                         _______ _______ _______ _____ _____    ______ ____
ROOT
ATOM      1  C   UNL     1       2.334  13.253  18.248  0.00  0.00    +0.000 C 
ATOM      2  C   UNL     1       1.770  12.462  19.430  0.00  0.00    +0.000 C 
ATOM      3  C   UNL     1       1.876  13.214  20.774  0.00  0.00    +0.000 C 
ATOM      4  C   UNL     1       0.867  14.359  20.913  0.00  0.00    +0.000 C 
ATOM      5  C   UNL     1      -0.576  13.920  20.602  0.00  0.00    +0.000 C 
ATOM      6  C   UNL     1      -0.602  13.150  19.265  0.00  0.00    +0.000 C 
ATOM      7  N   UNL     1       0.368  12.051  19.212  0.00  0.00    +0.000 N 
ATOM      8  C   UNL     1      -0.140  10.755  18.985  0.00  0.00    +0.000 C 
ATOM      9  O   UNL     1      -1.347  10.531  18.894  0.00  0.00    +0.000 OA
ENDROOT
BRANCH   8  10
ATOM     10  C   UNL     1       0.760   9.565  18.933  0.00  0.00    +0.000 A 
ATOM     11  C   UNL     1       1.485   9.360  17.745  0.00  0.00    +0.000 A 
ATOM     12  C   UNL     1       2.366   8.289  17.591  0.00  0.00    +0.000 A 
ATOM     13  C   UNL     1       2.649   7.477  18.675  0.00  0.00    +0.000 A 
ATOM     14  C   UNL     1       2.060   7.748  19.908  0.00  0.00    +0.000 A 
ATOM     15  C   UNL     1       1.097   8.776  20.052  0.00  0.00    +0.000 A 
BRANCH  15  16
ATOM     16  N   UNL     1       0.545   8.946  21.348  0.00  0.00    +0.000 N 
ATOM     17  N   UNL     1      -0.617   8.382  21.777  0.00  0.00    +0.000 NA
ATOM     18  C   UNL     1      -0.697   8.816  23.038  0.00  0.00    +0.000 A 
ATOM     19  C   UNL     1       0.442   9.550  23.372  0.00  0.00    +0.000 A 
ATOM     20  N   UNL     1       1.273   9.578  22.331  0.00  0.00    +0.000 NA
ENDBRANCH  15  16
ENDBRANCH   8  10
BRANCH   5  21
ATOM     21  O   UNL     1      -1.075  13.134  21.706  0.00  0.00    +0.000 OA
BRANCH  21  22
ATOM     22  C   UNL     1      -1.813  13.797  22.666  0.00  0.00    +0.000 A 
ATOM     23  C   UNL     1      -1.255  14.715  23.566  0.00  0.00    +0.000 A 
ATOM     24  C   UNL     1      -2.037  15.367  24.513  0.00  0.00    +0.000 A 
ATOM     25  C   UNL     1      -3.399  15.110  24.587  0.00  0.00    +0.000 A 
ATOM     26  C   UNL     1      -4.000  14.218  23.691  0.00  0.00    +0.000 A 
ATOM     27  C   UNL     1      -5.378  13.985  23.759  0.00  0.00    +0.000 A 
ATOM     28  C   UNL     1      -5.952  13.114  22.855  0.00  0.00    +0.000 A 
ATOM     29  N   UNL     1      -5.255  12.458  21.903  0.00  0.00    +0.000 NA
ATOM     30  C   UNL     1      -3.914  12.697  21.855  0.00  0.00    +0.000 A 
ATOM     31  C   UNL     1      -3.214  13.560  22.715  0.00  0.00    +0.000 A 
ENDBRANCH  21  22
ENDBRANCH   5  21
TORSDOF 4
ENDMDL
MODEL 3
REMARK VINA RESULT:      -8.1      4.941      8.559
REMARK  Name = 
REMARK  5 active torsions:
REMARK  status: ('A' for Active; 'I' for Inactive)
REMARK    1  A    between atoms: C_1  and  C_2
REMARK    2  A    between atoms: C_5  and  O_6
REMARK    3  A    between atoms: O_6  and  C_7
REMARK    4  A    between atoms: C_19  and  C_21
REMARK    5  A    between atoms: C_26  and  N_27
REMARK                            x       y       z     vdW  Elec       q    Type
REMARK                         _______ _______ _______ _____ _____    ______ ____
ROOT
ATOM      1  C   UNL     1       2.637  13.130  18.144  0.00  0.00    +0.000 C 
ATOM      2  C   UNL     1       1.961  12.381  19.294  0.00  0.00    +0.000 C 
ATOM      3  C   UNL     1       1.983  13.160  20.626  0.00  0.00    +0.000 C 
ATOM      4  C   UNL     1       0.998  14.333  20.662  0.00  0.00    +0.000 C 
ATOM      5  C   UNL     1      -0.428  13.925  20.249  0.00  0.00    +0.000 C 
ATOM      6  C   UNL     1      -0.371  13.125  18.930  0.00  0.00    +0.000 C 
ATOM      7  N   UNL     1       0.570  12.000  18.975  0.00  0.00    +0.000 N 
ATOM      8  C   UNL     1       0.046  10.713  18.736  0.00  0.00    +0.000 C 
ATOM      9  O   UNL     1      -1.156  10.518  18.556  0.00  0.00    +0.000 OA
ENDROOT
BRANCH   8  10
ATOM     10  C   UNL     1       0.914   9.499  18.780  0.00  0.00    +0.000 A 
ATOM     11  C   UNL     1       1.673   9.212  17.631  0.00  0.00    +0.000 A 
ATOM     12  C   UNL     1       2.530   8.113  17.565  0.00  0.00    +0.000 A 
ATOM     13  C   UNL     1       2.754   7.353  18.701  0.00  0.00    +0.000 A 
ATOM     14  C   UNL     1       2.131   7.706  19.895  0.00  0.00    +0.000 A 
ATOM     15  C   UNL     1       1.191   8.764  19.950  0.00  0.00    +0.000 A 
BRANCH  15  16
ATOM     16  N   UNL     1       0.601   9.018  21.215  0.00  0.00    +0.000 N 
ATOM     17  N   UNL     1      -0.616   8.552  21.612  0.00  0.00    +0.000 NA
ATOM     18  C   UNL     1      -0.716   9.035  22.853  0.00  0.00    +0.000 A 
ATOM     19  C   UNL     1       0.459   9.699  23.212  0.00  0.00    +0.000 A 
ATOM     20  N   UNL     1       1.331   9.632  22.207  0.00  0.00    +0.000 NA
ENDBRANCH  15  16
ENDBRANCH   8  10
BRANCH   5  21
ATOM     21  O   UNL     1      -1.032  13.177  21.326  0.00  0.00    +0.000 OA
BRANCH  21  22
ATOM     22  C   UNL     1      -2.234  13.644  21.818  0.00  0.00    +0.000 A 
ATOM     23  C   UNL     1      -3.455  13.471  21.151  0.00  0.00    +0.000 A 
ATOM     24  C   UNL     1      -4.646  13.952  21.686  0.00  0.00    +0.000 A 
ATOM     25  C   UNL     1      -4.642  14.624  22.900  0.00  0.00    +0.000 A 
ATOM     26  C   UNL     1      -3.448  14.797  23.609  0.00  0.00    +0.000 A 
ATOM     27  C   UNL     1      -3.459  15.456  24.843  0.00  0.00    +0.000 A 
ATOM     28  C   UNL     1      -2.272  15.601  25.533  0.00  0.00    +0.000 A 
ATOM     29  N   UNL     1      -1.085  15.148  25.079  0.00  0.00    +0.000 NA
ATOM     30  C   UNL     1      -1.094  14.512  23.874  0.00  0.00    +0.000 A 
ATOM     31  C   UNL     1      -2.233  14.300  23.079  0.00  0.00    +0.000 A 
ENDBRANCH  21  22
ENDBRANCH   5  21
TORSDOF 4
ENDMDL
MODEL 4
REMARK VINA RESULT:      -7.9      5.108      8.709
REMARK  Name = 
REMARK  5 active torsions:
REMARK  status: ('A' for Active; 'I' for Inactive)
REMARK    1  A    between atoms: C_1  and  C_2
REMARK    2  A    between atoms: C_5  and  O_6
REMARK    3  A    between atoms: O_6  and  C_7
REMARK    4  A    between atoms: C_19  and  C_21
REMARK    5  A    between atoms: C_26  and  N_27
REMARK                            x       y       z     vdW  Elec       q    Type
REMARK                         _______ _______ _______ _____ _____    ______ ____
ROOT
ATOM      1  C   UNL     1       2.630  13.434  17.924  0.00  0.00    +0.000 C 
ATOM      2  C   UNL     1       2.240  12.732  19.227  0.00  0.00    +0.000 C 
ATOM      3  C   UNL     1       2.690  13.497  20.490  0.00  0.00    +0.000 C 
ATOM      4  C   UNL     1       1.849  14.745  20.778  0.00  0.00    +0.000 C 
ATOM      5  C   UNL     1       0.336  14.454  20.780  0.00  0.00    +0.000 C 
ATOM      6  C   UNL     1      -0.035  13.663  19.508  0.00  0.00    +0.000 C 
ATOM      7  N   UNL     1       0.790  12.466  19.309  0.00  0.00    +0.000 N 
ATOM      8  C   UNL     1       0.121  11.226  19.243  0.00  0.00    +0.000 C 
ATOM      9  O   UNL     1      -1.096  11.129  19.404  0.00  0.00    +0.000 OA
ENDROOT
BRANCH   8  10
ATOM     10  C   UNL     1       0.869   9.947  19.064  0.00  0.00    +0.000 A 
ATOM     11  C   UNL     1       1.582   9.784  17.862  0.00  0.00    +0.000 A 
ATOM     12  C   UNL     1       2.327   8.636  17.594  0.00  0.00    +0.000 A 
ATOM     13  C   UNL     1       2.493   7.683  18.583  0.00  0.00    +0.000 A 
ATOM     14  C   UNL     1       1.923   7.890  19.837  0.00  0.00    +0.000 A 
ATOM     15  C   UNL     1       1.090   9.007  20.090  0.00  0.00    +0.000 A 
BRANCH  15  16
ATOM     16  N   UNL     1       0.544   9.103  21.397  0.00  0.00    +0.000 N 
ATOM     17  N   UNL     1      -0.639   8.553  21.786  0.00  0.00    +0.000 NA
ATOM     18  C   UNL     1      -0.704   8.897  23.075  0.00  0.00    +0.000 A 
ATOM     19  C   UNL     1       0.462   9.561  23.459  0.00  0.00    +0.000 A 
ATOM     20  N   UNL     1       1.294   9.634  22.422  0.00  0.00    +0.000 NA
ENDBRANCH  15  16
ENDBRANCH   8  10
BRANCH   5  21
ATOM     21  O   UNL     1      -0.004  13.749  21.994  0.00  0.00    +0.000 OA
BRANCH  21  22
ATOM     22  C   UNL     1      -0.763  14.430  22.924  0.00  0.00    +0.000 A 
ATOM     23  C   UNL     1      -0.474  15.736  23.343  0.00  0.00    +0.000 A 
ATOM     24  C   UNL     1      -1.270  16.389  24.277  0.00  0.00    +0.000 A 
ATOM     25  C   UNL     1      -2.374  15.746  24.821  0.00  0.00    +0.000 A 
ATOM     26  C   UNL     1      -2.711  14.451  24.413  0.00  0.00    +0.000 A 
ATOM     27  C   UNL     1      -3.838  13.821  24.950  0.00  0.00    +0.000 A 
ATOM     28  C   UNL     1      -4.161  12.550  24.520  0.00  0.00    +0.000 A 
ATOM     29  N   UNL     1      -3.441  11.864  23.608  0.00  0.00    +0.000 NA
ATOM     30  C   UNL     1      -2.344  12.494  23.098  0.00  0.00    +0.000 A 
ATOM     31  C   UNL     1      -1.914  13.783  23.452  0.00  0.00    +0.000 A 
ENDBRANCH  21  22
ENDBRANCH   5  21
TORSDOF 4
ENDMDL
MODEL 5
REMARK VINA RESULT:      -7.8      8.283     10.599
REMARK  Name = 
REMARK  5 active torsions:
REMARK  status: ('A' for Active; 'I' for Inactive)
REMARK    1  A    between atoms: C_1  and  C_2
REMARK    2  A    between atoms: C_5  and  O_6
REMARK    3  A    between atoms: O_6  and  C_7
REMARK    4  A    between atoms: C_19  and  C_21
REMARK    5  A    between atoms: C_26  and  N_27
REMARK                            x       y       z     vdW  Elec       q    Type
REMARK                         _______ _______ _______ _____ _____    ______ ____
ROOT
ATOM      1  C   UNL     1       1.566  12.796  18.473  0.00  0.00    +0.000 C 
ATOM      2  C   UNL     1       0.340  13.684  18.691  0.00  0.00    +0.000 C 
ATOM      3  C   UNL     1      -0.973  12.886  18.844  0.00  0.00    +0.000 C 
ATOM      4  C   UNL     1      -1.102  12.182  20.199  0.00  0.00    +0.000 C 
ATOM      5  C   UNL     1      -0.853  13.129  21.387  0.00  0.00    +0.000 C 
ATOM      6  C   UNL     1       0.454  13.915  21.152  0.00  0.00    +0.000 C 
ATOM      7  N   UNL     1       0.499  14.587  19.848  0.00  0.00    +0.000 N 
ATOM      8  C   UNL     1       0.663  15.988  19.852  0.00  0.00    +0.000 C 
ATOM      9  O   UNL     1       0.708  16.640  20.895  0.00  0.00    +0.000 OA
ENDROOT
BRANCH   8  10
ATOM     10  C   UNL     1       0.700  16.770  18.581  0.00  0.00    +0.000 A 
ATOM     11  C   UNL     1      -0.461  17.482  18.232  0.00  0.00    +0.000 A 
ATOM     12  C   UNL     1      -0.533  18.257  17.074  0.00  0.00    +0.000 A 
ATOM     13  C   UNL     1       0.605  18.452  16.310  0.00  0.00    +0.000 A 
ATOM     14  C   UNL     1       1.808  17.881  16.716  0.00  0.00    +0.000 A 
ATOM     15  C   UNL     1       1.872  17.020  17.838  0.00  0.00    +0.000 A 
BRANCH  15  16
ATOM     16  N   UNL     1       3.147  16.476  18.144  0.00  0.00    +0.000 N 
ATOM     17  N   UNL     1       3.710  15.412  17.507  0.00  0.00    +0.000 NA
ATOM     18  C   UNL     1       4.887  15.298  18.129  0.00  0.00    +0.000 A 
ATOM     19  C   UNL     1       5.049  16.331  19.054  0.00  0.00    +0.000 A 
ATOM     20  N   UNL     1       3.983  17.128  19.022  0.00  0.00    +0.000 NA
ENDBRANCH  15  16
ENDBRANCH   8  10
BRANCH   5  21
ATOM     21  O   UNL     1      -2.000  13.992  21.547  0.00  0.00    +0.000 OA
BRANCH  21  22
ATOM     22  C   UNL     1      -3.008  13.549  22.378  0.00  0.00    +0.000 A 
ATOM     23  C   UNL     1      -2.835  13.344  23.754  0.00  0.00    +0.000 A 
ATOM     24  C   UNL     1      -3.881  12.903  24.557  0.00  0.00    +0.000 A 
ATOM     25  C   UNL     1      -5.127  12.651  24.000  0.00  0.00    +0.000 A 
ATOM     26  C   UNL     1      -5.349  12.866  22.636  0.00  0.00    +0.000 A 
ATOM     27  C   UNL     1      -6.615  12.631  22.090  0.00  0.00    +0.000 A 
ATOM     28  C   UNL     1      -6.815  12.866  20.744  0.00  0.00    +0.000 A 
ATOM     29  N   UNL     1      -5.850  13.305  19.910  0.00  0.00    +0.000 NA
ATOM     30  C   UNL     1      -4.622  13.525  20.461  0.00  0.00    +0.000 A 
ATOM     31  C   UNL     1      -4.294  13.327  21.812  0.00  0.00    +0.000 A 
ENDBRANCH  21  22
ENDBRANCH   5  21
TORSDOF 4
ENDMDL
MODEL 6
REMARK VINA RESULT:      -7.7      3.467      8.282
REMARK  Name = 
REMARK  5 active torsions:
REMARK  status: ('A' for Active; 'I' for Inactive)
REMARK    1  A    between atoms: C_1  and  C_2
REMARK    2  A    between atoms: C_5  and  O_6
REMARK    3  A    between atoms: O_6  and  C_7
REMARK    4  A    between atoms: C_19  and  C_21
REMARK    5  A    between atoms: C_26  and  N_27
REMARK                            x       y       z     vdW  Elec       q    Type
REMARK                         _______ _______ _______ _____ _____    ______ ____
ROOT
ATOM      1  C   UNL     1       2.494  10.921  18.174  0.00  0.00    +0.000 C 
ATOM      2  C   UNL     1       1.454   9.799  18.129  0.00  0.00    +0.000 C 
ATOM      3  C   UNL     1       1.948   8.539  17.387  0.00  0.00    +0.000 C 
ATOM      4  C   UNL     1       2.964   7.719  18.189  0.00  0.00    +0.000 C 
ATOM      5  C   UNL     1       2.479   7.403  19.616  0.00  0.00    +0.000 C 
ATOM      6  C   UNL     1       1.972   8.699  20.284  0.00  0.00    +0.000 C 
ATOM      7  N   UNL     1       0.981   9.418  19.475  0.00  0.00    +0.000 N 
ATOM      8  C   UNL     1      -0.286   9.638  20.055  0.00  0.00    +0.000 C 
ATOM      9  O   UNL     1      -0.583   9.199  21.166  0.00  0.00    +0.000 OA
ENDROOT
BRANCH   8  10
ATOM     10  C   UNL     1      -1.370  10.341  19.308  0.00  0.00    +0.000 A 
ATOM     11  C   UNL     1      -1.989   9.636  18.260  0.00  0.00    +0.000 A 
ATOM     12  C   UNL     1      -3.023  10.190  17.505  0.00  0.00    +0.000 A 
ATOM     13  C   UNL     1      -3.560  11.412  17.874  0.00  0.00    +0.000 A 
ATOM     14  C   UNL     1      -3.067  12.064  19.001  0.00  0.00    +0.000 A 
ATOM     15  C   UNL     1      -1.959  11.554  19.720  0.00  0.00    +0.000 A 
BRANCH  15  16
ATOM     16  N   UNL     1      -1.527  12.315  20.838  0.00  0.00    +0.000 N 
ATOM     17  N   UNL     1      -1.999  12.167  22.107  0.00  0.00    +0.000 NA
ATOM     18  C   UNL     1      -1.291  13.074  22.783  0.00  0.00    +0.000 A 
ATOM     19  C   UNL     1      -0.356  13.684  21.944  0.00  0.00    +0.000 A 
ATOM     20  N   UNL     1      -0.446  13.159  20.723  0.00  0.00    +0.000 NA
ENDBRANCH  15  16
ENDBRANCH   8  10
BRANCH   5  21
ATOM     21  O   UNL     1       1.464   6.378  19.549  0.00  0.00    +0.000 OA
BRANCH  21  22
ATOM     22  C   UNL     1       1.808   5.123  20.010  0.00  0.00    +0.000 A 
ATOM     23  C   UNL     1       1.838   4.786  21.370  0.00  0.00    +0.000 A 
ATOM     24  C   UNL     1       2.183   3.506  21.791  0.00  0.00    +0.000 A 
ATOM     25  C   UNL     1       2.514   2.532  20.858  0.00  0.00    +0.000 A 
ATOM     26  C   UNL     1       2.475   2.821  19.490  0.00  0.00    +0.000 A 
ATOM     27  C   UNL     1       2.788   1.826  18.557  0.00  0.00    +0.000 A 
ATOM     28  C   UNL     1       2.726   2.129  17.212  0.00  0.00    +0.000 A 
ATOM     29  N   UNL     1       2.386   3.345  16.734  0.00  0.00    +0.000 NA
ATOM     30  C   UNL     1       2.087   4.301  17.659  0.00  0.00    +0.000 A 
ATOM     31  C   UNL     1       2.111   4.117  19.051  0.00  0.00    +0.000 A 
ENDBRANCH  21  22
ENDBRANCH   5  21
TORSDOF 4
ENDMDL
MODEL 7
REMARK VINA RESULT:      -7.7      3.756      9.095
REMARK  Name = 
REMARK  5 active torsions:
REMARK  status: ('A' for Active; 'I' for Inactive)
REMARK    1  A    between atoms: C_1  and  C_2
REMARK    2  A    between atoms: C_5  and  O_6
REMARK    3  A    between atoms: O_6  and  C_7
REMARK    4  A    between atoms: C_19  and  C_21
REMARK    5  A    between atoms: C_26  and  N_27
REMARK                            x       y       z     vdW  Elec       q    Type
REMARK                         _______ _______ _______ _____ _____    ______ ____
ROOT
ATOM      1  C   UNL     1      -1.267  12.311  17.803  0.00  0.00    +0.000 C 
ATOM      2  C   UNL     1      -0.919  11.250  18.849  0.00  0.00    +0.000 C 
ATOM      3  C   UNL     1      -1.041   9.806  18.317  0.00  0.00    +0.000 C 
ATOM      4  C   UNL     1       0.096   9.409  17.369  0.00  0.00    +0.000 C 
ATOM      5  C   UNL     1       1.490   9.697  17.959  0.00  0.00    +0.000 C 
ATOM      6  C   UNL     1       1.529  11.143  18.499  0.00  0.00    +0.000 C 
ATOM      7  N   UNL     1       0.428  11.446  19.421  0.00  0.00    +0.000 N 
ATOM      8  C   UNL     1       0.777  11.860  20.724  0.00  0.00    +0.000 C 
ATOM      9  O   UNL     1       1.946  11.911  21.104  0.00  0.00    +0.000 OA
ENDROOT
BRANCH   8  10
ATOM     10  C   UNL     1      -0.266  12.173  21.744  0.00  0.00    +0.000 A 
ATOM     11  C   UNL     1      -0.907  11.084  22.362  0.00  0.00    +0.000 A 
ATOM     12  C   UNL     1      -1.886  11.259  23.340  0.00  0.00    +0.000 A 
ATOM     13  C   UNL     1      -2.148  12.529  23.826  0.00  0.00    +0.000 A 
ATOM     14  C   UNL     1      -1.419  13.612  23.339  0.00  0.00    +0.000 A 
ATOM     15  C   UNL     1      -0.488  13.457  22.284  0.00  0.00    +0.000 A 
BRANCH  15  16
ATOM     16  N   UNL     1       0.178  14.633  21.853  0.00  0.00    +0.000 N 
ATOM     17  N   UNL     1       1.344  15.102  22.378  0.00  0.00    +0.000 NA
ATOM     18  C   UNL     1       1.568  16.196  21.646  0.00  0.00    +0.000 A 
ATOM     19  C   UNL     1       0.598  16.320  20.649  0.00  0.00    +0.000 A 
ATOM     20  N   UNL     1      -0.248  15.294  20.723  0.00  0.00    +0.000 NA
ENDBRANCH  15  16
ENDBRANCH   8  10
BRANCH   5  21
ATOM     21  O   UNL     1       1.780   8.715  18.977  0.00  0.00    +0.000 OA
BRANCH  21  22
ATOM     22  C   UNL     1       2.597   7.662  18.619  0.00  0.00    +0.000 A 
ATOM     23  C   UNL     1       3.512   7.726  17.560  0.00  0.00    +0.000 A 
ATOM     24  C   UNL     1       4.323   6.643  17.237  0.00  0.00    +0.000 A 
ATOM     25  C   UNL     1       4.231   5.464  17.965  0.00  0.00    +0.000 A 
ATOM     26  C   UNL     1       3.347   5.367  19.044  0.00  0.00    +0.000 A 
ATOM     27  C   UNL     1       3.279   4.182  19.786  0.00  0.00    +0.000 A 
ATOM     28  C   UNL     1       2.412   4.114  20.857  0.00  0.00    +0.000 A 
ATOM     29  N   UNL     1       1.607   5.130  21.233  0.00  0.00    +0.000 NA
ATOM     30  C   UNL     1       1.686   6.275  20.497  0.00  0.00    +0.000 A 
ATOM     31  C   UNL     1       2.528   6.469  19.389  0.00  0.00    +0.000 A 
ENDBRANCH  21  22
ENDBRANCH   5  21
TORSDOF 4
ENDMDL
MODEL 8
REMARK VINA RESULT:      -7.6      1.358      2.067
REMARK  Name = 
REMARK  5 active torsions:
REMARK  status: ('A' for Active; 'I' for Inactive)
REMARK    1  A    between atoms: C_1  and  C_2
REMARK    2  A    between atoms: C_5  and  O_6
REMARK    3  A    between atoms: O_6  and  C_7
REMARK    4  A    between atoms: C_19  and  C_21
REMARK    5  A    between atoms: C_26  and  N_27
REMARK                            x       y       z     vdW  Elec       q    Type
REMARK                         _______ _______ _______ _____ _____    ______ ____
ROOT
ATOM      1  C   UNL     1       2.266   2.886  18.084  0.00  0.00    +0.000 C 
ATOM      2  C   UNL     1       2.797   4.300  17.842  0.00  0.00    +0.000 C 
ATOM      3  C   UNL     1       1.684   5.369  17.791  0.00  0.00    +0.000 C 
ATOM      4  C   UNL     1       1.097   5.703  19.167  0.00  0.00    +0.000 C 
ATOM      5  C   UNL     1       2.180   6.037  20.210  0.00  0.00    +0.000 C 
ATOM      6  C   UNL     1       3.272   4.946  20.183  0.00  0.00    +0.000 C 
ATOM      7  N   UNL     1       3.809   4.698  18.841  0.00  0.00    +0.000 N 
ATOM      8  C   UNL     1       5.196   4.885  18.659  0.00  0.00    +0.000 C 
ATOM      9  O   UNL     1       5.926   5.296  19.560  0.00  0.00    +0.000 OA
ENDROOT
BRANCH   8  10
ATOM     10  C   UNL     1       5.839   4.679  17.328  0.00  0.00    +0.000 A 
ATOM     11  C   UNL     1       5.290   3.685  16.497  0.00  0.00    +0.000 A 
ATOM     12  C   UNL     1       5.802   3.417  15.227  0.00  0.00    +0.000 A 
ATOM     13  C   UNL     1       6.787   4.234  14.701  0.00  0.00    +0.000 A 
ATOM     14  C   UNL     1       7.245   5.321  15.443  0.00  0.00    +0.000 A 
ATOM     15  C   UNL     1       6.797   5.548  16.767  0.00  0.00    +0.000 A 
BRANCH  15  16
ATOM     16  N   UNL     1       7.349   6.671  17.435  0.00  0.00    +0.000 N 
ATOM     17  N   UNL     1       8.185   6.602  18.508  0.00  0.00    +0.000 NA
ATOM     18  C   UNL     1       8.435   7.890  18.758  0.00  0.00    +0.000 A 
ATOM     19  C   UNL     1       7.829   8.698  17.795  0.00  0.00    +0.000 A 
ATOM     20  N   UNL     1       7.197   7.933  16.907  0.00  0.00    +0.000 NA
ENDBRANCH  15  16
ENDBRANCH   8  10
BRANCH   5  21
ATOM     21  O   UNL     1       2.703   7.355  19.936  0.00  0.00    +0.000 OA
BRANCH  21  22
ATOM     22  C   UNL     1       1.793   8.332  19.588  0.00  0.00    +0.000 A 
ATOM     23  C   UNL     1       1.505   8.674  18.259  0.00  0.00    +0.000 A 
ATOM     24  C   UNL     1       0.574   9.661  17.952  0.00  0.00    +0.000 A 
ATOM     25  C   UNL     1      -0.087  10.335  18.970  0.00  0.00    +0.000 A 
ATOM     26  C   UNL     1       0.154  10.007  20.308  0.00  0.00    +0.000 A 
ATOM     27  C   UNL     1      -0.535  10.677  21.325  0.00  0.00    +0.000 A 
ATOM     28  C   UNL     1      -0.293  10.326  22.638  0.00  0.00    +0.000 A 
ATOM     29  N   UNL     1       0.586   9.371  23.006  0.00  0.00    +0.000 NA
ATOM     30  C   UNL     1       1.249   8.732  22.001  0.00  0.00    +0.000 A 
ATOM     31  C   UNL     1       1.090   8.995  20.631  0.00  0.00    +0.000 A 
ENDBRANCH  21  22
ENDBRANCH   5  21
TORSDOF 4
ENDMDL
MODEL 9
REMARK VINA RESULT:      -7.6      8.238     10.590
REMARK  Name = 
REMARK  5 active torsions:
REMARK  status: ('A' for Active; 'I' for Inactive)
REMARK    1  A    between atoms: C_1  and  C_2
REMARK    2  A    between atoms: C_5  and  O_6
REMARK    3  A    between atoms: O_6  and  C_7
REMARK    4  A    between atoms: C_19  and  C_21
REMARK    5  A    between atoms: C_26  and  N_27
REMARK                            x       y       z     vdW  Elec       q    Type
REMARK                         _______ _______ _______ _____ _____    ______ ____
ROOT
ATOM      1  C   UNL     1       1.420  12.631  18.597  0.00  0.00    +0.000 C 
ATOM      2  C   UNL     1       0.149  13.474  18.476  0.00  0.00    +0.000 C 
ATOM      3  C   UNL     1      -1.118  12.634  18.211  0.00  0.00    +0.000 C 
ATOM      4  C   UNL     1      -1.609  11.867  19.443  0.00  0.00    +0.000 C 
ATOM      5  C   UNL     1      -1.755  12.767  20.684  0.00  0.00    +0.000 C 
ATOM      6  C   UNL     1      -0.468  13.599  20.869  0.00  0.00    +0.000 C 
ATOM      7  N   UNL     1      -0.072  14.329  19.660  0.00  0.00    +0.000 N 
ATOM      8  C   UNL     1       0.028  15.733  19.759  0.00  0.00    +0.000 C 
ATOM      9  O   UNL     1      -0.260  16.339  20.791  0.00  0.00    +0.000 OA
ENDROOT
BRANCH   8  10
ATOM     10  C   UNL     1       0.403  16.570  18.582  0.00  0.00    +0.000 A 
ATOM     11  C   UNL     1      -0.616  17.339  17.991  0.00  0.00    +0.000 A 
ATOM     12  C   UNL     1      -0.375  18.169  16.895  0.00  0.00    +0.000 A 
ATOM     13  C   UNL     1       0.923  18.358  16.454  0.00  0.00    +0.000 A 
ATOM     14  C   UNL     1       1.972  17.726  17.118  0.00  0.00    +0.000 A 
ATOM     15  C   UNL     1       1.730  16.812  18.172  0.00  0.00    +0.000 A 
BRANCH  15  16
ATOM     16  N   UNL     1       2.873  16.210  18.759  0.00  0.00    +0.000 N 
ATOM     17  N   UNL     1       3.237  16.344  20.064  0.00  0.00    +0.000 NA
ATOM     18  C   UNL     1       4.341  15.595  20.131  0.00  0.00    +0.000 A 
ATOM     19  C   UNL     1       4.572  14.961  18.909  0.00  0.00    +0.000 A 
ATOM     20  N   UNL     1       3.607  15.285  18.051  0.00  0.00    +0.000 NA
ENDBRANCH  15  16
ENDBRANCH   8  10
BRANCH   5  21
ATOM     21  O   UNL     1      -2.932  13.590  20.530  0.00  0.00    +0.000 OA
BRANCH  21  22
ATOM     22  C   UNL     1      -4.001  13.319  21.360  0.00  0.00    +0.000 A 
ATOM     23  C   UNL     1      -4.004  13.616  22.730  0.00  0.00    +0.000 A 
ATOM     24  C   UNL     1      -5.106  13.333  23.529  0.00  0.00    +0.000 A 
ATOM     25  C   UNL     1      -6.232  12.738  22.977  0.00  0.00    +0.000 A 
ATOM     26  C   UNL     1      -6.279  12.447  21.609  0.00  0.00    +0.000 A 
ATOM     27  C   UNL     1      -7.428  11.869  21.058  0.00  0.00    +0.000 A 
ATOM     28  C   UNL     1      -7.458  11.606  19.704  0.00  0.00    +0.000 A 
ATOM     29  N   UNL     1      -6.431  11.866  18.868  0.00  0.00    +0.000 NA
ATOM     30  C   UNL     1      -5.320  12.427  19.425  0.00  0.00    +0.000 A 
ATOM     31  C   UNL     1      -5.167  12.744  20.785  0.00  0.00    +0.000 A 
ENDBRANCH  21  22
ENDBRANCH   5  21
TORSDOF 4
ENDMDL
