MODEL 1
REMARK VINA RESULT:      -8.0      0.000      0.000
REMARK  Name = 
REMARK  5 active torsions:
REMARK  status: ('A' for Active; 'I' for Inactive)
REMARK    1  A    between atoms: C_1  and  C_2
REMARK    2  A    between atoms: C_8  and  C_9
REMARK    3  A    between atoms: C_14  and  C_15
REMARK    4  A    between atoms: N_18  and  C_19
REMARK    5  A    between atoms: C_19  and  C_20
REMARK                            x       y       z     vdW  Elec       q    Type
REMARK                         _______ _______ _______ _____ _____    ______ ____
ROOT
ATOM      1  C   UNL     1       3.360   1.165  18.207  0.00  0.00    +0.000 C 
ATOM      2  C   UNL     1       2.753   2.419  18.885  0.00  0.00    +0.000 C 
ATOM      3  C   UNL     1       2.091   3.618  18.041  0.00  0.00    +0.000 C 
ATOM      4  C   UNL     1       2.884   3.656  16.760  0.00  0.00    +0.000 C 
ATOM      5  C   UNL     1       4.306   3.933  17.155  0.00  0.00    +0.000 A 
ATOM      6  C   UNL     1       5.087   4.410  16.093  0.00  0.00    +0.000 A 
ATOM      7  C   UNL     1       6.164   5.208  16.378  0.00  0.00    +0.000 A 
ATOM      8  C   UNL     1       6.473   5.472  17.717  0.00  0.00    +0.000 A 
ATOM      9  C   UNL     1       5.845   4.747  18.787  0.00  0.00    +0.000 A 
ATOM     10  C   UNL     1       4.728   3.918  18.536  0.00  0.00    +0.000 A 
ATOM     11  C   UNL     1       3.802   3.186  19.697  0.00  0.00    +0.000 C 
ATOM     12  C   UNL     1       4.695   2.327  20.608  0.00  0.00    +0.000 C 
ATOM     13  C   UNL     1       2.774   3.881  20.761  0.00  0.00    +0.000 C 
ATOM     14  C   UNL     1       1.478   4.475  20.156  0.00  0.00    +0.000 C 
ATOM     15  N   UNL     1       1.820   4.986  18.838  0.00  0.00    +0.000 NA
ENDROOT
BRANCH   8  16
ATOM     16  C   UNL     1       7.350   6.680  17.887  0.00  0.00    +0.000 C 
ATOM     17  N   UNL     1       8.180   6.702  18.970  0.00  0.00    +0.000 N 
ATOM     18  O   UNL     1       7.352   7.618  17.104  0.00  0.00    +0.000 OA
ATOM     19  H   UNL     1       8.816   7.477  19.017  0.00  0.00    +0.000 HD
ATOM     20  H   UNL     1       8.329   5.895  19.561  0.00  0.00    +0.000 HD
ENDBRANCH   8  16
BRANCH  15  21
ATOM     21  C   UNL     1       2.888   6.080  19.086  0.00  0.00    +0.000 C 
BRANCH  21  22
ATOM     22  C   UNL     1       2.551   7.652  19.114  0.00  0.00    +0.000 C 
ATOM     23  C   UNL     1       1.455   8.143  20.037  0.00  0.00    +0.000 C 
ATOM     24  C   UNL     1       1.181   9.527  19.468  0.00  0.00    +0.000 C 
ATOM     25  C   UNL     1       1.249   9.278  17.977  0.00  0.00    +0.000 C 
ATOM     26  O   UNL     1       2.090   8.118  17.792  0.00  0.00    +0.000 OA
ENDBRANCH  21  22
ENDBRANCH  15  21
TORSDOF 3
ENDMDL
MODEL 2
REMARK VINA RESULT:      -7.1      1.960      4.745
REMARK  Name = 
REMARK  5 active torsions:
REMARK  status: ('A' for Active; 'I' for Inactive)
REMARK    1  A    between atoms: C_1  and  C_2
REMARK    2  A    between atoms: C_8  and  C_9
REMARK    3  A    between atoms: C_14  and  C_15
REMARK    4  A    between atoms: N_18  and  C_19
REMARK    5  A    between atoms: C_19  and  C_20
REMARK                            x       y       z     vdW  Elec       q    Type
REMARK                         _______ _______ _______ _____ _____    ______ ____
ROOT
ATOM      1  C   UNL     1       7.818   4.337  16.981  0.00  0.00    +0.000 C 
ATOM      2  C   UNL     1       6.794   5.493  16.853  0.00  0.00    +0.000 C 
ATOM      3  C   UNL     1       6.202   6.264  18.136  0.00  0.00    +0.000 C 
ATOM      4  C   UNL     1       6.152   5.212  19.214  0.00  0.00    +0.000 C 
ATOM      5  C   UNL     1       5.239   4.134  18.706  0.00  0.00    +0.000 A 
ATOM      6  C   UNL     1       4.754   3.301  19.724  0.00  0.00    +0.000 A 
ATOM      7  C   UNL     1       3.547   2.679  19.543  0.00  0.00    +0.000 A 
ATOM      8  C   UNL     1       2.871   2.856  18.330  0.00  0.00    +0.000 A 
ATOM      9  C   UNL     1       3.511   3.470  17.200  0.00  0.00    +0.000 A 
ATOM     10  C   UNL     1       4.754   4.126  17.346  0.00  0.00    +0.000 A 
ATOM     11  C   UNL     1       5.500   5.030  16.175  0.00  0.00    +0.000 C 
ATOM     12  C   UNL     1       5.682   4.185  14.903  0.00  0.00    +0.000 C 
ATOM     13  C   UNL     1       5.048   6.482  15.575  0.00  0.00    +0.000 C 
ATOM     14  C   UNL     1       5.191   7.684  16.541  0.00  0.00    +0.000 C 
ATOM     15  N   UNL     1       4.914   7.189  17.879  0.00  0.00    +0.000 NA
ENDROOT
BRANCH   8  16
ATOM     16  C   UNL     1       1.410   2.522  18.422  0.00  0.00    +0.000 C 
ATOM     17  N   UNL     1       1.075   1.335  19.008  0.00  0.00    +0.000 N 
ATOM     18  O   UNL     1       0.529   3.261  18.007  0.00  0.00    +0.000 OA
ATOM     19  H   UNL     1       0.094   1.172  19.135  0.00  0.00    +0.000 HD
ATOM     20  H   UNL     1       1.747   0.762  19.501  0.00  0.00    +0.000 HD
ENDBRANCH   8  16
BRANCH  15  21
ATOM     21  C   UNL     1       3.457   6.665  17.831  0.00  0.00    +0.000 C 
BRANCH  21  22
ATOM     22  C   UNL     1       2.181   7.569  18.202  0.00  0.00    +0.000 C 
ATOM     23  C   UNL     1       2.160   9.015  17.755  0.00  0.00    +0.000 C 
ATOM     24  C   UNL     1       1.056   9.586  18.632  0.00  0.00    +0.000 C 
ATOM     25  C   UNL     1       1.325   8.914  19.961  0.00  0.00    +0.000 C 
ATOM     26  O   UNL     1       2.022   7.683  19.665  0.00  0.00    +0.000 OA
ENDBRANCH  21  22
ENDBRANCH  15  21
TORSDOF 3
ENDMDL
MODEL 3
REMARK VINA RESULT:      -6.6      2.008      4.780
REMARK  Name = 
REMARK  5 active torsions:
REMARK  status: ('A' for Active; 'I' for Inactive)
REMARK    1  A    between atoms: C_1  and  C_2
REMARK    2  A    between atoms: C_8  and  C_9
REMARK    3  A    between atoms: C_14  and  C_15
REMARK    4  A    between atoms: N_18  and  C_19
REMARK    5  A    between atoms: C_19  and  C_20
REMARK                            x       y       z     vdW  Elec       q    Type
REMARK                         _______ _______ _______ _____ _____    ______ ____
ROOT
ATOM      1  C   UNL     1       0.633   2.518  21.041  0.00  0.00    +0.000 C 
ATOM      2  C   UNL     1       1.985   2.351  20.302  0.00  0.00    +0.000 C 
ATOM      3  C   UNL     1       3.354   2.985  20.861  0.00  0.00    +0.000 C 
ATOM      4  C   UNL     1       2.925   4.254  21.552  0.00  0.00    +0.000 C 
ATOM      5  C   UNL     1       2.272   5.104  20.501  0.00  0.00    +0.000 A 
ATOM      6  C   UNL     1       2.194   6.457  20.860  0.00  0.00    +0.000 A 
ATOM      7  C   UNL     1       2.166   7.398  19.865  0.00  0.00    +0.000 A 
ATOM      8  C   UNL     1       2.164   6.973  18.532  0.00  0.00    +0.000 A 
ATOM      9  C   UNL     1       1.952   5.595  18.187  0.00  0.00    +0.000 A 
ATOM     10  C   UNL     1       1.978   4.592  19.183  0.00  0.00    +0.000 A 
ATOM     11  C   UNL     1       1.940   2.961  18.898  0.00  0.00    +0.000 C 
ATOM     12  C   UNL     1       0.699   2.609  18.060  0.00  0.00    +0.000 C 
ATOM     13  C   UNL     1       3.098   2.022  18.227  0.00  0.00    +0.000 C 
ATOM     14  C   UNL     1       4.369   1.803  19.085  0.00  0.00    +0.000 C 
ATOM     15  N   UNL     1       4.590   3.028  19.836  0.00  0.00    +0.000 NA
ENDROOT
BRANCH   8  16
ATOM     16  C   UNL     1       2.585   8.050  17.574  0.00  0.00    +0.000 C 
ATOM     17  N   UNL     1       1.916   9.238  17.635  0.00  0.00    +0.000 N 
ATOM     18  O   UNL     1       3.492   7.907  16.766  0.00  0.00    +0.000 OA
ATOM     19  H   UNL     1       2.269   9.970  17.047  0.00  0.00    +0.000 HD
ATOM     20  H   UNL     1       1.267   9.462  18.378  0.00  0.00    +0.000 HD
ENDBRANCH   8  16
BRANCH  15  21
ATOM     21  C   UNL     1       4.804   4.132  18.770  0.00  0.00    +0.000 C 
BRANCH  21  22
ATOM     22  C   UNL     1       5.837   5.350  18.955  0.00  0.00    +0.000 C 
ATOM     23  C   UNL     1       6.549   5.890  17.732  0.00  0.00    +0.000 C 
ATOM     24  C   UNL     1       7.681   6.681  18.368  0.00  0.00    +0.000 C 
ATOM     25  C   UNL     1       8.108   5.772  19.501  0.00  0.00    +0.000 C 
ATOM     26  O   UNL     1       6.957   4.963  19.833  0.00  0.00    +0.000 OA
ENDBRANCH  21  22
ENDBRANCH  15  21
TORSDOF 3
ENDMDL
MODEL 4
REMARK VINA RESULT:      -6.6      2.790      5.351
REMARK  Name = 
REMARK  5 active torsions:
REMARK  status: ('A' for Active; 'I' for Inactive)
REMARK    1  A    between atoms: C_1  and  C_2
REMARK    2  A    between atoms: C_8  and  C_9
REMARK    3  A    between atoms: C_14  and  C_15
REMARK    4  A    between atoms: N_18  and  C_19
REMARK    5  A    between atoms: C_19  and  C_20
REMARK                            x       y       z     vdW  Elec       q    Type
REMARK                         _______ _______ _______ _____ _____    ______ ____
ROOT
ATOM      1  C   UNL     1       6.670   7.918  17.675  0.00  0.00    +0.000 C 
ATOM      2  C   UNL     1       6.468   6.573  16.931  0.00  0.00    +0.000 C 
ATOM      3  C   UNL     1       5.073   6.178  16.232  0.00  0.00    +0.000 C 
ATOM      4  C   UNL     1       4.023   6.826  17.099  0.00  0.00    +0.000 C 
ATOM      5  C   UNL     1       4.183   6.229  18.467  0.00  0.00    +0.000 A 
ATOM      6  C   UNL     1       3.049   6.397  19.275  0.00  0.00    +0.000 A 
ATOM      7  C   UNL     1       2.809   5.483  20.266  0.00  0.00    +0.000 A 
ATOM      8  C   UNL     1       3.730   4.449  20.469  0.00  0.00    +0.000 A 
ATOM      9  C   UNL     1       5.019   4.459  19.833  0.00  0.00    +0.000 A 
ATOM     10  C   UNL     1       5.304   5.383  18.802  0.00  0.00    +0.000 A 
ATOM     11  C   UNL     1       6.669   5.375  17.864  0.00  0.00    +0.000 C 
ATOM     12  C   UNL     1       7.917   5.435  18.762  0.00  0.00    +0.000 C 
ATOM     13  C   UNL     1       7.107   4.292  16.721  0.00  0.00    +0.000 C 
ATOM     14  C   UNL     1       6.262   4.304  15.423  0.00  0.00    +0.000 C 
ATOM     15  N   UNL     1       4.900   4.640  15.807  0.00  0.00    +0.000 NA
ENDROOT
BRANCH   8  16
ATOM     16  C   UNL     1       3.153   3.294  21.237  0.00  0.00    +0.000 C 
ATOM     17  N   UNL     1       1.947   3.489  21.846  0.00  0.00    +0.000 N 
ATOM     18  O   UNL     1       3.708   2.208  21.327  0.00  0.00    +0.000 OA
ATOM     19  H   UNL     1       1.542   2.681  22.281  0.00  0.00    +0.000 HD
ATOM     20  H   UNL     1       1.378   4.308  21.681  0.00  0.00    +0.000 HD
ENDBRANCH   8  16
BRANCH  15  21
ATOM     21  C   UNL     1       4.453   3.511  16.769  0.00  0.00    +0.000 C 
BRANCH  21  22
ATOM     22  C   UNL     1       2.920   3.071  16.962  0.00  0.00    +0.000 C 
ATOM     23  C   UNL     1       1.920   4.108  17.431  0.00  0.00    +0.000 C 
ATOM     24  C   UNL     1       0.761   3.229  17.876  0.00  0.00    +0.000 C 
ATOM     25  C   UNL     1       1.474   2.087  18.568  0.00  0.00    +0.000 C 
ATOM     26  O   UNL     1       2.797   2.020  17.991  0.00  0.00    +0.000 OA
ENDBRANCH  21  22
ENDBRANCH  15  21
TORSDOF 3
ENDMDL
MODEL 5
REMARK VINA RESULT:      -6.2      8.572     11.735
REMARK  Name = 
REMARK  5 active torsions:
REMARK  status: ('A' for Active; 'I' for Inactive)
REMARK    1  A    between atoms: C_1  and  C_2
REMARK    2  A    between atoms: C_8  and  C_9
REMARK    3  A    between atoms: C_14  and  C_15
REMARK    4  A    between atoms: N_18  and  C_19
REMARK    5  A    between atoms: C_19  and  C_20
REMARK                            x       y       z     vdW  Elec       q    Type
REMARK                         _______ _______ _______ _____ _____    ______ ____
ROOT
ATOM      1  C   UNL     1       9.033  10.192  18.536  0.00  0.00    +0.000 C 
ATOM      2  C   UNL     1       9.994  11.332  18.114  0.00  0.00    +0.000 C 
ATOM      3  C   UNL     1      11.256  11.771  19.012  0.00  0.00    +0.000 C 
ATOM      4  C   UNL     1      10.806  11.532  20.431  0.00  0.00    +0.000 C 
ATOM      5  C   UNL     1       9.604  12.407  20.642  0.00  0.00    +0.000 A 
ATOM      6  C   UNL     1       9.317  12.627  21.997  0.00  0.00    +0.000 A 
ATOM      7  C   UNL     1       8.667  13.780  22.350  0.00  0.00    +0.000 A 
ATOM      8  C   UNL     1       8.269  14.667  21.344  0.00  0.00    +0.000 A 
ATOM      9  C   UNL     1       8.310  14.292  19.958  0.00  0.00    +0.000 A 
ATOM     10  C   UNL     1       8.975  13.113  19.551  0.00  0.00    +0.000 A 
ATOM     11  C   UNL     1       9.260  12.670  17.980  0.00  0.00    +0.000 C 
ATOM     12  C   UNL     1       7.932  12.625  17.205  0.00  0.00    +0.000 C 
ATOM     13  C   UNL     1      10.277  13.359  16.901  0.00  0.00    +0.000 C 
ATOM     14  C   UNL     1      11.788  13.174  17.187  0.00  0.00    +0.000 C 
ATOM     15  N   UNL     1      11.949  13.168  18.632  0.00  0.00    +0.000 NA
ENDROOT
BRANCH   8  16
ATOM     16  C   UNL     1       7.995  16.051  21.859  0.00  0.00    +0.000 C 
ATOM     17  N   UNL     1       8.498  16.371  23.087  0.00  0.00    +0.000 N 
ATOM     18  O   UNL     1       7.361  16.884  21.229  0.00  0.00    +0.000 OA
ATOM     19  H   UNL     1       8.377  17.325  23.374  0.00  0.00    +0.000 HD
ATOM     20  H   UNL     1       9.152  15.779  23.581  0.00  0.00    +0.000 HD
ENDBRANCH   8  16
BRANCH  15  21
ATOM     21  C   UNL     1      11.444  14.553  19.107  0.00  0.00    +0.000 C 
BRANCH  21  22
ATOM     22  C   UNL     1      12.003  15.944  18.527  0.00  0.00    +0.000 C 
ATOM     23  C   UNL     1      12.229  17.093  19.488  0.00  0.00    +0.000 C 
ATOM     24  C   UNL     1      12.333  18.270  18.529  0.00  0.00    +0.000 C 
ATOM     25  C   UNL     1      11.248  17.958  17.522  0.00  0.00    +0.000 C 
ATOM     26  O   UNL     1      11.063  16.525  17.549  0.00  0.00    +0.000 OA
ENDBRANCH  21  22
ENDBRANCH  15  21
TORSDOF 3
ENDMDL
MODEL 6
REMARK VINA RESULT:      -6.1      8.729     11.830
REMARK  Name = 
REMARK  5 active torsions:
REMARK  status: ('A' for Active; 'I' for Inactive)
REMARK    1  A    between atoms: C_1  and  C_2
REMARK    2  A    between atoms: C_8  and  C_9
REMARK    3  A    between atoms: C_14  and  C_15
REMARK    4  A    between atoms: N_18  and  C_19
REMARK    5  A    between atoms: C_19  and  C_20
REMARK                            x       y       z     vdW  Elec       q    Type
REMARK                         _______ _______ _______ _____ _____    ______ ____
ROOT
ATOM      1  C   UNL     1       9.196  10.314  18.655  0.00  0.00    +0.000 C 
ATOM      2  C   UNL     1      10.073  11.529  18.263  0.00  0.00    +0.000 C 
ATOM      3  C   UNL     1      11.245  12.087  19.215  0.00  0.00    +0.000 C 
ATOM      4  C   UNL     1      10.747  11.826  20.613  0.00  0.00    +0.000 C 
ATOM      5  C   UNL     1       9.464  12.593  20.752  0.00  0.00    +0.000 A 
ATOM      6  C   UNL     1       9.092  12.802  22.087  0.00  0.00    +0.000 A 
ATOM      7  C   UNL     1       8.326  13.897  22.390  0.00  0.00    +0.000 A 
ATOM      8  C   UNL     1       7.902  14.734  21.352  0.00  0.00    +0.000 A 
ATOM      9  C   UNL     1       8.046  14.349  19.975  0.00  0.00    +0.000 A 
ATOM     10  C   UNL     1       8.832  13.229  19.620  0.00  0.00    +0.000 A 
ATOM     11  C   UNL     1       9.232  12.795  18.072  0.00  0.00    +0.000 C 
ATOM     12  C   UNL     1       7.954  12.624  17.234  0.00  0.00    +0.000 C 
ATOM     13  C   UNL     1      10.238  13.559  17.034  0.00  0.00    +0.000 C 
ATOM     14  C   UNL     1      11.743  13.511  17.396  0.00  0.00    +0.000 C 
ATOM     15  N   UNL     1      11.832  13.536  18.847  0.00  0.00    +0.000 NA
ENDROOT
BRANCH   8  16
ATOM     16  C   UNL     1       7.484  16.095  21.831  0.00  0.00    +0.000 C 
ATOM     17  N   UNL     1       7.823  17.164  21.053  0.00  0.00    +0.000 N 
ATOM     18  O   UNL     1       6.857  16.274  22.865  0.00  0.00    +0.000 OA
ATOM     19  H   UNL     1       7.461  18.051  21.348  0.00  0.00    +0.000 HD
ATOM     20  H   UNL     1       8.204  17.062  20.122  0.00  0.00    +0.000 HD
ENDBRANCH   8  16
BRANCH  15  21
ATOM     21  C   UNL     1      11.184  14.876  19.276  0.00  0.00    +0.000 C 
BRANCH  21  22
ATOM     22  C   UNL     1      11.877  15.906  20.297  0.00  0.00    +0.000 C 
ATOM     23  C   UNL     1      11.234  16.133  21.649  0.00  0.00    +0.000 C 
ATOM     24  C   UNL     1      11.916  17.417  22.095  0.00  0.00    +0.000 C 
ATOM     25  C   UNL     1      11.948  18.222  20.813  0.00  0.00    +0.000 C 
ATOM     26  O   UNL     1      11.917  17.267  19.729  0.00  0.00    +0.000 OA
ENDBRANCH  21  22
ENDBRANCH  15  21
TORSDOF 3
ENDMDL
MODEL 7
REMARK VINA RESULT:      -6.1      8.007     10.868
REMARK  Name = 
REMARK  5 active torsions:
REMARK  status: ('A' for Active; 'I' for Inactive)
REMARK    1  A    between atoms: C_1  and  C_2
REMARK    2  A    between atoms: C_8  and  C_9
REMARK    3  A    between atoms: C_14  and  C_15
REMARK    4  A    between atoms: N_18  and  C_19
REMARK    5  A    between atoms: C_19  and  C_20
REMARK                            x       y       z     vdW  Elec       q    Type
REMARK                         _______ _______ _______ _____ _____    ______ ____
ROOT
ATOM      1  C   UNL     1       1.689  12.796  20.416  0.00  0.00    +0.000 C 
ATOM      2  C   UNL     1       0.514  12.160  19.631  0.00  0.00    +0.000 C 
ATOM      3  C   UNL     1      -0.626  13.047  18.921  0.00  0.00    +0.000 C 
ATOM      4  C   UNL     1      -0.765  14.257  19.809  0.00  0.00    +0.000 C 
ATOM      5  C   UNL     1      -1.177  13.744  21.158  0.00  0.00    +0.000 A 
ATOM      6  C   UNL     1      -1.747  14.733  21.971  0.00  0.00    +0.000 A 
ATOM      7  C   UNL     1      -2.645  14.353  22.934  0.00  0.00    +0.000 A 
ATOM      8  C   UNL     1      -2.918  12.992  23.104  0.00  0.00    +0.000 A 
ATOM      9  C   UNL     1      -2.116  11.983  22.468  0.00  0.00    +0.000 A 
ATOM     10  C   UNL     1      -1.183  12.333  21.466  0.00  0.00    +0.000 A 
ATOM     11  C   UNL     1      -0.342  11.258  20.526  0.00  0.00    +0.000 C 
ATOM     12  C   UNL     1       0.438  10.282  21.425  0.00  0.00    +0.000 C 
ATOM     13  C   UNL     1      -0.913  10.278  19.350  0.00  0.00    +0.000 C 
ATOM     14  C   UNL     1      -1.382  10.984  18.054  0.00  0.00    +0.000 C 
ATOM     15  N   UNL     1      -1.946  12.264  18.448  0.00  0.00    +0.000 NA
ENDROOT
BRANCH   8  16
ATOM     16  C   UNL     1      -4.205  12.740  23.836  0.00  0.00    +0.000 C 
ATOM     17  N   UNL     1      -4.215  12.975  25.181  0.00  0.00    +0.000 N 
ATOM     18  O   UNL     1      -5.222  12.350  23.282  0.00  0.00    +0.000 OA
ATOM     19  H   UNL     1      -5.105  12.882  25.634  0.00  0.00    +0.000 HD
ATOM     20  H   UNL     1      -3.455  13.438  25.660  0.00  0.00    +0.000 HD
ENDBRANCH   8  16
BRANCH  15  21
ATOM     21  C   UNL     1      -3.139  11.920  19.376  0.00  0.00    +0.000 C 
BRANCH  21  22
ATOM     22  C   UNL     1      -4.676  12.050  18.922  0.00  0.00    +0.000 C 
ATOM     23  C   UNL     1      -5.723  12.336  19.978  0.00  0.00    +0.000 C 
ATOM     24  C   UNL     1      -7.001  11.966  19.242  0.00  0.00    +0.000 C 
ATOM     25  C   UNL     1      -6.591  10.712  18.501  0.00  0.00    +0.000 C 
ATOM     26  O   UNL     1      -5.159  10.789  18.326  0.00  0.00    +0.000 OA
ENDBRANCH  21  22
ENDBRANCH  15  21
TORSDOF 3
ENDMDL
MODEL 8
REMARK VINA RESULT:      -6.1      1.920      4.800
REMARK  Name = 
REMARK  5 active torsions:
REMARK  status: ('A' for Active; 'I' for Inactive)
REMARK    1  A    between atoms: C_1  and  C_2
REMARK    2  A    between atoms: C_8  and  C_9
REMARK    3  A    between atoms: C_14  and  C_15
REMARK    4  A    between atoms: N_18  and  C_19
REMARK    5  A    between atoms: C_19  and  C_20
REMARK                            x       y       z     vdW  Elec       q    Type
REMARK                         _______ _______ _______ _____ _____    ______ ____
ROOT
ATOM      1  C   UNL     1       0.565   2.555  20.655  0.00  0.00    +0.000 C 
ATOM      2  C   UNL     1       1.994   2.478  20.060  0.00  0.00    +0.000 C 
ATOM      3  C   UNL     1       3.268   3.133  20.794  0.00  0.00    +0.000 C 
ATOM      4  C   UNL     1       2.714   4.347  21.494  0.00  0.00    +0.000 C 
ATOM      5  C   UNL     1       2.141   5.225  20.419  0.00  0.00    +0.000 A 
ATOM      6  C   UNL     1       1.967   6.554  20.831  0.00  0.00    +0.000 A 
ATOM      7  C   UNL     1       2.006   7.544  19.885  0.00  0.00    +0.000 A 
ATOM      8  C   UNL     1       2.164   7.188  18.541  0.00  0.00    +0.000 A 
ATOM      9  C   UNL     1       2.049   5.822  18.110  0.00  0.00    +0.000 A 
ATOM     10  C   UNL     1       2.012   4.772  19.054  0.00  0.00    +0.000 A 
ATOM     11  C   UNL     1       2.074   3.157  18.689  0.00  0.00    +0.000 C 
ATOM     12  C   UNL     1       0.945   2.803  17.706  0.00  0.00    +0.000 C 
ATOM     13  C   UNL     1       3.336   2.298  18.105  0.00  0.00    +0.000 C 
ATOM     14  C   UNL     1       4.516   2.083  19.084  0.00  0.00    +0.000 C 
ATOM     15  N   UNL     1       4.603   3.275  19.913  0.00  0.00    +0.000 NA
ENDROOT
BRANCH   8  16
ATOM     16  C   UNL     1       2.638   8.329  17.687  0.00  0.00    +0.000 C 
ATOM     17  N   UNL     1       1.962   9.510  17.788  0.00  0.00    +0.000 N 
ATOM     18  O   UNL     1       3.592   8.241  16.927  0.00  0.00    +0.000 OA
ATOM     19  H   UNL     1       2.348  10.280  17.274  0.00  0.00    +0.000 HD
ATOM     20  H   UNL     1       1.270   9.682  18.504  0.00  0.00    +0.000 HD
ENDBRANCH   8  16
BRANCH  15  21
ATOM     21  C   UNL     1       4.882   4.439  18.930  0.00  0.00    +0.000 C 
BRANCH  21  22
ATOM     22  C   UNL     1       5.605   4.241  17.508  0.00  0.00    +0.000 C 
ATOM     23  C   UNL     1       7.039   4.702  17.351  0.00  0.00    +0.000 C 
ATOM     24  C   UNL     1       7.182   4.730  15.837  0.00  0.00    +0.000 C 
ATOM     25  C   UNL     1       5.853   5.308  15.402  0.00  0.00    +0.000 C 
ATOM     26  O   UNL     1       4.908   4.998  16.450  0.00  0.00    +0.000 OA
ENDBRANCH  21  22
ENDBRANCH  15  21
TORSDOF 3
ENDMDL
MODEL 9
REMARK VINA RESULT:      -6.1      6.573     10.618
REMARK  Name = 
REMARK  5 active torsions:
REMARK  status: ('A' for Active; 'I' for Inactive)
REMARK    1  A    between atoms: C_1  and  C_2
REMARK    2  A    between atoms: C_8  and  C_9
REMARK    3  A    between atoms: C_14  and  C_15
REMARK    4  A    between atoms: N_18  and  C_19
REMARK    5  A    between atoms: C_19  and  C_20
REMARK                            x       y       z     vdW  Elec       q    Type
REMARK                         _______ _______ _______ _____ _____    ______ ____
ROOT
ATOM      1  C   UNL     1      -3.468  16.078  21.159  0.00  0.00    +0.000 C 
ATOM      2  C   UNL     1      -3.267  14.844  22.075  0.00  0.00    +0.000 C 
ATOM      3  C   UNL     1      -1.807  14.330  22.518  0.00  0.00    +0.000 C 
ATOM      4  C   UNL     1      -0.923  14.657  21.342  0.00  0.00    +0.000 C 
ATOM      5  C   UNL     1      -1.481  13.899  20.173  0.00  0.00    +0.000 A 
ATOM      6  C   UNL     1      -0.562  13.753  19.124  0.00  0.00    +0.000 A 
ATOM      7  C   UNL     1      -0.687  12.675  18.289  0.00  0.00    +0.000 A 
ATOM      8  C   UNL     1      -1.754  11.791  18.481  0.00  0.00    +0.000 A 
ATOM      9  C   UNL     1      -2.840  12.110  19.366  0.00  0.00    +0.000 A 
ATOM     10  C   UNL     1      -2.749  13.211  20.247  0.00  0.00    +0.000 A 
ATOM     11  C   UNL     1      -3.839  13.571  21.442  0.00  0.00    +0.000 C 
ATOM     12  C   UNL     1      -5.247  13.705  20.837  0.00  0.00    +0.000 C 
ATOM     13  C   UNL     1      -4.124  12.759  22.831  0.00  0.00    +0.000 C 
ATOM     14  C   UNL     1      -2.998  12.822  23.892  0.00  0.00    +0.000 C 
ATOM     15  N   UNL     1      -1.737  12.865  23.170  0.00  0.00    +0.000 NA
ENDROOT
BRANCH   8  16
ATOM     16  C   UNL     1      -1.531  10.455  17.832  0.00  0.00    +0.000 C 
ATOM     17  N   UNL     1      -0.239  10.076  17.610  0.00  0.00    +0.000 N 
ATOM     18  O   UNL     1      -2.444   9.709  17.509  0.00  0.00    +0.000 OA
ATOM     19  H   UNL     1      -0.111   9.147  17.254  0.00  0.00    +0.000 HD
ATOM     20  H   UNL     1       0.551  10.580  17.990  0.00  0.00    +0.000 HD
ENDBRANCH   8  16
BRANCH  15  21
ATOM     21  C   UNL     1      -1.683  11.547  22.358  0.00  0.00    +0.000 C 
BRANCH  21  22
ATOM     22  C   UNL     1      -0.311  10.803  21.971  0.00  0.00    +0.000 C 
ATOM     23  C   UNL     1      -0.371   9.597  21.058  0.00  0.00    +0.000 C 
ATOM     24  C   UNL     1       0.998   8.977  21.288  0.00  0.00    +0.000 C 
ATOM     25  C   UNL     1       1.175   9.139  22.783  0.00  0.00    +0.000 C 
ATOM     26  O   UNL     1       0.354  10.263  23.173  0.00  0.00    +0.000 OA
ENDBRANCH  21  22
ENDBRANCH  15  21
TORSDOF 3
ENDMDL
