MODEL 1
REMARK VINA RESULT:      -7.8      0.000      0.000
REMARK  Name = 
REMARK  8 active torsions:
REMARK  status: ('A' for Active; 'I' for Inactive)
REMARK    1  A    between atoms: C_1  and  C_2
REMARK    2  A    between atoms: C_2  and  C_3
REMARK    3  A    between atoms: C_3  and  C_4
REMARK    4  A    between atoms: C_4  and  C_5
REMARK    5  A    between atoms: C_8  and  N_9
REMARK    6  A    between atoms: C_11  and  C_12
REMARK    7  A    between atoms: C_15  and  O_16
REMARK    8  A    between atoms: O_16  and  C_17
REMARK                            x       y       z     vdW  Elec       q    Type
REMARK                         _______ _______ _______ _____ _____    ______ ____
ROOT
ATOM      1  C   UNL     1       0.112  15.177  19.025  0.00  0.00    +0.000 A 
ATOM      2  C   UNL     1       1.400  15.416  18.563  0.00  0.00    +0.000 A 
ATOM      3  N   UNL     1       2.292  14.467  18.249  0.00  0.00    +0.000 NA
ATOM      4  C   UNL     1       1.978  13.168  18.405  0.00  0.00    +0.000 A 
ATOM      5  C   UNL     1       0.716  12.780  18.942  0.00  0.00    +0.000 A 
ATOM      6  C   UNL     1       0.151  11.468  19.310  0.00  0.00    +0.000 A 
ATOM      7  C   UNL     1      -1.139  11.589  19.791  0.00  0.00    +0.000 A 
ATOM      8  S   UNL     1      -1.701  13.186  19.799  0.00  0.00    +0.000 S 
ATOM      9  C   UNL     1      -0.203  13.816  19.217  0.00  0.00    +0.000 A 
ENDROOT
BRANCH   6  10
ATOM     10  C   UNL     1       0.796  10.150  19.309  0.00  0.00    +0.000 A 
ATOM     11  C   UNL     1       1.348   9.664  18.127  0.00  0.00    +0.000 A 
ATOM     12  C   UNL     1       1.890   8.390  18.055  0.00  0.00    +0.000 A 
ATOM     13  C   UNL     1       2.116   7.664  19.223  0.00  0.00    +0.000 A 
ATOM     14  C   UNL     1       1.594   8.127  20.429  0.00  0.00    +0.000 A 
ATOM     15  C   UNL     1       0.915   9.357  20.463  0.00  0.00    +0.000 A 
BRANCH  13  16
ATOM     16  O   UNL     1       2.873   6.510  19.243  0.00  0.00    +0.000 OA
BRANCH  16  17
ATOM     17  C   UNL     1       2.182   5.311  19.306  0.00  0.00    +0.000 A 
ATOM     18  C   UNL     1       1.726   4.760  20.515  0.00  0.00    +0.000 A 
ATOM     19  C   UNL     1       1.210   3.468  20.543  0.00  0.00    +0.000 A 
ATOM     20  C   UNL     1       1.057   2.757  19.354  0.00  0.00    +0.000 A 
ATOM     21  C   UNL     1       1.419   3.347  18.140  0.00  0.00    +0.000 A 
ATOM     22  C   UNL     1       1.984   4.622  18.110  0.00  0.00    +0.000 A 
ENDBRANCH  16  17
ENDBRANCH  13  16
ENDBRANCH   6  10
BRANCH   4  23
ATOM     23  N   UNL     1       2.989  12.318  17.984  0.00  0.00    +0.000 N 
ATOM     24  H   UNL     1       2.672  11.769  17.193  0.00  0.00    +0.000 HD
ATOM     25  H   UNL     1       3.452  11.806  18.723  0.00  0.00    +0.000 HD
ENDBRANCH   4  23
BRANCH   1  26
ATOM     26  C   UNL     1      -0.803  16.345  19.300  0.00  0.00    +0.000 C 
BRANCH  26  27
ATOM     27  C   UNL     1      -0.182  17.678  18.857  0.00  0.00    +0.000 C 
BRANCH  27  29
ATOM     28  C   UNL     1       0.372  18.560  16.572  0.00  0.00    +0.000 C 
ATOM     29  C   UNL     1      -0.743  18.136  17.514  0.00  0.00    +0.000 C 
ENDBRANCH  27  29
ENDBRANCH  26  27
ENDBRANCH   1  26
TORSDOF 7
ENDMDL
MODEL 2
REMARK VINA RESULT:      -7.7      3.689      4.582
REMARK  Name = 
REMARK  8 active torsions:
REMARK  status: ('A' for Active; 'I' for Inactive)
REMARK    1  A    between atoms: C_1  and  C_2
REMARK    2  A    between atoms: C_2  and  C_3
REMARK    3  A    between atoms: C_3  and  C_4
REMARK    4  A    between atoms: C_4  and  C_5
REMARK    5  A    between atoms: C_8  and  N_9
REMARK    6  A    between atoms: C_11  and  C_12
REMARK    7  A    between atoms: C_15  and  O_16
REMARK    8  A    between atoms: O_16  and  C_17
REMARK                            x       y       z     vdW  Elec       q    Type
REMARK                         _______ _______ _______ _____ _____    ______ ____
ROOT
ATOM      1  C   UNL     1      -1.388  11.686  21.778  0.00  0.00    +0.000 A 
ATOM      2  C   UNL     1      -0.931  11.187  22.991  0.00  0.00    +0.000 A 
ATOM      3  N   UNL     1       0.074  10.312  23.132  0.00  0.00    +0.000 NA
ATOM      4  C   UNL     1       0.700   9.823  22.047  0.00  0.00    +0.000 A 
ATOM      5  C   UNL     1       0.285  10.192  20.734  0.00  0.00    +0.000 A 
ATOM      6  C   UNL     1       0.710   9.748  19.393  0.00  0.00    +0.000 A 
ATOM      7  C   UNL     1       0.014  10.408  18.398  0.00  0.00    +0.000 A 
ATOM      8  S   UNL     1      -1.096  11.537  18.995  0.00  0.00    +0.000 S 
ATOM      9  C   UNL     1      -0.749  11.148  20.641  0.00  0.00    +0.000 A 
ENDROOT
BRANCH   6  10
ATOM     10  C   UNL     1       1.657   8.689  19.026  0.00  0.00    +0.000 A 
ATOM     11  C   UNL     1       1.763   7.561  19.836  0.00  0.00    +0.000 A 
ATOM     12  C   UNL     1       2.704   6.576  19.580  0.00  0.00    +0.000 A 
ATOM     13  C   UNL     1       3.395   6.573  18.370  0.00  0.00    +0.000 A 
ATOM     14  C   UNL     1       3.300   7.676  17.524  0.00  0.00    +0.000 A 
ATOM     15  C   UNL     1       2.450   8.741  17.867  0.00  0.00    +0.000 A 
BRANCH  13  16
ATOM     16  O   UNL     1       4.151   5.496  17.952  0.00  0.00    +0.000 OA
BRANCH  16  17
ATOM     17  C   UNL     1       3.615   4.237  18.163  0.00  0.00    +0.000 A 
ATOM     18  C   UNL     1       2.372   3.843  17.641  0.00  0.00    +0.000 A 
ATOM     19  C   UNL     1       1.795   2.641  18.041  0.00  0.00    +0.000 A 
ATOM     20  C   UNL     1       2.497   1.783  18.886  0.00  0.00    +0.000 A 
ATOM     21  C   UNL     1       3.777   2.133  19.324  0.00  0.00    +0.000 A 
ATOM     22  C   UNL     1       4.339   3.359  18.968  0.00  0.00    +0.000 A 
ENDBRANCH  16  17
ENDBRANCH  13  16
ENDBRANCH   6  10
BRANCH   4  23
ATOM     23  N   UNL     1       1.749   8.974  22.369  0.00  0.00    +0.000 N 
ATOM     24  H   UNL     1       1.755   8.795  23.366  0.00  0.00    +0.000 HD
ATOM     25  H   UNL     1       2.638   9.221  21.956  0.00  0.00    +0.000 HD
ENDBRANCH   4  23
BRANCH   1  26
ATOM     26  C   UNL     1      -2.503  12.702  21.770  0.00  0.00    +0.000 C 
BRANCH  26  27
ATOM     27  C   UNL     1      -2.933  13.094  23.191  0.00  0.00    +0.000 C 
BRANCH  27  29
ATOM     28  C   UNL     1      -4.616  12.326  24.889  0.00  0.00    +0.000 C 
ATOM     29  C   UNL     1      -4.398  12.753  23.446  0.00  0.00    +0.000 C 
ENDBRANCH  27  29
ENDBRANCH  26  27
ENDBRANCH   1  26
TORSDOF 7
ENDMDL
MODEL 3
REMARK VINA RESULT:      -7.6      3.731      4.373
REMARK  Name = 
REMARK  8 active torsions:
REMARK  status: ('A' for Active; 'I' for Inactive)
REMARK    1  A    between atoms: C_1  and  C_2
REMARK    2  A    between atoms: C_2  and  C_3
REMARK    3  A    between atoms: C_3  and  C_4
REMARK    4  A    between atoms: C_4  and  C_5
REMARK    5  A    between atoms: C_8  and  N_9
REMARK    6  A    between atoms: C_11  and  C_12
REMARK    7  A    between atoms: C_15  and  O_16
REMARK    8  A    between atoms: O_16  and  C_17
REMARK                            x       y       z     vdW  Elec       q    Type
REMARK                         _______ _______ _______ _____ _____    ______ ____
ROOT
ATOM      1  C   UNL     1      -1.435  11.776  21.804  0.00  0.00    +0.000 A 
ATOM      2  C   UNL     1      -1.029  11.267  23.031  0.00  0.00    +0.000 A 
ATOM      3  N   UNL     1      -0.068  10.348  23.201  0.00  0.00    +0.000 NA
ATOM      4  C   UNL     1       0.561   9.825  22.134  0.00  0.00    +0.000 A 
ATOM      5  C   UNL     1       0.193  10.203  20.809  0.00  0.00    +0.000 A 
ATOM      6  C   UNL     1       0.629   9.731  19.481  0.00  0.00    +0.000 A 
ATOM      7  C   UNL     1      -0.013  10.415  18.466  0.00  0.00    +0.000 A 
ATOM      8  S   UNL     1      -1.086  11.596  19.030  0.00  0.00    +0.000 S 
ATOM      9  C   UNL     1      -0.795  11.204  20.686  0.00  0.00    +0.000 A 
ENDROOT
BRANCH   6  10
ATOM     10  C   UNL     1       1.536   8.629  19.143  0.00  0.00    +0.000 A 
ATOM     11  C   UNL     1       2.292   8.704  17.976  0.00  0.00    +0.000 A 
ATOM     12  C   UNL     1       3.096   7.651  17.570  0.00  0.00    +0.000 A 
ATOM     13  C   UNL     1       3.356   6.598  18.444  0.00  0.00    +0.000 A 
ATOM     14  C   UNL     1       2.633   6.497  19.630  0.00  0.00    +0.000 A 
ATOM     15  C   UNL     1       1.708   7.501  19.964  0.00  0.00    +0.000 A 
BRANCH  13  16
ATOM     16  O   UNL     1       4.336   5.656  18.199  0.00  0.00    +0.000 OA
BRANCH  16  17
ATOM     17  C   UNL     1       3.985   4.329  18.381  0.00  0.00    +0.000 A 
ATOM     18  C   UNL     1       4.524   3.534  19.406  0.00  0.00    +0.000 A 
ATOM     19  C   UNL     1       4.286   2.163  19.427  0.00  0.00    +0.000 A 
ATOM     20  C   UNL     1       3.432   1.594  18.483  0.00  0.00    +0.000 A 
ATOM     21  C   UNL     1       2.817   2.404  17.525  0.00  0.00    +0.000 A 
ATOM     22  C   UNL     1       3.092   3.770  17.467  0.00  0.00    +0.000 A 
ENDBRANCH  16  17
ENDBRANCH  13  16
ENDBRANCH   6  10
BRANCH   4  23
ATOM     23  N   UNL     1       1.563   8.933  22.485  0.00  0.00    +0.000 N 
ATOM     24  H   UNL     1       2.317   8.977  21.810  0.00  0.00    +0.000 HD
ATOM     25  H   UNL     1       1.241   8.007  22.734  0.00  0.00    +0.000 HD
ENDBRANCH   4  23
BRANCH   1  26
ATOM     26  C   UNL     1      -2.505  12.841  21.765  0.00  0.00    +0.000 C 
BRANCH  26  27
ATOM     27  C   UNL     1      -2.536  13.672  23.055  0.00  0.00    +0.000 C 
BRANCH  27  29
ATOM     28  C   UNL     1      -4.223  12.488  24.489  0.00  0.00    +0.000 C 
ATOM     29  C   UNL     1      -3.940  13.725  23.651  0.00  0.00    +0.000 C 
ENDBRANCH  27  29
ENDBRANCH  26  27
ENDBRANCH   1  26
TORSDOF 7
ENDMDL
MODEL 4
REMARK VINA RESULT:      -7.4      0.761      1.511
REMARK  Name = 
REMARK  8 active torsions:
REMARK  status: ('A' for Active; 'I' for Inactive)
REMARK    1  A    between atoms: C_1  and  C_2
REMARK    2  A    between atoms: C_2  and  C_3
REMARK    3  A    between atoms: C_3  and  C_4
REMARK    4  A    between atoms: C_4  and  C_5
REMARK    5  A    between atoms: C_8  and  N_9
REMARK    6  A    between atoms: C_11  and  C_12
REMARK    7  A    between atoms: C_15  and  O_16
REMARK    8  A    between atoms: O_16  and  C_17
REMARK                            x       y       z     vdW  Elec       q    Type
REMARK                         _______ _______ _______ _____ _____    ______ ____
ROOT
ATOM      1  C   UNL     1      -0.181  14.538  19.378  0.00  0.00    +0.000 A 
ATOM      2  C   UNL     1       1.027  14.967  18.845  0.00  0.00    +0.000 A 
ATOM      3  N   UNL     1       1.983  14.161  18.361  0.00  0.00    +0.000 NA
ATOM      4  C   UNL     1       1.823  12.826  18.400  0.00  0.00    +0.000 A 
ATOM      5  C   UNL     1       0.663  12.245  18.989  0.00  0.00    +0.000 A 
ATOM      6  C   UNL     1       0.274  10.847  19.257  0.00  0.00    +0.000 A 
ATOM      7  C   UNL     1      -0.973  10.772  19.848  0.00  0.00    +0.000 A 
ATOM      8  S   UNL     1      -1.697  12.286  20.073  0.00  0.00    +0.000 S 
ATOM      9  C   UNL     1      -0.332  13.137  19.446  0.00  0.00    +0.000 A 
ENDROOT
BRANCH   6  10
ATOM     10  C   UNL     1       1.052   9.619  19.063  0.00  0.00    +0.000 A 
ATOM     11  C   UNL     1       1.292   8.786  20.154  0.00  0.00    +0.000 A 
ATOM     12  C   UNL     1       2.095   7.662  20.039  0.00  0.00    +0.000 A 
ATOM     13  C   UNL     1       2.475   7.206  18.779  0.00  0.00    +0.000 A 
ATOM     14  C   UNL     1       2.237   8.001  17.661  0.00  0.00    +0.000 A 
ATOM     15  C   UNL     1       1.547   9.217  17.811  0.00  0.00    +0.000 A 
BRANCH  13  16
ATOM     16  O   UNL     1       3.055   5.968  18.584  0.00  0.00    +0.000 OA
BRANCH  16  17
ATOM     17  C   UNL     1       2.455   4.891  19.215  0.00  0.00    +0.000 A 
ATOM     18  C   UNL     1       1.440   4.127  18.615  0.00  0.00    +0.000 A 
ATOM     19  C   UNL     1       0.742   3.183  19.362  0.00  0.00    +0.000 A 
ATOM     20  C   UNL     1       1.117   2.927  20.680  0.00  0.00    +0.000 A 
ATOM     21  C   UNL     1       2.194   3.617  21.242  0.00  0.00    +0.000 A 
ATOM     22  C   UNL     1       2.864   4.602  20.516  0.00  0.00    +0.000 A 
ENDBRANCH  16  17
ENDBRANCH  13  16
ENDBRANCH   6  10
BRANCH   4  23
ATOM     23  N   UNL     1       2.876  12.143  17.811  0.00  0.00    +0.000 N 
ATOM     24  H   UNL     1       2.919  12.359  16.822  0.00  0.00    +0.000 HD
ATOM     25  H   UNL     1       2.937  11.163  18.055  0.00  0.00    +0.000 HD
ENDBRANCH   4  23
BRANCH   1  26
ATOM     26  C   UNL     1      -1.185  15.561  19.849  0.00  0.00    +0.000 C 
BRANCH  26  27
ATOM     27  C   UNL     1      -0.665  16.996  19.683  0.00  0.00    +0.000 C 
BRANCH  27  29
ATOM     28  C   UNL     1      -0.548  18.068  17.415  0.00  0.00    +0.000 C 
ATOM     29  C   UNL     1      -1.438  17.750  18.606  0.00  0.00    +0.000 C 
ENDBRANCH  27  29
ENDBRANCH  26  27
ENDBRANCH   1  26
TORSDOF 7
ENDMDL
MODEL 5
REMARK VINA RESULT:      -7.4      3.331      4.273
REMARK  Name = 
REMARK  8 active torsions:
REMARK  status: ('A' for Active; 'I' for Inactive)
REMARK    1  A    between atoms: C_1  and  C_2
REMARK    2  A    between atoms: C_2  and  C_3
REMARK    3  A    between atoms: C_3  and  C_4
REMARK    4  A    between atoms: C_4  and  C_5
REMARK    5  A    between atoms: C_8  and  N_9
REMARK    6  A    between atoms: C_11  and  C_12
REMARK    7  A    between atoms: C_15  and  O_16
REMARK    8  A    between atoms: O_16  and  C_17
REMARK                            x       y       z     vdW  Elec       q    Type
REMARK                         _______ _______ _______ _____ _____    ______ ____
ROOT
ATOM      1  C   UNL     1      -1.870  12.228  20.709  0.00  0.00    +0.000 A 
ATOM      2  C   UNL     1      -2.225  12.392  19.377  0.00  0.00    +0.000 A 
ATOM      3  N   UNL     1      -1.794  11.624  18.366  0.00  0.00    +0.000 NA
ATOM      4  C   UNL     1      -0.923  10.626  18.602  0.00  0.00    +0.000 A 
ATOM      5  C   UNL     1      -0.416  10.392  19.913  0.00  0.00    +0.000 A 
ATOM      6  C   UNL     1       0.599   9.458  20.437  0.00  0.00    +0.000 A 
ATOM      7  C   UNL     1       0.751   9.591  21.804  0.00  0.00    +0.000 A 
ATOM      8  S   UNL     1      -0.273  10.757  22.480  0.00  0.00    +0.000 S 
ATOM      9  C   UNL     1      -0.934  11.201  20.948  0.00  0.00    +0.000 A 
ENDROOT
BRANCH   6  10
ATOM     10  C   UNL     1       1.471   8.534  19.704  0.00  0.00    +0.000 A 
ATOM     11  C   UNL     1       1.736   7.277  20.242  0.00  0.00    +0.000 A 
ATOM     12  C   UNL     1       2.622   6.404  19.631  0.00  0.00    +0.000 A 
ATOM     13  C   UNL     1       3.075   6.665  18.339  0.00  0.00    +0.000 A 
ATOM     14  C   UNL     1       2.815   7.904  17.759  0.00  0.00    +0.000 A 
ATOM     15  C   UNL     1       2.034   8.844  18.454  0.00  0.00    +0.000 A 
BRANCH  13  16
ATOM     16  O   UNL     1       3.750   5.724  17.586  0.00  0.00    +0.000 OA
BRANCH  16  17
ATOM     17  C   UNL     1       3.536   4.395  17.911  0.00  0.00    +0.000 A 
ATOM     18  C   UNL     1       2.445   3.659  17.421  0.00  0.00    +0.000 A 
ATOM     19  C   UNL     1       2.172   2.392  17.927  0.00  0.00    +0.000 A 
ATOM     20  C   UNL     1       3.040   1.814  18.852  0.00  0.00    +0.000 A 
ATOM     21  C   UNL     1       4.181   2.508  19.262  0.00  0.00    +0.000 A 
ATOM     22  C   UNL     1       4.432   3.799  18.797  0.00  0.00    +0.000 A 
ENDBRANCH  16  17
ENDBRANCH  13  16
ENDBRANCH   6  10
BRANCH   4  23
ATOM     23  N   UNL     1      -0.622   9.897  17.462  0.00  0.00    +0.000 N 
ATOM     24  H   UNL     1      -1.388   9.272  17.238  0.00  0.00    +0.000 HD
ATOM     25  H   UNL     1       0.303   9.488  17.450  0.00  0.00    +0.000 HD
ENDBRANCH   4  23
BRANCH   1  26
ATOM     26  C   UNL     1      -2.467  13.143  21.751  0.00  0.00    +0.000 C 
BRANCH  26  27
ATOM     27  C   UNL     1      -3.738  12.549  22.375  0.00  0.00    +0.000 C 
BRANCH  27  29
ATOM     28  C   UNL     1      -3.702  13.707  24.603  0.00  0.00    +0.000 C 
ATOM     29  C   UNL     1      -3.590  12.373  23.883  0.00  0.00    +0.000 C 
ENDBRANCH  27  29
ENDBRANCH  26  27
ENDBRANCH   1  26
TORSDOF 7
ENDMDL
MODEL 6
REMARK VINA RESULT:      -7.4      3.389      4.912
REMARK  Name = 
REMARK  8 active torsions:
REMARK  status: ('A' for Active; 'I' for Inactive)
REMARK    1  A    between atoms: C_1  and  C_2
REMARK    2  A    between atoms: C_2  and  C_3
REMARK    3  A    between atoms: C_3  and  C_4
REMARK    4  A    between atoms: C_4  and  C_5
REMARK    5  A    between atoms: C_8  and  N_9
REMARK    6  A    between atoms: C_11  and  C_12
REMARK    7  A    between atoms: C_15  and  O_16
REMARK    8  A    between atoms: O_16  and  C_17
REMARK                            x       y       z     vdW  Elec       q    Type
REMARK                         _______ _______ _______ _____ _____    ______ ____
ROOT
ATOM      1  C   UNL     1      -1.492  12.045  21.252  0.00  0.00    +0.000 A 
ATOM      2  C   UNL     1      -1.740  12.433  19.941  0.00  0.00    +0.000 A 
ATOM      3  N   UNL     1      -1.319  11.774  18.853  0.00  0.00    +0.000 NA
ATOM      4  C   UNL     1      -0.569  10.665  18.983  0.00  0.00    +0.000 A 
ATOM      5  C   UNL     1      -0.177  10.195  20.270  0.00  0.00    +0.000 A 
ATOM      6  C   UNL     1       0.704   9.093  20.703  0.00  0.00    +0.000 A 
ATOM      7  C   UNL     1       0.776   9.014  22.081  0.00  0.00    +0.000 A 
ATOM      8  S   UNL     1      -0.171  10.176  22.867  0.00  0.00    +0.000 S 
ATOM      9  C   UNL     1      -0.681  10.900  21.385  0.00  0.00    +0.000 A 
ENDROOT
BRANCH   6  10
ATOM     10  C   UNL     1       1.528   8.194  19.888  0.00  0.00    +0.000 A 
ATOM     11  C   UNL     1       2.116   8.679  18.722  0.00  0.00    +0.000 A 
ATOM     12  C   UNL     1       2.829   7.846  17.874  0.00  0.00    +0.000 A 
ATOM     13  C   UNL     1       3.182   6.565  18.293  0.00  0.00    +0.000 A 
ATOM     14  C   UNL     1       2.629   6.051  19.464  0.00  0.00    +0.000 A 
ATOM     15  C   UNL     1       1.785   6.858  20.244  0.00  0.00    +0.000 A 
BRANCH  13  16
ATOM     16  O   UNL     1       4.094   5.787  17.609  0.00  0.00    +0.000 OA
BRANCH  16  17
ATOM     17  C   UNL     1       5.432   5.986  17.905  0.00  0.00    +0.000 A 
ATOM     18  C   UNL     1       6.088   5.311  18.948  0.00  0.00    +0.000 A 
ATOM     19  C   UNL     1       7.373   5.688  19.325  0.00  0.00    +0.000 A 
ATOM     20  C   UNL     1       8.047   6.671  18.602  0.00  0.00    +0.000 A 
ATOM     21  C   UNL     1       7.429   7.270  17.501  0.00  0.00    +0.000 A 
ATOM     22  C   UNL     1       6.122   6.934  17.150  0.00  0.00    +0.000 A 
ENDBRANCH  16  17
ENDBRANCH  13  16
ENDBRANCH   6  10
BRANCH   4  23
ATOM     23  N   UNL     1      -0.265  10.077  17.765  0.00  0.00    +0.000 N 
ATOM     24  H   UNL     1      -1.118   9.825  17.280  0.00  0.00    +0.000 HD
ATOM     25  H   UNL     1       0.452   9.365  17.804  0.00  0.00    +0.000 HD
ENDBRANCH   4  23
BRANCH   1  26
ATOM     26  C   UNL     1      -2.066  12.862  22.384  0.00  0.00    +0.000 C 
BRANCH  26  27
ATOM     27  C   UNL     1      -3.456  12.364  22.806  0.00  0.00    +0.000 C 
BRANCH  27  29
ATOM     28  C   UNL     1      -5.426  13.617  23.727  0.00  0.00    +0.000 C 
ATOM     29  C   UNL     1      -4.534  13.403  22.515  0.00  0.00    +0.000 C 
ENDBRANCH  27  29
ENDBRANCH  26  27
ENDBRANCH   1  26
TORSDOF 7
ENDMDL
MODEL 7
REMARK VINA RESULT:      -7.3      3.596      4.296
REMARK  Name = 
REMARK  8 active torsions:
REMARK  status: ('A' for Active; 'I' for Inactive)
REMARK    1  A    between atoms: C_1  and  C_2
REMARK    2  A    between atoms: C_2  and  C_3
REMARK    3  A    between atoms: C_3  and  C_4
REMARK    4  A    between atoms: C_4  and  C_5
REMARK    5  A    between atoms: C_8  and  N_9
REMARK    6  A    between atoms: C_11  and  C_12
REMARK    7  A    between atoms: C_15  and  O_16
REMARK    8  A    between atoms: O_16  and  C_17
REMARK                            x       y       z     vdW  Elec       q    Type
REMARK                         _______ _______ _______ _____ _____    ______ ____
ROOT
ATOM      1  C   UNL     1      -1.675  12.058  21.688  0.00  0.00    +0.000 A 
ATOM      2  C   UNL     1      -1.292  11.602  22.943  0.00  0.00    +0.000 A 
ATOM      3  N   UNL     1      -0.329  10.699  23.171  0.00  0.00    +0.000 NA
ATOM      4  C   UNL     1       0.326  10.136  22.140  0.00  0.00    +0.000 A 
ATOM      5  C   UNL     1      -0.016  10.457  20.793  0.00  0.00    +0.000 A 
ATOM      6  C   UNL     1       0.451   9.934  19.495  0.00  0.00    +0.000 A 
ATOM      7  C   UNL     1      -0.174  10.569  18.439  0.00  0.00    +0.000 A 
ATOM      8  S   UNL     1      -1.266  11.765  18.931  0.00  0.00    +0.000 S 
ATOM      9  C   UNL     1      -1.008  11.444  20.608  0.00  0.00    +0.000 A 
ENDROOT
BRANCH   6  10
ATOM     10  C   UNL     1       1.372   8.825  19.222  0.00  0.00    +0.000 A 
ATOM     11  C   UNL     1       2.172   8.870  18.082  0.00  0.00    +0.000 A 
ATOM     12  C   UNL     1       2.992   7.808  17.736  0.00  0.00    +0.000 A 
ATOM     13  C   UNL     1       3.221   6.780  18.649  0.00  0.00    +0.000 A 
ATOM     14  C   UNL     1       2.455   6.711  19.810  0.00  0.00    +0.000 A 
ATOM     15  C   UNL     1       1.516   7.721  20.081  0.00  0.00    +0.000 A 
BRANCH  13  16
ATOM     16  O   UNL     1       4.211   5.835  18.468  0.00  0.00    +0.000 OA
BRANCH  16  17
ATOM     17  C   UNL     1       3.804   4.515  18.369  0.00  0.00    +0.000 A 
ATOM     18  C   UNL     1       2.812   4.092  17.469  0.00  0.00    +0.000 A 
ATOM     19  C   UNL     1       2.306   2.798  17.545  0.00  0.00    +0.000 A 
ATOM     20  C   UNL     1       2.855   1.891  18.450  0.00  0.00    +0.000 A 
ATOM     21  C   UNL     1       3.912   2.286  19.275  0.00  0.00    +0.000 A 
ATOM     22  C   UNL     1       4.388   3.597  19.240  0.00  0.00    +0.000 A 
ENDBRANCH  16  17
ENDBRANCH  13  16
ENDBRANCH   6  10
BRANCH   4  23
ATOM     23  N   UNL     1       1.326   9.268  22.549  0.00  0.00    +0.000 N 
ATOM     24  H   UNL     1       1.900   9.002  21.757  0.00  0.00    +0.000 HD
ATOM     25  H   UNL     1       1.017   8.513  23.147  0.00  0.00    +0.000 HD
ENDBRANCH   4  23
BRANCH   1  26
ATOM     26  C   UNL     1      -2.750  13.112  21.582  0.00  0.00    +0.000 C 
BRANCH  26  27
ATOM     27  C   UNL     1      -4.145  12.494  21.405  0.00  0.00    +0.000 C 
BRANCH  27  29
ATOM     28  C   UNL     1      -4.550  13.164  23.791  0.00  0.00    +0.000 C 
ATOM     29  C   UNL     1      -5.146  13.083  22.395  0.00  0.00    +0.000 C 
ENDBRANCH  27  29
ENDBRANCH  26  27
ENDBRANCH   1  26
TORSDOF 7
ENDMDL
MODEL 8
REMARK VINA RESULT:      -7.3      3.687      5.077
REMARK  Name = 
REMARK  8 active torsions:
REMARK  status: ('A' for Active; 'I' for Inactive)
REMARK    1  A    between atoms: C_1  and  C_2
REMARK    2  A    between atoms: C_2  and  C_3
REMARK    3  A    between atoms: C_3  and  C_4
REMARK    4  A    between atoms: C_4  and  C_5
REMARK    5  A    between atoms: C_8  and  N_9
REMARK    6  A    between atoms: C_11  and  C_12
REMARK    7  A    between atoms: C_15  and  O_16
REMARK    8  A    between atoms: O_16  and  C_17
REMARK                            x       y       z     vdW  Elec       q    Type
REMARK                         _______ _______ _______ _____ _____    ______ ____
ROOT
ATOM      1  C   UNL     1      -0.972  11.506  21.256  0.00  0.00    +0.000 A 
ATOM      2  C   UNL     1      -0.626  11.148  22.553  0.00  0.00    +0.000 A 
ATOM      3  N   UNL     1       0.292  10.228  22.877  0.00  0.00    +0.000 NA
ATOM      4  C   UNL     1       0.935   9.547  21.911  0.00  0.00    +0.000 A 
ATOM      5  C   UNL     1       0.625   9.760  20.536  0.00  0.00    +0.000 A 
ATOM      6  C   UNL     1       1.085   9.103  19.297  0.00  0.00    +0.000 A 
ATOM      7  C   UNL     1       0.503   9.669  18.179  0.00  0.00    +0.000 A 
ATOM      8  S   UNL     1      -0.540  10.951  18.544  0.00  0.00    +0.000 S 
ATOM      9  C   UNL     1      -0.319  10.769  20.247  0.00  0.00    +0.000 A 
ENDROOT
BRANCH   6  10
ATOM     10  C   UNL     1       1.959   7.935  19.140  0.00  0.00    +0.000 A 
ATOM     11  C   UNL     1       1.870   6.891  20.057  0.00  0.00    +0.000 A 
ATOM     12  C   UNL     1       2.734   5.808  20.002  0.00  0.00    +0.000 A 
ATOM     13  C   UNL     1       3.544   5.623  18.883  0.00  0.00    +0.000 A 
ATOM     14  C   UNL     1       3.645   6.637  17.934  0.00  0.00    +0.000 A 
ATOM     15  C   UNL     1       2.871   7.800  18.079  0.00  0.00    +0.000 A 
BRANCH  13  16
ATOM     16  O   UNL     1       4.233   4.448  18.655  0.00  0.00    +0.000 OA
BRANCH  16  17
ATOM     17  C   UNL     1       5.171   4.462  17.637  0.00  0.00    +0.000 A 
ATOM     18  C   UNL     1       6.508   4.844  17.841  0.00  0.00    +0.000 A 
ATOM     19  C   UNL     1       7.357   5.025  16.753  0.00  0.00    +0.000 A 
ATOM     20  C   UNL     1       6.907   4.732  15.466  0.00  0.00    +0.000 A 
ATOM     21  C   UNL     1       5.607   4.255  15.277  0.00  0.00    +0.000 A 
ATOM     22  C   UNL     1       4.735   4.121  16.357  0.00  0.00    +0.000 A 
ENDBRANCH  16  17
ENDBRANCH  13  16
ENDBRANCH   6  10
BRANCH   4  23
ATOM     23  N   UNL     1       1.889   8.675  22.413  0.00  0.00    +0.000 N 
ATOM     24  H   UNL     1       1.682   7.728  22.117  0.00  0.00    +0.000 HD
ATOM     25  H   UNL     1       2.104   8.798  23.393  0.00  0.00    +0.000 HD
ENDBRANCH   4  23
BRANCH   1  26
ATOM     26  C   UNL     1      -1.996  12.593  21.038  0.00  0.00    +0.000 C 
BRANCH  26  27
ATOM     27  C   UNL     1      -2.443  13.235  22.359  0.00  0.00    +0.000 C 
BRANCH  27  29
ATOM     28  C   UNL     1      -3.985  12.503  24.200  0.00  0.00    +0.000 C 
ATOM     29  C   UNL     1      -3.870  12.836  22.721  0.00  0.00    +0.000 C 
ENDBRANCH  27  29
ENDBRANCH  26  27
ENDBRANCH   1  26
TORSDOF 7
ENDMDL
MODEL 9
REMARK VINA RESULT:      -7.2      3.236      3.928
REMARK  Name = 
REMARK  8 active torsions:
REMARK  status: ('A' for Active; 'I' for Inactive)
REMARK    1  A    between atoms: C_1  and  C_2
REMARK    2  A    between atoms: C_2  and  C_3
REMARK    3  A    between atoms: C_3  and  C_4
REMARK    4  A    between atoms: C_4  and  C_5
REMARK    5  A    between atoms: C_8  and  N_9
REMARK    6  A    between atoms: C_11  and  C_12
REMARK    7  A    between atoms: C_15  and  O_16
REMARK    8  A    between atoms: O_16  and  C_17
REMARK                            x       y       z     vdW  Elec       q    Type
REMARK                         _______ _______ _______ _____ _____    ______ ____
ROOT
ATOM      1  C   UNL     1      -1.385  11.667  21.803  0.00  0.00    +0.000 A 
ATOM      2  C   UNL     1      -0.969  11.163  23.028  0.00  0.00    +0.000 A 
ATOM      3  N   UNL     1       0.004  10.258  23.196  0.00  0.00    +0.000 NA
ATOM      4  C   UNL     1       0.638   9.743  22.128  0.00  0.00    +0.000 A 
ATOM      5  C   UNL     1       0.262  10.116  20.804  0.00  0.00    +0.000 A 
ATOM      6  C   UNL     1       0.700   9.649  19.475  0.00  0.00    +0.000 A 
ATOM      7  C   UNL     1       0.047  10.323  18.461  0.00  0.00    +0.000 A 
ATOM      8  S   UNL     1      -1.040  11.491  19.028  0.00  0.00    +0.000 S 
ATOM      9  C   UNL     1      -0.740  11.103  20.683  0.00  0.00    +0.000 A 
ENDROOT
BRANCH   6  10
ATOM     10  C   UNL     1       1.622   8.559  19.135  0.00  0.00    +0.000 A 
ATOM     11  C   UNL     1       2.411   8.667  17.993  0.00  0.00    +0.000 A 
ATOM     12  C   UNL     1       3.231   7.627  17.583  0.00  0.00    +0.000 A 
ATOM     13  C   UNL     1       3.469   6.552  18.437  0.00  0.00    +0.000 A 
ATOM     14  C   UNL     1       2.712   6.419  19.599  0.00  0.00    +0.000 A 
ATOM     15  C   UNL     1       1.774   7.411  19.931  0.00  0.00    +0.000 A 
BRANCH  13  16
ATOM     16  O   UNL     1       4.460   5.620  18.197  0.00  0.00    +0.000 OA
BRANCH  16  17
ATOM     17  C   UNL     1       4.088   4.288  18.245  0.00  0.00    +0.000 A 
ATOM     18  C   UNL     1       3.152   3.727  17.359  0.00  0.00    +0.000 A 
ATOM     19  C   UNL     1       2.673   2.438  17.572  0.00  0.00    +0.000 A 
ATOM     20  C   UNL     1       3.195   1.667  18.610  0.00  0.00    +0.000 A 
ATOM     21  C   UNL     1       4.199   2.192  19.428  0.00  0.00    +0.000 A 
ATOM     22  C   UNL     1       4.647   3.502  19.252  0.00  0.00    +0.000 A 
ENDBRANCH  16  17
ENDBRANCH  13  16
ENDBRANCH   6  10
BRANCH   4  23
ATOM     23  N   UNL     1       1.653   8.865  22.477  0.00  0.00    +0.000 N 
ATOM     24  H   UNL     1       1.544   8.578  23.443  0.00  0.00    +0.000 HD
ATOM     25  H   UNL     1       2.581   9.155  22.201  0.00  0.00    +0.000 HD
ENDBRANCH   4  23
BRANCH   1  26
ATOM     26  C   UNL     1      -2.469  12.717  21.765  0.00  0.00    +0.000 C 
BRANCH  26  27
ATOM     27  C   UNL     1      -1.902  14.118  21.490  0.00  0.00    +0.000 C 
BRANCH  27  29
ATOM     28  C   UNL     1      -0.680  16.067  22.495  0.00  0.00    +0.000 C 
ATOM     29  C   UNL     1      -0.989  14.584  22.619  0.00  0.00    +0.000 C 
ENDBRANCH  27  29
ENDBRANCH  26  27
ENDBRANCH   1  26
TORSDOF 7
ENDMDL
