MODEL 1
REMARK VINA RESULT:      -7.2      0.000      0.000
REMARK  Name = 
REMARK  6 active torsions:
REMARK  status: ('A' for Active; 'I' for Inactive)
REMARK    1  A    between atoms: C_1  and  O_2
REMARK    2  A    between atoms: O_2  and  C_3
REMARK    3  A    between atoms: C_3  and  C_4
REMARK    4  A    between atoms: C_4  and  C_5
REMARK    5  A    between atoms: C_5  and  N_6
REMARK    6  A    between atoms: C_7  and  C_9
REMARK                            x       y       z     vdW  Elec       q    Type
REMARK                         _______ _______ _______ _____ _____    ______ ____
ROOT
ATOM      1  N   UNL     1       4.185   5.894  17.035  0.00  0.00    +0.000 N 
ATOM      2  C   UNL     1       3.817   5.728  18.354  0.00  0.00    +0.000 C 
ATOM      3  O   UNL     1       4.627   5.827  19.271  0.00  0.00    +0.000 OA
ATOM      4  H   UNL     1       3.489   5.834  16.304  0.00  0.00    +0.000 HD
ENDROOT
BRANCH   2   5
ATOM      5  C   UNL     1       2.338   5.387  18.581  0.00  0.00    +0.000 C 
ATOM      6  C   UNL     1       1.914   4.265  17.618  0.00  0.00    +0.000 C 
ATOM      7  C   UNL     1       2.421   2.877  18.014  0.00  0.00    +0.000 C 
ATOM      8  C   UNL     1       1.445   2.119  18.905  0.00  0.00    +0.000 C 
ATOM      9  C   UNL     1       1.268   2.691  20.307  0.00  0.00    +0.000 C 
ATOM     10  C   UNL     1       0.894   4.172  20.374  0.00  0.00    +0.000 C 
ATOM     11  C   UNL     1       2.069   5.103  20.068  0.00  0.00    +0.000 C 
ENDBRANCH   2   5
BRANCH   1  12
ATOM     12  C   UNL     1       5.534   6.286  16.666  0.00  0.00    +0.000 C 
BRANCH  12  13
ATOM     13  C   UNL     1       6.350   5.031  16.327  0.00  0.00    +0.000 C 
ATOM     14  C   UNL     1       6.940   4.945  14.880  0.00  0.00    +0.000 C 
ATOM     15  C   UNL     1       5.673   4.187  14.447  0.00  0.00    +0.000 C 
ATOM     16  C   UNL     1       5.444   3.822  15.923  0.00  0.00    +0.000 C 
BRANCH  13  17
ATOM     17  C   UNL     1       7.360   4.660  17.417  0.00  0.00    +0.000 C 
BRANCH  17  19
ATOM     18  C   UNL     1       7.960   5.648  19.476  0.00  0.00    +0.000 C 
ATOM     19  O   UNL     1       7.772   5.854  18.083  0.00  0.00    +0.000 OA
ENDBRANCH  17  19
ENDBRANCH  13  17
ENDBRANCH  12  13
ENDBRANCH   1  12
TORSDOF 5
ENDMDL
MODEL 2
REMARK VINA RESULT:      -6.8      1.601      2.781
REMARK  Name = 
REMARK  6 active torsions:
REMARK  status: ('A' for Active; 'I' for Inactive)
REMARK    1  A    between atoms: C_1  and  O_2
REMARK    2  A    between atoms: O_2  and  C_3
REMARK    3  A    between atoms: C_3  and  C_4
REMARK    4  A    between atoms: C_4  and  C_5
REMARK    5  A    between atoms: C_5  and  N_6
REMARK    6  A    between atoms: C_7  and  C_9
REMARK                            x       y       z     vdW  Elec       q    Type
REMARK                         _______ _______ _______ _____ _____    ______ ____
ROOT
ATOM      1  N   UNL     1       4.263   5.012  16.965  0.00  0.00    +0.000 N 
ATOM      2  C   UNL     1       3.266   5.325  17.864  0.00  0.00    +0.000 C 
ATOM      3  O   UNL     1       3.113   6.466  18.291  0.00  0.00    +0.000 OA
ATOM      4  H   UNL     1       4.346   4.068  16.611  0.00  0.00    +0.000 HD
ENDROOT
BRANCH   2   5
ATOM      5  C   UNL     1       2.390   4.145  18.306  0.00  0.00    +0.000 C 
ATOM      6  C   UNL     1       3.267   2.898  18.504  0.00  0.00    +0.000 C 
ATOM      7  C   UNL     1       4.101   2.918  19.788  0.00  0.00    +0.000 C 
ATOM      8  C   UNL     1       3.386   2.277  20.971  0.00  0.00    +0.000 C 
ATOM      9  C   UNL     1       2.174   3.044  21.490  0.00  0.00    +0.000 C 
ATOM     10  C   UNL     1       1.113   3.387  20.444  0.00  0.00    +0.000 C 
ATOM     11  C   UNL     1       1.528   4.533  19.519  0.00  0.00    +0.000 C 
ENDBRANCH   2   5
BRANCH   1  12
ATOM     12  C   UNL     1       5.130   6.034  16.403  0.00  0.00    +0.000 C 
BRANCH  12  13
ATOM     13  C   UNL     1       6.592   5.592  16.547  0.00  0.00    +0.000 C 
ATOM     14  C   UNL     1       6.959   4.782  17.836  0.00  0.00    +0.000 C 
ATOM     15  C   UNL     1       7.335   6.107  18.519  0.00  0.00    +0.000 C 
ATOM     16  C   UNL     1       7.504   6.726  17.121  0.00  0.00    +0.000 C 
BRANCH  13  17
ATOM     17  C   UNL     1       7.164   4.983  15.264  0.00  0.00    +0.000 C 
BRANCH  17  19
ATOM     18  C   UNL     1       6.128   3.805  13.499  0.00  0.00    +0.000 C 
ATOM     19  O   UNL     1       6.366   3.856  14.899  0.00  0.00    +0.000 OA
ENDBRANCH  17  19
ENDBRANCH  13  17
ENDBRANCH  12  13
ENDBRANCH   1  12
TORSDOF 5
ENDMDL
MODEL 3
REMARK VINA RESULT:      -6.8      1.506      5.660
REMARK  Name = 
REMARK  6 active torsions:
REMARK  status: ('A' for Active; 'I' for Inactive)
REMARK    1  A    between atoms: C_1  and  O_2
REMARK    2  A    between atoms: O_2  and  C_3
REMARK    3  A    between atoms: C_3  and  C_4
REMARK    4  A    between atoms: C_4  and  C_5
REMARK    5  A    between atoms: C_5  and  N_6
REMARK    6  A    between atoms: C_7  and  C_9
REMARK                            x       y       z     vdW  Elec       q    Type
REMARK                         _______ _______ _______ _____ _____    ______ ____
ROOT
ATOM      1  N   UNL     1       4.144   4.780  18.911  0.00  0.00    +0.000 N 
ATOM      2  C   UNL     1       5.433   5.259  19.005  0.00  0.00    +0.000 C 
ATOM      3  O   UNL     1       6.150   5.008  19.968  0.00  0.00    +0.000 OA
ATOM      4  H   UNL     1       3.587   4.981  18.092  0.00  0.00    +0.000 HD
ENDROOT
BRANCH   2   5
ATOM      5  C   UNL     1       5.886   6.145  17.836  0.00  0.00    +0.000 C 
ATOM      6  C   UNL     1       7.249   5.655  17.317  0.00  0.00    +0.000 C 
ATOM      7  C   UNL     1       7.175   4.377  16.479  0.00  0.00    +0.000 C 
ATOM      8  C   UNL     1       7.005   4.651  14.990  0.00  0.00    +0.000 C 
ATOM      9  C   UNL     1       5.659   5.247  14.590  0.00  0.00    +0.000 C 
ATOM     10  C   UNL     1       5.251   6.516  15.339  0.00  0.00    +0.000 C 
ATOM     11  C   UNL     1       4.782   6.245  16.770  0.00  0.00    +0.000 C 
ENDBRANCH   2   5
BRANCH   1  12
ATOM     12  C   UNL     1       3.595   3.874  19.906  0.00  0.00    +0.000 C 
BRANCH  12  13
ATOM     13  C   UNL     1       2.079   4.092  20.008  0.00  0.00    +0.000 C 
ATOM     14  C   UNL     1       1.223   2.870  20.481  0.00  0.00    +0.000 C 
ATOM     15  C   UNL     1       1.026   2.484  19.005  0.00  0.00    +0.000 C 
ATOM     16  C   UNL     1       1.361   3.936  18.628  0.00  0.00    +0.000 C 
BRANCH  13  17
ATOM     17  C   UNL     1       1.708   5.402  20.710  0.00  0.00    +0.000 C 
BRANCH  17  19
ATOM     18  C   UNL     1       1.746   7.747  20.439  0.00  0.00    +0.000 C 
ATOM     19  O   UNL     1       2.120   6.493  19.886  0.00  0.00    +0.000 OA
ENDBRANCH  17  19
ENDBRANCH  13  17
ENDBRANCH  12  13
ENDBRANCH   1  12
TORSDOF 5
ENDMDL
MODEL 4
REMARK VINA RESULT:      -6.8      1.538      2.054
REMARK  Name = 
REMARK  6 active torsions:
REMARK  status: ('A' for Active; 'I' for Inactive)
REMARK    1  A    between atoms: C_1  and  O_2
REMARK    2  A    between atoms: O_2  and  C_3
REMARK    3  A    between atoms: C_3  and  C_4
REMARK    4  A    between atoms: C_4  and  C_5
REMARK    5  A    between atoms: C_5  and  N_6
REMARK    6  A    between atoms: C_7  and  C_9
REMARK                            x       y       z     vdW  Elec       q    Type
REMARK                         _______ _______ _______ _____ _____    ______ ____
ROOT
ATOM      1  N   UNL     1       4.166   3.901  17.626  0.00  0.00    +0.000 N 
ATOM      2  C   UNL     1       2.827   3.702  17.367  0.00  0.00    +0.000 C 
ATOM      3  O   UNL     1       2.440   3.119  16.358  0.00  0.00    +0.000 OA
ATOM      4  H   UNL     1       4.454   4.360  18.479  0.00  0.00    +0.000 HD
ENDROOT
BRANCH   2   5
ATOM      5  C   UNL     1       1.866   4.285  18.412  0.00  0.00    +0.000 C 
ATOM      6  C   UNL     1       0.933   3.177  18.929  0.00  0.00    +0.000 C 
ATOM      7  C   UNL     1       1.599   2.204  19.905  0.00  0.00    +0.000 C 
ATOM      8  C   UNL     1       1.460   2.632  21.360  0.00  0.00    +0.000 C 
ATOM      9  C   UNL     1       2.237   3.887  21.744  0.00  0.00    +0.000 C 
ATOM     10  C   UNL     1       1.973   5.119  20.876  0.00  0.00    +0.000 C 
ATOM     11  C   UNL     1       2.643   5.041  19.502  0.00  0.00    +0.000 C 
ENDBRANCH   2   5
BRANCH   1  12
ATOM     12  C   UNL     1       5.197   3.349  16.763  0.00  0.00    +0.000 C 
BRANCH  12  13
ATOM     13  C   UNL     1       6.176   4.464  16.368  0.00  0.00    +0.000 C 
ATOM     14  C   UNL     1       5.552   5.854  16.011  0.00  0.00    +0.000 C 
ATOM     15  C   UNL     1       5.517   5.419  14.536  0.00  0.00    +0.000 C 
ATOM     16  C   UNL     1       6.601   4.379  14.865  0.00  0.00    +0.000 C 
BRANCH  13  17
ATOM     17  C   UNL     1       7.382   4.563  17.307  0.00  0.00    +0.000 C 
BRANCH  17  19
ATOM     18  C   UNL     1       7.131   5.629  19.398  0.00  0.00    +0.000 C 
ATOM     19  O   UNL     1       6.924   4.438  18.654  0.00  0.00    +0.000 OA
ENDBRANCH  17  19
ENDBRANCH  13  17
ENDBRANCH  12  13
ENDBRANCH   1  12
TORSDOF 5
ENDMDL
MODEL 5
REMARK VINA RESULT:      -6.6      1.120      1.277
REMARK  Name = 
REMARK  6 active torsions:
REMARK  status: ('A' for Active; 'I' for Inactive)
REMARK    1  A    between atoms: C_1  and  O_2
REMARK    2  A    between atoms: O_2  and  C_3
REMARK    3  A    between atoms: C_3  and  C_4
REMARK    4  A    between atoms: C_4  and  C_5
REMARK    5  A    between atoms: C_5  and  N_6
REMARK    6  A    between atoms: C_7  and  C_9
REMARK                            x       y       z     vdW  Elec       q    Type
REMARK                         _______ _______ _______ _____ _____    ______ ____
ROOT
ATOM      1  N   UNL     1       4.205   4.828  16.934  0.00  0.00    +0.000 N 
ATOM      2  C   UNL     1       3.331   5.352  17.863  0.00  0.00    +0.000 C 
ATOM      3  O   UNL     1       3.405   6.519  18.237  0.00  0.00    +0.000 OA
ATOM      4  H   UNL     1       4.101   3.871  16.626  0.00  0.00    +0.000 HD
ENDROOT
BRANCH   2   5
ATOM      5  C   UNL     1       2.288   4.367  18.408  0.00  0.00    +0.000 C 
ATOM      6  C   UNL     1       2.933   2.982  18.592  0.00  0.00    +0.000 C 
ATOM      7  C   UNL     1       3.849   2.877  19.813  0.00  0.00    +0.000 C 
ATOM      8  C   UNL     1       3.119   2.410  21.066  0.00  0.00    +0.000 C 
ATOM      9  C   UNL     1       2.111   3.401  21.638  0.00  0.00    +0.000 C 
ATOM     10  C   UNL     1       1.056   3.911  20.655  0.00  0.00    +0.000 C 
ATOM     11  C   UNL     1       1.605   4.937  19.662  0.00  0.00    +0.000 C 
ENDBRANCH   2   5
BRANCH   1  12
ATOM     12  C   UNL     1       5.204   5.655  16.278  0.00  0.00    +0.000 C 
BRANCH  12  13
ATOM     13  C   UNL     1       6.405   4.782  15.888  0.00  0.00    +0.000 C 
ATOM     14  C   UNL     1       7.070   5.079  14.503  0.00  0.00    +0.000 C 
ATOM     15  C   UNL     1       6.149   4.021  13.873  0.00  0.00    +0.000 C 
ATOM     16  C   UNL     1       5.971   3.411  15.273  0.00  0.00    +0.000 C 
BRANCH  13  17
ATOM     17  C   UNL     1       7.418   4.613  17.024  0.00  0.00    +0.000 C 
BRANCH  17  19
ATOM     18  C   UNL     1       7.725   5.951  18.944  0.00  0.00    +0.000 C 
ATOM     19  O   UNL     1       7.761   5.905  17.525  0.00  0.00    +0.000 OA
ENDBRANCH  17  19
ENDBRANCH  13  17
ENDBRANCH  12  13
ENDBRANCH   1  12
TORSDOF 5
ENDMDL
MODEL 6
REMARK VINA RESULT:      -6.6      1.347      2.571
REMARK  Name = 
REMARK  6 active torsions:
REMARK  status: ('A' for Active; 'I' for Inactive)
REMARK    1  A    between atoms: C_1  and  O_2
REMARK    2  A    between atoms: O_2  and  C_3
REMARK    3  A    between atoms: C_3  and  C_4
REMARK    4  A    between atoms: C_4  and  C_5
REMARK    5  A    between atoms: C_5  and  N_6
REMARK    6  A    between atoms: C_7  and  C_9
REMARK                            x       y       z     vdW  Elec       q    Type
REMARK                         _______ _______ _______ _____ _____    ______ ____
ROOT
ATOM      1  N   UNL     1       4.136   5.690  17.094  0.00  0.00    +0.000 N 
ATOM      2  C   UNL     1       3.184   5.921  18.063  0.00  0.00    +0.000 C 
ATOM      3  O   UNL     1       3.274   6.859  18.850  0.00  0.00    +0.000 OA
ATOM      4  H   UNL     1       4.020   4.925  16.443  0.00  0.00    +0.000 HD
ENDROOT
BRANCH   2   5
ATOM      5  C   UNL     1       2.029   4.911  18.100  0.00  0.00    +0.000 C 
ATOM      6  C   UNL     1       2.453   3.618  17.383  0.00  0.00    +0.000 C 
ATOM      7  C   UNL     1       3.409   2.739  18.193  0.00  0.00    +0.000 C 
ATOM      8  C   UNL     1       2.686   1.711  19.054  0.00  0.00    +0.000 C 
ATOM      9  C   UNL     1       1.885   2.286  20.218  0.00  0.00    +0.000 C 
ATOM     10  C   UNL     1       0.871   3.369  19.849  0.00  0.00    +0.000 C 
ATOM     11  C   UNL     1       1.520   4.720  19.538  0.00  0.00    +0.000 C 
ENDBRANCH   2   5
BRANCH   1  12
ATOM     12  C   UNL     1       5.252   6.598  16.892  0.00  0.00    +0.000 C 
BRANCH  12  13
ATOM     13  C   UNL     1       6.568   5.813  16.995  0.00  0.00    +0.000 C 
ATOM     14  C   UNL     1       6.653   4.727  18.118  0.00  0.00    +0.000 C 
ATOM     15  C   UNL     1       7.262   5.789  19.049  0.00  0.00    +0.000 C 
ATOM     16  C   UNL     1       7.663   6.588  17.798  0.00  0.00    +0.000 C 
BRANCH  13  17
ATOM     17  C   UNL     1       7.082   5.325  15.637  0.00  0.00    +0.000 C 
BRANCH  17  19
ATOM     18  C   UNL     1       6.045   3.949  14.023  0.00  0.00    +0.000 C 
ATOM     19  O   UNL     1       5.967   5.161  14.760  0.00  0.00    +0.000 OA
ENDBRANCH  17  19
ENDBRANCH  13  17
ENDBRANCH  12  13
ENDBRANCH   1  12
TORSDOF 5
ENDMDL
MODEL 7
REMARK VINA RESULT:      -6.6      1.620      5.769
REMARK  Name = 
REMARK  6 active torsions:
REMARK  status: ('A' for Active; 'I' for Inactive)
REMARK    1  A    between atoms: C_1  and  O_2
REMARK    2  A    between atoms: O_2  and  C_3
REMARK    3  A    between atoms: C_3  and  C_4
REMARK    4  A    between atoms: C_4  and  C_5
REMARK    5  A    between atoms: C_5  and  N_6
REMARK    6  A    between atoms: C_7  and  C_9
REMARK                            x       y       z     vdW  Elec       q    Type
REMARK                         _______ _______ _______ _____ _____    ______ ____
ROOT
ATOM      1  N   UNL     1       4.295   4.341  18.727  0.00  0.00    +0.000 N 
ATOM      2  C   UNL     1       5.467   5.024  18.973  0.00  0.00    +0.000 C 
ATOM      3  O   UNL     1       6.095   4.879  20.017  0.00  0.00    +0.000 OA
ATOM      4  H   UNL     1       3.815   4.461  17.845  0.00  0.00    +0.000 HD
ENDROOT
BRANCH   2   5
ATOM      5  C   UNL     1       5.905   5.990  17.864  0.00  0.00    +0.000 C 
ATOM      6  C   UNL     1       7.271   5.553  17.309  0.00  0.00    +0.000 C 
ATOM      7  C   UNL     1       7.210   4.332  16.389  0.00  0.00    +0.000 C 
ATOM      8  C   UNL     1       7.030   4.701  14.922  0.00  0.00    +0.000 C 
ATOM      9  C   UNL     1       5.676   5.306  14.566  0.00  0.00    +0.000 C 
ATOM     10  C   UNL     1       5.255   6.518  15.399  0.00  0.00    +0.000 C 
ATOM     11  C   UNL     1       4.796   6.147  16.810  0.00  0.00    +0.000 C 
ENDBRANCH   2   5
BRANCH   1  12
ATOM     12  C   UNL     1       3.788   3.342  19.652  0.00  0.00    +0.000 C 
BRANCH  12  13
ATOM     13  C   UNL     1       2.409   3.780  20.164  0.00  0.00    +0.000 C 
ATOM     14  C   UNL     1       2.219   3.837  21.716  0.00  0.00    +0.000 C 
ATOM     15  C   UNL     1       1.696   2.392  21.669  0.00  0.00    +0.000 C 
ATOM     16  C   UNL     1       1.378   2.604  20.180  0.00  0.00    +0.000 C 
BRANCH  13  17
ATOM     17  C   UNL     1       1.866   5.016  19.440  0.00  0.00    +0.000 C 
BRANCH  17  19
ATOM     18  C   UNL     1       2.340   7.326  19.319  0.00  0.00    +0.000 C 
ATOM     19  O   UNL     1       2.277   6.181  20.157  0.00  0.00    +0.000 OA
ENDBRANCH  17  19
ENDBRANCH  13  17
ENDBRANCH  12  13
ENDBRANCH   1  12
TORSDOF 5
ENDMDL
MODEL 8
REMARK VINA RESULT:      -6.5      1.654      2.049
REMARK  Name = 
REMARK  6 active torsions:
REMARK  status: ('A' for Active; 'I' for Inactive)
REMARK    1  A    between atoms: C_1  and  O_2
REMARK    2  A    between atoms: O_2  and  C_3
REMARK    3  A    between atoms: C_3  and  C_4
REMARK    4  A    between atoms: C_4  and  C_5
REMARK    5  A    between atoms: C_5  and  N_6
REMARK    6  A    between atoms: C_7  and  C_9
REMARK                            x       y       z     vdW  Elec       q    Type
REMARK                         _______ _______ _______ _____ _____    ______ ____
ROOT
ATOM      1  N   UNL     1       4.418   4.396  17.867  0.00  0.00    +0.000 N 
ATOM      2  C   UNL     1       3.143   4.039  17.483  0.00  0.00    +0.000 C 
ATOM      3  O   UNL     1       2.926   3.441  16.433  0.00  0.00    +0.000 OA
ATOM      4  H   UNL     1       4.568   4.863  18.751  0.00  0.00    +0.000 HD
ENDROOT
BRANCH   2   5
ATOM      5  C   UNL     1       2.027   4.466  18.446  0.00  0.00    +0.000 C 
ATOM      6  C   UNL     1       1.128   3.259  18.761  0.00  0.00    +0.000 C 
ATOM      7  C   UNL     1       1.749   2.254  19.734  0.00  0.00    +0.000 C 
ATOM      8  C   UNL     1       1.411   2.549  21.190  0.00  0.00    +0.000 C 
ATOM      9  C   UNL     1       2.042   3.816  21.758  0.00  0.00    +0.000 C 
ATOM     10  C   UNL     1       1.787   5.096  20.960  0.00  0.00    +0.000 C 
ATOM     11  C   UNL     1       2.614   5.178  19.676  0.00  0.00    +0.000 C 
ENDBRANCH   2   5
BRANCH   1  12
ATOM     12  C   UNL     1       5.584   4.002  17.093  0.00  0.00    +0.000 C 
BRANCH  12  13
ATOM     13  C   UNL     1       6.119   5.222  16.330  0.00  0.00    +0.000 C 
ATOM     14  C   UNL     1       5.427   5.558  14.967  0.00  0.00    +0.000 C 
ATOM     15  C   UNL     1       6.489   4.701  14.258  0.00  0.00    +0.000 C 
ATOM     16  C   UNL     1       7.393   4.885  15.487  0.00  0.00    +0.000 C 
BRANCH  13  17
ATOM     17  C   UNL     1       6.324   6.447  17.226  0.00  0.00    +0.000 C 
BRANCH  17  19
ATOM     18  C   UNL     1       7.780   8.266  17.607  0.00  0.00    +0.000 C 
ATOM     19  O   UNL     1       7.495   7.140  16.790  0.00  0.00    +0.000 OA
ENDBRANCH  17  19
ENDBRANCH  13  17
ENDBRANCH  12  13
ENDBRANCH   1  12
TORSDOF 5
ENDMDL
MODEL 9
REMARK VINA RESULT:      -6.5      1.569      2.694
REMARK  Name = 
REMARK  6 active torsions:
REMARK  status: ('A' for Active; 'I' for Inactive)
REMARK    1  A    between atoms: C_1  and  O_2
REMARK    2  A    between atoms: O_2  and  C_3
REMARK    3  A    between atoms: C_3  and  C_4
REMARK    4  A    between atoms: C_4  and  C_5
REMARK    5  A    between atoms: C_5  and  N_6
REMARK    6  A    between atoms: C_7  and  C_9
REMARK                            x       y       z     vdW  Elec       q    Type
REMARK                         _______ _______ _______ _____ _____    ______ ____
ROOT
ATOM      1  N   UNL     1       5.610   3.828  17.859  0.00  0.00    +0.000 N 
ATOM      2  C   UNL     1       5.102   4.025  19.125  0.00  0.00    +0.000 C 
ATOM      3  O   UNL     1       5.426   4.990  19.811  0.00  0.00    +0.000 OA
ATOM      4  H   UNL     1       5.303   3.038  17.308  0.00  0.00    +0.000 HD
ENDROOT
BRANCH   2   5
ATOM      5  C   UNL     1       4.133   2.941  19.616  0.00  0.00    +0.000 C 
ATOM      6  C   UNL     1       3.267   3.502  20.757  0.00  0.00    +0.000 C 
ATOM      7  C   UNL     1       2.161   4.453  20.291  0.00  0.00    +0.000 C 
ATOM      8  C   UNL     1       0.847   3.739  20.001  0.00  0.00    +0.000 C 
ATOM      9  C   UNL     1       0.863   2.817  18.786  0.00  0.00    +0.000 C 
ATOM     10  C   UNL     1       1.971   1.763  18.772  0.00  0.00    +0.000 C 
ATOM     11  C   UNL     1       3.348   2.341  18.438  0.00  0.00    +0.000 C 
ENDBRANCH   2   5
BRANCH   1  12
ATOM     12  C   UNL     1       6.486   4.802  17.230  0.00  0.00    +0.000 C 
BRANCH  12  13
ATOM     13  C   UNL     1       5.876   5.243  15.893  0.00  0.00    +0.000 C 
ATOM     14  C   UNL     1       5.035   4.174  15.117  0.00  0.00    +0.000 C 
ATOM     15  C   UNL     1       6.310   3.775  14.356  0.00  0.00    +0.000 C 
ATOM     16  C   UNL     1       6.898   5.151  14.712  0.00  0.00    +0.000 C 
BRANCH  13  17
ATOM     17  C   UNL     1       5.197   6.614  15.966  0.00  0.00    +0.000 C 
BRANCH  17  19
ATOM     18  C   UNL     1       3.636   7.174  17.646  0.00  0.00    +0.000 C 
ATOM     19  O   UNL     1       5.005   6.954  17.340  0.00  0.00    +0.000 OA
ENDBRANCH  17  19
ENDBRANCH  13  17
ENDBRANCH  12  13
ENDBRANCH   1  12
TORSDOF 5
ENDMDL
