MODEL 1
REMARK VINA RESULT:      -8.2      0.000      0.000
REMARK  Name = 
REMARK  8 active torsions:
REMARK  status: ('A' for Active; 'I' for Inactive)
REMARK    1  A    between atoms: C_1  and  O_2
REMARK    2  A    between atoms: O_2  and  C_3
REMARK    3  A    between atoms: C_8  and  C_9
REMARK    4  A    between atoms: C_12  and  C_13
REMARK    5  A    between atoms: C_13  and  C_14
REMARK    6  A    between atoms: C_13  and  C_15
REMARK    7  A    between atoms: C_15  and  N_16
REMARK    8  A    between atoms: C_15  and  C_17
REMARK                            x       y       z     vdW  Elec       q    Type
REMARK                         _______ _______ _______ _____ _____    ______ ____
ROOT
ATOM      1  C   UNL     1       3.293   6.727  18.229  0.00  0.00    +0.000 A 
ATOM      2  C   UNL     1       2.842   6.302  19.489  0.00  0.00    +0.000 A 
ATOM      3  C   UNL     1       1.986   7.089  20.276  0.00  0.00    +0.000 A 
ATOM      4  C   UNL     1       1.527   8.333  19.826  0.00  0.00    +0.000 A 
ATOM      5  C   UNL     1       1.898   8.727  18.533  0.00  0.00    +0.000 A 
ATOM      6  C   UNL     1       2.760   7.941  17.756  0.00  0.00    +0.000 A 
ENDROOT
BRANCH   1  12
ATOM      7  C   UNL     1       4.112   4.639  16.971  0.00  0.00    +0.000 A 
ATOM      8  C   UNL     1       5.119   3.983  16.243  0.00  0.00    +0.000 A 
ATOM      9  C   UNL     1       6.350   4.588  16.022  0.00  0.00    +0.000 A 
ATOM     10  C   UNL     1       6.577   5.872  16.487  0.00  0.00    +0.000 A 
ATOM     11  C   UNL     1       5.561   6.555  17.160  0.00  0.00    +0.000 A 
ATOM     12  C   UNL     1       4.303   5.966  17.431  0.00  0.00    +0.000 A 
BRANCH   7  14
ATOM     13  C   UNL     1       3.010   2.694  17.757  0.00  0.00    +0.000 C 
ATOM     14  O   UNL     1       2.911   4.016  17.231  0.00  0.00    +0.000 OA
ENDBRANCH   7  14
ENDBRANCH   1  12
BRANCH   4  15
ATOM     15  C   UNL     1       0.702   9.242  20.746  0.00  0.00    +0.000 C 
ATOM     16  C   UNL     1       1.247   9.177  22.182  0.00  0.00    +0.000 C 
BRANCH  15  17
ATOM     17  C   UNL     1       0.521  10.682  20.193  0.00  0.00    +0.000 C 
BRANCH  17  18
ATOM     18  C   UNL     1      -0.960  11.166  20.104  0.00  0.00    +0.000 C 
ATOM     19  O   UNL     1      -1.483  11.742  21.066  0.00  0.00    +0.000 OA
ATOM     20  N   UNL     1      -1.641  11.053  18.911  0.00  0.00    +0.000 N 
ATOM     21  C   UNL     1      -2.904  11.751  18.725  0.00  0.00    +0.000 C 
ATOM     22  C   UNL     1      -3.369  11.384  17.321  0.00  0.00    +0.000 C 
ATOM     23  C   UNL     1      -2.772  10.002  17.133  0.00  0.00    +0.000 C 
ATOM     24  F   UNL     1      -3.553   9.102  17.796  0.00  0.00    +0.000 F 
ATOM     25  C   UNL     1      -1.417  10.095  17.831  0.00  0.00    +0.000 C 
ENDBRANCH  17  18
BRANCH  17  26
ATOM     26  N   UNL     1       1.252  11.706  20.995  0.00  0.00    +0.000 NA
ATOM     27  H   UNL     1       0.547  12.261  21.491  0.00  0.00    +0.000 HD
ATOM     28  H   UNL     1       1.663  12.380  20.349  0.00  0.00    +0.000 HD
ENDBRANCH  17  26
ENDBRANCH  15  17
ENDBRANCH   4  15
TORSDOF 6
ENDMDL
MODEL 2
REMARK VINA RESULT:      -8.1      3.618      8.225
REMARK  Name = 
REMARK  8 active torsions:
REMARK  status: ('A' for Active; 'I' for Inactive)
REMARK    1  A    between atoms: C_1  and  O_2
REMARK    2  A    between atoms: O_2  and  C_3
REMARK    3  A    between atoms: C_8  and  C_9
REMARK    4  A    between atoms: C_12  and  C_13
REMARK    5  A    between atoms: C_13  and  C_14
REMARK    6  A    between atoms: C_13  and  C_15
REMARK    7  A    between atoms: C_15  and  N_16
REMARK    8  A    between atoms: C_15  and  C_17
REMARK                            x       y       z     vdW  Elec       q    Type
REMARK                         _______ _______ _______ _____ _____    ______ ____
ROOT
ATOM      1  C   UNL     1       1.315   9.639  18.971  0.00  0.00    +0.000 A 
ATOM      2  C   UNL     1       1.341   8.904  20.167  0.00  0.00    +0.000 A 
ATOM      3  C   UNL     1       1.833   7.589  20.221  0.00  0.00    +0.000 A 
ATOM      4  C   UNL     1       2.341   6.958  19.078  0.00  0.00    +0.000 A 
ATOM      5  C   UNL     1       2.403   7.713  17.900  0.00  0.00    +0.000 A 
ATOM      6  C   UNL     1       1.902   9.022  17.851  0.00  0.00    +0.000 A 
ENDROOT
BRANCH   1  12
ATOM      7  C   UNL     1      -0.694  11.199  18.593  0.00  0.00    +0.000 A 
ATOM      8  C   UNL     1      -1.211  12.501  18.486  0.00  0.00    +0.000 A 
ATOM      9  C   UNL     1      -0.377  13.609  18.564  0.00  0.00    +0.000 A 
ATOM     10  C   UNL     1       0.977  13.434  18.795  0.00  0.00    +0.000 A 
ATOM     11  C   UNL     1       1.491  12.146  18.963  0.00  0.00    +0.000 A 
ATOM     12  C   UNL     1       0.682  10.989  18.863  0.00  0.00    +0.000 A 
BRANCH   7  14
ATOM     13  C   UNL     1      -2.645  10.280  17.609  0.00  0.00    +0.000 C 
ATOM     14  O   UNL     1      -1.517  10.101  18.464  0.00  0.00    +0.000 OA
ENDBRANCH   7  14
ENDBRANCH   1  12
BRANCH   4  15
ATOM     15  C   UNL     1       2.751   5.480  19.119  0.00  0.00    +0.000 C 
ATOM     16  C   UNL     1       2.028   4.761  20.268  0.00  0.00    +0.000 C 
BRANCH  15  17
ATOM     17  C   UNL     1       2.637   4.769  17.743  0.00  0.00    +0.000 C 
BRANCH  17  18
ATOM     18  C   UNL     1       3.872   3.899  17.352  0.00  0.00    +0.000 C 
ATOM     19  O   UNL     1       3.878   2.686  17.592  0.00  0.00    +0.000 OA
ATOM     20  N   UNL     1       4.903   4.469  16.636  0.00  0.00    +0.000 N 
ATOM     21  C   UNL     1       5.913   3.623  16.018  0.00  0.00    +0.000 C 
ATOM     22  C   UNL     1       6.887   4.580  15.341  0.00  0.00    +0.000 C 
ATOM     23  C   UNL     1       6.790   5.814  16.217  0.00  0.00    +0.000 C 
ATOM     24  F   UNL     1       7.533   5.606  17.341  0.00  0.00    +0.000 F 
ATOM     25  C   UNL     1       5.312   5.871  16.600  0.00  0.00    +0.000 C 
ENDBRANCH  17  18
BRANCH  17  26
ATOM     26  N   UNL     1       1.446   3.874  17.652  0.00  0.00    +0.000 NA
ATOM     27  H   UNL     1       1.521   3.193  18.415  0.00  0.00    +0.000 HD
ATOM     28  H   UNL     1       1.546   3.296  16.817  0.00  0.00    +0.000 HD
ENDBRANCH  17  26
ENDBRANCH  15  17
ENDBRANCH   4  15
TORSDOF 6
ENDMDL
MODEL 3
REMARK VINA RESULT:      -8.0      0.540      1.090
REMARK  Name = 
REMARK  8 active torsions:
REMARK  status: ('A' for Active; 'I' for Inactive)
REMARK    1  A    between atoms: C_1  and  O_2
REMARK    2  A    between atoms: O_2  and  C_3
REMARK    3  A    between atoms: C_8  and  C_9
REMARK    4  A    between atoms: C_12  and  C_13
REMARK    5  A    between atoms: C_13  and  C_14
REMARK    6  A    between atoms: C_13  and  C_15
REMARK    7  A    between atoms: C_15  and  N_16
REMARK    8  A    between atoms: C_15  and  C_17
REMARK                            x       y       z     vdW  Elec       q    Type
REMARK                         _______ _______ _______ _____ _____    ______ ____
ROOT
ATOM      1  C   UNL     1       3.043   6.847  18.346  0.00  0.00    +0.000 A 
ATOM      2  C   UNL     1       2.588   8.101  17.911  0.00  0.00    +0.000 A 
ATOM      3  C   UNL     1       1.779   8.918  18.718  0.00  0.00    +0.000 A 
ATOM      4  C   UNL     1       1.407   8.522  20.009  0.00  0.00    +0.000 A 
ATOM      5  C   UNL     1       1.931   7.313  20.487  0.00  0.00    +0.000 A 
ATOM      6  C   UNL     1       2.729   6.497  19.673  0.00  0.00    +0.000 A 
ENDROOT
BRANCH   1  12
ATOM      7  C   UNL     1       3.582   4.505  17.428  0.00  0.00    +0.000 A 
ATOM      8  C   UNL     1       4.346   3.684  16.581  0.00  0.00    +0.000 A 
ATOM      9  C   UNL     1       5.378   4.212  15.816  0.00  0.00    +0.000 A 
ATOM     10  C   UNL     1       5.633   5.573  15.851  0.00  0.00    +0.000 A 
ATOM     11  C   UNL     1       4.839   6.406  16.643  0.00  0.00    +0.000 A 
ATOM     12  C   UNL     1       3.796   5.906  17.460  0.00  0.00    +0.000 A 
BRANCH   7  14
ATOM     13  C   UNL     1       2.284   2.600  17.977  0.00  0.00    +0.000 C 
ATOM     14  O   UNL     1       2.593   3.970  18.224  0.00  0.00    +0.000 OA
ENDBRANCH   7  14
ENDBRANCH   1  12
BRANCH   4  15
ATOM     15  C   UNL     1       0.419   9.359  20.830  0.00  0.00    +0.000 C 
ATOM     16  C   UNL     1       0.739   9.239  22.328  0.00  0.00    +0.000 C 
BRANCH  15  17
ATOM     17  C   UNL     1       0.273  10.820  20.320  0.00  0.00    +0.000 C 
BRANCH  17  18
ATOM     18  C   UNL     1      -1.199  11.300  20.125  0.00  0.00    +0.000 C 
ATOM     19  O   UNL     1      -1.768  11.936  21.021  0.00  0.00    +0.000 OA
ATOM     20  N   UNL     1      -1.818  11.112  18.908  0.00  0.00    +0.000 N 
ATOM     21  C   UNL     1      -3.067  11.799  18.614  0.00  0.00    +0.000 C 
ATOM     22  C   UNL     1      -3.462  11.345  17.214  0.00  0.00    +0.000 C 
ATOM     23  C   UNL     1      -2.863   9.953  17.145  0.00  0.00    +0.000 C 
ATOM     24  F   UNL     1      -3.681   9.097  17.822  0.00  0.00    +0.000 F 
ATOM     25  C   UNL     1      -1.545  10.088  17.903  0.00  0.00    +0.000 C 
ENDBRANCH  17  18
BRANCH  17  26
ATOM     26  N   UNL     1       0.926  11.814  21.221  0.00  0.00    +0.000 NA
ATOM     27  H   UNL     1       0.177  12.319  21.707  0.00  0.00    +0.000 HD
ATOM     28  H   UNL     1       1.350  12.538  20.639  0.00  0.00    +0.000 HD
ENDBRANCH  17  26
ENDBRANCH  15  17
ENDBRANCH   4  15
TORSDOF 6
ENDMDL
MODEL 4
REMARK VINA RESULT:      -7.9      1.133      1.955
REMARK  Name = 
REMARK  8 active torsions:
REMARK  status: ('A' for Active; 'I' for Inactive)
REMARK    1  A    between atoms: C_1  and  O_2
REMARK    2  A    between atoms: O_2  and  C_3
REMARK    3  A    between atoms: C_8  and  C_9
REMARK    4  A    between atoms: C_12  and  C_13
REMARK    5  A    between atoms: C_13  and  C_14
REMARK    6  A    between atoms: C_13  and  C_15
REMARK    7  A    between atoms: C_15  and  N_16
REMARK    8  A    between atoms: C_15  and  C_17
REMARK                            x       y       z     vdW  Elec       q    Type
REMARK                         _______ _______ _______ _____ _____    ______ ____
ROOT
ATOM      1  C   UNL     1       3.568   6.642  18.127  0.00  0.00    +0.000 A 
ATOM      2  C   UNL     1       3.087   6.188  19.364  0.00  0.00    +0.000 A 
ATOM      3  C   UNL     1       2.179   6.938  20.130  0.00  0.00    +0.000 A 
ATOM      4  C   UNL     1       1.697   8.173  19.678  0.00  0.00    +0.000 A 
ATOM      5  C   UNL     1       2.101   8.594  18.404  0.00  0.00    +0.000 A 
ATOM      6  C   UNL     1       3.015   7.845  17.649  0.00  0.00    +0.000 A 
ENDROOT
BRANCH   1  12
ATOM      7  C   UNL     1       5.943   6.421  17.163  0.00  0.00    +0.000 A 
ATOM      8  C   UNL     1       6.878   5.694  16.406  0.00  0.00    +0.000 A 
ATOM      9  C   UNL     1       6.518   4.514  15.768  0.00  0.00    +0.000 A 
ATOM     10  C   UNL     1       5.232   4.020  15.912  0.00  0.00    +0.000 A 
ATOM     11  C   UNL     1       4.312   4.703  16.711  0.00  0.00    +0.000 A 
ATOM     12  C   UNL     1       4.629   5.923  17.356  0.00  0.00    +0.000 A 
BRANCH   7  14
ATOM     13  C   UNL     1       7.634   8.038  17.534  0.00  0.00    +0.000 C 
ATOM     14  O   UNL     1       6.289   7.617  17.752  0.00  0.00    +0.000 OA
ENDBRANCH   7  14
ENDBRANCH   1  12
BRANCH   4  15
ATOM     15  C   UNL     1       0.812   9.044  20.578  0.00  0.00    +0.000 C 
ATOM     16  C   UNL     1       1.264   8.922  22.042  0.00  0.00    +0.000 C 
BRANCH  15  17
ATOM     17  C   UNL     1       0.662  10.505  20.072  0.00  0.00    +0.000 C 
BRANCH  17  18
ATOM     18  C   UNL     1      -0.808  11.023  19.999  0.00  0.00    +0.000 C 
ATOM     19  O   UNL     1      -1.314  11.592  20.973  0.00  0.00    +0.000 OA
ATOM     20  N   UNL     1      -1.496  10.947  18.806  0.00  0.00    +0.000 N 
ATOM     21  C   UNL     1      -2.743  11.676  18.639  0.00  0.00    +0.000 C 
ATOM     22  C   UNL     1      -3.223  11.346  17.230  0.00  0.00    +0.000 C 
ATOM     23  C   UNL     1      -2.657   9.956  17.014  0.00  0.00    +0.000 C 
ATOM     24  F   UNL     1      -3.455   9.060  17.663  0.00  0.00    +0.000 F 
ATOM     25  C   UNL     1      -1.297  10.005  17.707  0.00  0.00    +0.000 C 
ENDBRANCH  17  18
BRANCH  17  26
ATOM     26  N   UNL     1       1.414  11.486  20.907  0.00  0.00    +0.000 NA
ATOM     27  H   UNL     1       1.921  10.950  21.619  0.00  0.00    +0.000 HD
ATOM     28  H   UNL     1       0.739  12.018  21.457  0.00  0.00    +0.000 HD
ENDBRANCH  17  26
ENDBRANCH  15  17
ENDBRANCH   4  15
TORSDOF 6
ENDMDL
MODEL 5
REMARK VINA RESULT:      -7.8      3.701      8.426
REMARK  Name = 
REMARK  8 active torsions:
REMARK  status: ('A' for Active; 'I' for Inactive)
REMARK    1  A    between atoms: C_1  and  O_2
REMARK    2  A    between atoms: O_2  and  C_3
REMARK    3  A    between atoms: C_8  and  C_9
REMARK    4  A    between atoms: C_12  and  C_13
REMARK    5  A    between atoms: C_13  and  C_14
REMARK    6  A    between atoms: C_13  and  C_15
REMARK    7  A    between atoms: C_15  and  N_16
REMARK    8  A    between atoms: C_15  and  C_17
REMARK                            x       y       z     vdW  Elec       q    Type
REMARK                         _______ _______ _______ _____ _____    ______ ____
ROOT
ATOM      1  C   UNL     1       1.095   9.644  19.196  0.00  0.00    +0.000 A 
ATOM      2  C   UNL     1       1.227   8.874  20.362  0.00  0.00    +0.000 A 
ATOM      3  C   UNL     1       1.806   7.595  20.347  0.00  0.00    +0.000 A 
ATOM      4  C   UNL     1       2.300   7.036  19.161  0.00  0.00    +0.000 A 
ATOM      5  C   UNL     1       2.255   7.833  18.008  0.00  0.00    +0.000 A 
ATOM      6  C   UNL     1       1.667   9.105  18.028  0.00  0.00    +0.000 A 
ENDROOT
BRANCH   1  12
ATOM      7  C   UNL     1       0.974  12.185  18.818  0.00  0.00    +0.000 A 
ATOM      8  C   UNL     1       0.228  13.376  18.833  0.00  0.00    +0.000 A 
ATOM      9  C   UNL     1      -1.094  13.385  19.260  0.00  0.00    +0.000 A 
ATOM     10  C   UNL     1      -1.702  12.200  19.637  0.00  0.00    +0.000 A 
ATOM     11  C   UNL     1      -0.987  11.001  19.568  0.00  0.00    +0.000 A 
ATOM     12  C   UNL     1       0.369  10.951  19.165  0.00  0.00    +0.000 A 
BRANCH   7  14
ATOM     13  C   UNL     1       2.910  13.475  18.366  0.00  0.00    +0.000 C 
ATOM     14  O   UNL     1       2.300  12.188  18.442  0.00  0.00    +0.000 OA
ENDBRANCH   7  14
ENDBRANCH   1  12
BRANCH   4  15
ATOM     15  C   UNL     1       2.809   5.590  19.130  0.00  0.00    +0.000 C 
ATOM     16  C   UNL     1       2.210   4.793  20.300  0.00  0.00    +0.000 C 
BRANCH  15  17
ATOM     17  C   UNL     1       2.653   4.909  17.742  0.00  0.00    +0.000 C 
BRANCH  17  18
ATOM     18  C   UNL     1       3.854   4.008  17.318  0.00  0.00    +0.000 C 
ATOM     19  O   UNL     1       3.812   2.787  17.510  0.00  0.00    +0.000 OA
ATOM     20  N   UNL     1       4.909   4.565  16.626  0.00  0.00    +0.000 N 
ATOM     21  C   UNL     1       5.886   3.705  15.977  0.00  0.00    +0.000 C 
ATOM     22  C   UNL     1       6.899   4.649  15.339  0.00  0.00    +0.000 C 
ATOM     23  C   UNL     1       6.847   5.851  16.263  0.00  0.00    +0.000 C 
ATOM     24  F   UNL     1       7.580   5.569  17.378  0.00  0.00    +0.000 F 
ATOM     25  C   UNL     1       5.372   5.950  16.647  0.00  0.00    +0.000 C 
ENDBRANCH  17  18
BRANCH  17  26
ATOM     26  N   UNL     1       1.432   4.055  17.651  0.00  0.00    +0.000 NA
ATOM     27  H   UNL     1       1.403   3.479  18.499  0.00  0.00    +0.000 HD
ATOM     28  H   UNL     1       1.581   3.367  16.912  0.00  0.00    +0.000 HD
ENDBRANCH  17  26
ENDBRANCH  15  17
ENDBRANCH   4  15
TORSDOF 6
ENDMDL
MODEL 6
REMARK VINA RESULT:      -7.8      3.663      8.144
REMARK  Name = 
REMARK  8 active torsions:
REMARK  status: ('A' for Active; 'I' for Inactive)
REMARK    1  A    between atoms: C_1  and  O_2
REMARK    2  A    between atoms: O_2  and  C_3
REMARK    3  A    between atoms: C_8  and  C_9
REMARK    4  A    between atoms: C_12  and  C_13
REMARK    5  A    between atoms: C_13  and  C_14
REMARK    6  A    between atoms: C_13  and  C_15
REMARK    7  A    between atoms: C_15  and  N_16
REMARK    8  A    between atoms: C_15  and  C_17
REMARK                            x       y       z     vdW  Elec       q    Type
REMARK                         _______ _______ _______ _____ _____    ______ ____
ROOT
ATOM      1  C   UNL     1       1.149   9.535  19.161  0.00  0.00    +0.000 A 
ATOM      2  C   UNL     1       1.746   8.751  18.162  0.00  0.00    +0.000 A 
ATOM      3  C   UNL     1       2.275   7.478  18.433  0.00  0.00    +0.000 A 
ATOM      4  C   UNL     1       2.211   6.925  19.718  0.00  0.00    +0.000 A 
ATOM      5  C   UNL     1       1.537   7.661  20.702  0.00  0.00    +0.000 A 
ATOM      6  C   UNL     1       1.020   8.935  20.428  0.00  0.00    +0.000 A 
ENDROOT
BRANCH   1  12
ATOM      7  C   UNL     1      -0.634  11.296  18.581  0.00  0.00    +0.000 A 
ATOM      8  C   UNL     1      -0.978  12.640  18.354  0.00  0.00    +0.000 A 
ATOM      9  C   UNL     1      -0.014  13.639  18.388  0.00  0.00    +0.000 A 
ATOM     10  C   UNL     1       1.299  13.318  18.690  0.00  0.00    +0.000 A 
ATOM     11  C   UNL     1       1.640  11.993  18.976  0.00  0.00    +0.000 A 
ATOM     12  C   UNL     1       0.695  10.940  18.926  0.00  0.00    +0.000 A 
BRANCH   7  14
ATOM     13  C   UNL     1      -2.048  10.010  17.180  0.00  0.00    +0.000 C 
ATOM     14  O   UNL     1      -1.583  10.301  18.497  0.00  0.00    +0.000 OA
ENDBRANCH   7  14
ENDBRANCH   1  12
BRANCH   4  15
ATOM     15  C   UNL     1       2.907   5.595  20.032  0.00  0.00    +0.000 C 
ATOM     16  C   UNL     1       2.097   4.806  21.073  0.00  0.00    +0.000 C 
BRANCH  15  17
ATOM     17  C   UNL     1       3.288   4.782  18.764  0.00  0.00    +0.000 C 
BRANCH  17  18
ATOM     18  C   UNL     1       4.790   4.369  18.681  0.00  0.00    +0.000 C 
ATOM     19  O   UNL     1       5.194   3.369  19.287  0.00  0.00    +0.000 OA
ATOM     20  N   UNL     1       5.637   5.056  17.836  0.00  0.00    +0.000 N 
ATOM     21  C   UNL     1       6.952   4.514  17.527  0.00  0.00    +0.000 C 
ATOM     22  C   UNL     1       7.603   5.532  16.599  0.00  0.00    +0.000 C 
ATOM     23  C   UNL     1       6.963   6.833  17.044  0.00  0.00    +0.000 C 
ATOM     24  F   UNL     1       7.581   7.248  18.187  0.00  0.00    +0.000 F 
ATOM     25  C   UNL     1       5.525   6.436  17.371  0.00  0.00    +0.000 C 
ENDBRANCH  17  18
BRANCH  17  26
ATOM     26  N   UNL     1       2.497   3.525  18.624  0.00  0.00    +0.000 NA
ATOM     27  H   UNL     1       3.142   2.795  18.304  0.00  0.00    +0.000 HD
ATOM     28  H   UNL     1       1.864   3.636  17.831  0.00  0.00    +0.000 HD
ENDBRANCH  17  26
ENDBRANCH  15  17
ENDBRANCH   4  15
TORSDOF 6
ENDMDL
MODEL 7
REMARK VINA RESULT:      -7.8      3.645      8.051
REMARK  Name = 
REMARK  8 active torsions:
REMARK  status: ('A' for Active; 'I' for Inactive)
REMARK    1  A    between atoms: C_1  and  O_2
REMARK    2  A    between atoms: O_2  and  C_3
REMARK    3  A    between atoms: C_8  and  C_9
REMARK    4  A    between atoms: C_12  and  C_13
REMARK    5  A    between atoms: C_13  and  C_14
REMARK    6  A    between atoms: C_13  and  C_15
REMARK    7  A    between atoms: C_15  and  N_16
REMARK    8  A    between atoms: C_15  and  C_17
REMARK                            x       y       z     vdW  Elec       q    Type
REMARK                         _______ _______ _______ _____ _____    ______ ____
ROOT
ATOM      1  C   UNL     1       1.195   9.369  19.177  0.00  0.00    +0.000 A 
ATOM      2  C   UNL     1       1.847   8.586  18.211  0.00  0.00    +0.000 A 
ATOM      3  C   UNL     1       2.390   7.328  18.517  0.00  0.00    +0.000 A 
ATOM      4  C   UNL     1       2.286   6.787  19.806  0.00  0.00    +0.000 A 
ATOM      5  C   UNL     1       1.559   7.519  20.754  0.00  0.00    +0.000 A 
ATOM      6  C   UNL     1       1.028   8.779  20.444  0.00  0.00    +0.000 A 
ENDROOT
BRANCH   1  12
ATOM      7  C   UNL     1      -0.608  11.091  18.545  0.00  0.00    +0.000 A 
ATOM      8  C   UNL     1      -0.969  12.424  18.287  0.00  0.00    +0.000 A 
ATOM      9  C   UNL     1      -0.019  13.438  18.305  0.00  0.00    +0.000 A 
ATOM     10  C   UNL     1       1.295  13.142  18.624  0.00  0.00    +0.000 A 
ATOM     11  C   UNL     1       1.653  11.829  18.941  0.00  0.00    +0.000 A 
ATOM     12  C   UNL     1       0.723  10.762  18.908  0.00  0.00    +0.000 A 
BRANCH   7  14
ATOM     13  C   UNL     1      -2.223   9.963  17.229  0.00  0.00    +0.000 C 
ATOM     14  O   UNL     1      -1.542  10.081  18.476  0.00  0.00    +0.000 OA
ENDBRANCH   7  14
ENDBRANCH   1  12
BRANCH   4  15
ATOM     15  C   UNL     1       2.996   5.475  20.162  0.00  0.00    +0.000 C 
ATOM     16  C   UNL     1       2.125   4.646  21.120  0.00  0.00    +0.000 C 
BRANCH  15  17
ATOM     17  C   UNL     1       3.510   4.693  18.922  0.00  0.00    +0.000 C 
BRANCH  17  18
ATOM     18  C   UNL     1       4.988   4.996  18.526  0.00  0.00    +0.000 C 
ATOM     19  O   UNL     1       5.768   5.475  19.357  0.00  0.00    +0.000 OA
ATOM     20  N   UNL     1       5.447   4.620  17.281  0.00  0.00    +0.000 N 
ATOM     21  C   UNL     1       6.875   4.628  17.000  0.00  0.00    +0.000 C 
ATOM     22  C   UNL     1       7.007   4.183  15.549  0.00  0.00    +0.000 C 
ATOM     23  C   UNL     1       5.705   4.669  14.941  0.00  0.00    +0.000 C 
ATOM     24  F   UNL     1       5.814   6.007  14.703  0.00  0.00    +0.000 F 
ATOM     25  C   UNL     1       4.680   4.442  16.051  0.00  0.00    +0.000 C 
ENDBRANCH  17  18
BRANCH  17  26
ATOM     26  N   UNL     1       3.413   3.213  19.091  0.00  0.00    +0.000 NA
ATOM     27  H   UNL     1       4.215   2.921  19.660  0.00  0.00    +0.000 HD
ATOM     28  H   UNL     1       3.602   2.778  18.187  0.00  0.00    +0.000 HD
ENDBRANCH  17  26
ENDBRANCH  15  17
ENDBRANCH   4  15
TORSDOF 6
ENDMDL
MODEL 8
REMARK VINA RESULT:      -7.7      3.925      8.024
REMARK  Name = 
REMARK  8 active torsions:
REMARK  status: ('A' for Active; 'I' for Inactive)
REMARK    1  A    between atoms: C_1  and  O_2
REMARK    2  A    between atoms: O_2  and  C_3
REMARK    3  A    between atoms: C_8  and  C_9
REMARK    4  A    between atoms: C_12  and  C_13
REMARK    5  A    between atoms: C_13  and  C_14
REMARK    6  A    between atoms: C_13  and  C_15
REMARK    7  A    between atoms: C_15  and  N_16
REMARK    8  A    between atoms: C_15  and  C_17
REMARK                            x       y       z     vdW  Elec       q    Type
REMARK                         _______ _______ _______ _____ _____    ______ ____
ROOT
ATOM      1  C   UNL     1       1.824   7.485  19.433  0.00  0.00    +0.000 A 
ATOM      2  C   UNL     1       1.938   6.660  20.562  0.00  0.00    +0.000 A 
ATOM      3  C   UNL     1       2.154   5.276  20.453  0.00  0.00    +0.000 A 
ATOM      4  C   UNL     1       2.286   4.660  19.202  0.00  0.00    +0.000 A 
ATOM      5  C   UNL     1       2.263   5.488  18.071  0.00  0.00    +0.000 A 
ATOM      6  C   UNL     1       2.038   6.866  18.187  0.00  0.00    +0.000 A 
ENDROOT
BRANCH   1  12
ATOM      7  C   UNL     1       0.715   9.503  20.581  0.00  0.00    +0.000 A 
ATOM      8  C   UNL     1       0.402  10.873  20.581  0.00  0.00    +0.000 A 
ATOM      9  C   UNL     1       0.755  11.686  19.511  0.00  0.00    +0.000 A 
ATOM     10  C   UNL     1       1.462  11.153  18.447  0.00  0.00    +0.000 A 
ATOM     11  C   UNL     1       1.830   9.805  18.465  0.00  0.00    +0.000 A 
ATOM     12  C   UNL     1       1.468   8.935  19.522  0.00  0.00    +0.000 A 
BRANCH   7  14
ATOM     13  C   UNL     1      -0.298   9.358  22.718  0.00  0.00    +0.000 C 
ATOM     14  O   UNL     1       0.319   8.689  21.620  0.00  0.00    +0.000 OA
ENDBRANCH   7  14
ENDBRANCH   1  12
BRANCH   4  15
ATOM     15  C   UNL     1       2.389   3.134  19.089  0.00  0.00    +0.000 C 
ATOM     16  C   UNL     1       1.027   2.539  18.696  0.00  0.00    +0.000 C 
BRANCH  15  17
ATOM     17  C   UNL     1       3.577   2.657  18.208  0.00  0.00    +0.000 C 
BRANCH  17  18
ATOM     18  C   UNL     1       4.868   3.525  18.328  0.00  0.00    +0.000 C 
ATOM     19  O   UNL     1       5.421   3.665  19.425  0.00  0.00    +0.000 OA
ATOM     20  N   UNL     1       5.450   4.036  17.188  0.00  0.00    +0.000 N 
ATOM     21  C   UNL     1       6.793   4.594  17.245  0.00  0.00    +0.000 C 
ATOM     22  C   UNL     1       7.095   5.072  15.830  0.00  0.00    +0.000 C 
ATOM     23  C   UNL     1       5.717   5.426  15.306  0.00  0.00    +0.000 C 
ATOM     24  F   UNL     1       5.364   6.643  15.809  0.00  0.00    +0.000 F 
ATOM     25  C   UNL     1       4.813   4.355  15.913  0.00  0.00    +0.000 C 
ENDBRANCH  17  18
BRANCH  17  26
ATOM     26  N   UNL     1       3.984   1.252  18.499  0.00  0.00    +0.000 NA
ATOM     27  H   UNL     1       4.156   1.189  19.508  0.00  0.00    +0.000 HD
ATOM     28  H   UNL     1       4.911   1.101  18.099  0.00  0.00    +0.000 HD
ENDBRANCH  17  26
ENDBRANCH  15  17
ENDBRANCH   4  15
TORSDOF 6
ENDMDL
MODEL 9
REMARK VINA RESULT:      -7.7      3.538      8.438
REMARK  Name = 
REMARK  8 active torsions:
REMARK  status: ('A' for Active; 'I' for Inactive)
REMARK    1  A    between atoms: C_1  and  O_2
REMARK    2  A    between atoms: O_2  and  C_3
REMARK    3  A    between atoms: C_8  and  C_9
REMARK    4  A    between atoms: C_12  and  C_13
REMARK    5  A    between atoms: C_13  and  C_14
REMARK    6  A    between atoms: C_13  and  C_15
REMARK    7  A    between atoms: C_15  and  N_16
REMARK    8  A    between atoms: C_15  and  C_17
REMARK                            x       y       z     vdW  Elec       q    Type
REMARK                         _______ _______ _______ _____ _____    ______ ____
ROOT
ATOM      1  C   UNL     1       1.006   9.385  19.750  0.00  0.00    +0.000 A 
ATOM      2  C   UNL     1       1.094   8.468  20.809  0.00  0.00    +0.000 A 
ATOM      3  C   UNL     1       1.725   7.221  20.661  0.00  0.00    +0.000 A 
ATOM      4  C   UNL     1       2.315   6.847  19.447  0.00  0.00    +0.000 A 
ATOM      5  C   UNL     1       2.312   7.792  18.412  0.00  0.00    +0.000 A 
ATOM      6  C   UNL     1       1.672   9.030  18.563  0.00  0.00    +0.000 A 
ENDROOT
BRANCH   1  12
ATOM      7  C   UNL     1      -0.153  11.265  21.070  0.00  0.00    +0.000 A 
ATOM      8  C   UNL     1      -0.901  12.455  21.077  0.00  0.00    +0.000 A 
ATOM      9  C   UNL     1      -1.347  13.024  19.891  0.00  0.00    +0.000 A 
ATOM     10  C   UNL     1      -1.016  12.438  18.680  0.00  0.00    +0.000 A 
ATOM     11  C   UNL     1      -0.222  11.289  18.661  0.00  0.00    +0.000 A 
ATOM     12  C   UNL     1       0.230  10.660  19.846  0.00  0.00    +0.000 A 
BRANCH   7  14
ATOM     13  C   UNL     1      -0.808  10.358  23.159  0.00  0.00    +0.000 C 
ATOM     14  O   UNL     1       0.244  10.675  22.251  0.00  0.00    +0.000 OA
ENDBRANCH   7  14
ENDBRANCH   1  12
BRANCH   4  15
ATOM     15  C   UNL     1       2.883   5.435  19.256  0.00  0.00    +0.000 C 
ATOM     16  C   UNL     1       2.352   4.498  20.353  0.00  0.00    +0.000 C 
BRANCH  15  17
ATOM     17  C   UNL     1       2.717   4.891  17.811  0.00  0.00    +0.000 C 
BRANCH  17  18
ATOM     18  C   UNL     1       3.886   3.986  17.315  0.00  0.00    +0.000 C 
ATOM     19  O   UNL     1       3.825   2.759  17.456  0.00  0.00    +0.000 OA
ATOM     20  N   UNL     1       4.932   4.551  16.616  0.00  0.00    +0.000 N 
ATOM     21  C   UNL     1       5.873   3.701  15.902  0.00  0.00    +0.000 C 
ATOM     22  C   UNL     1       6.886   4.651  15.275  0.00  0.00    +0.000 C 
ATOM     23  C   UNL     1       6.886   5.813  16.250  0.00  0.00    +0.000 C 
ATOM     24  F   UNL     1       7.643   5.470  17.330  0.00  0.00    +0.000 F 
ATOM     25  C   UNL     1       5.425   5.924  16.681  0.00  0.00    +0.000 C 
ENDBRANCH  17  18
BRANCH  17  26
ATOM     26  N   UNL     1       1.465   4.099  17.632  0.00  0.00    +0.000 NA
ATOM     27  H   UNL     1       0.700   4.646  18.041  0.00  0.00    +0.000 HD
ATOM     28  H   UNL     1       1.516   3.283  18.244  0.00  0.00    +0.000 HD
ENDBRANCH  17  26
ENDBRANCH  15  17
ENDBRANCH   4  15
TORSDOF 6
ENDMDL
