MODEL 1
REMARK VINA RESULT:      -8.0      0.000      0.000
REMARK  Name = 
REMARK  8 active torsions:
REMARK  status: ('A' for Active; 'I' for Inactive)
REMARK    1  A    between atoms: C_1  and  C_2
REMARK    2  A    between atoms: C_2  and  C_3
REMARK    3  A    between atoms: C_3  and  C_4
REMARK    4  A    between atoms: C_4  and  C_5
REMARK    5  A    between atoms: C_5  and  C_6
REMARK    6  A    between atoms: C_6  and  N_7
REMARK    7  A    between atoms: N_11  and  N_12
REMARK    8  A    between atoms: C_13  and  C_15
REMARK                            x       y       z     vdW  Elec       q    Type
REMARK                         _______ _______ _______ _____ _____    ______ ____
ROOT
ATOM      1  N   UNL     1       3.833   5.777  17.811  0.00  0.00    +0.000 N 
ATOM      2  C   UNL     1       3.169   6.944  18.170  0.00  0.00    +0.000 C 
ATOM      3  O   UNL     1       3.123   8.030  17.628  0.00  0.00    +0.000 OA
ATOM      4  C   UNL     1       2.455   6.619  19.483  0.00  0.00    +0.000 C 
ATOM      5  N   UNL     1       1.718   7.384  20.222  0.00  0.00    +0.000 NA
ATOM      6  C   UNL     1       2.777   5.233  19.789  0.00  0.00    +0.000 A 
ATOM      7  C   UNL     1       2.407   4.458  20.870  0.00  0.00    +0.000 A 
ATOM      8  C   UNL     1       2.897   3.157  20.898  0.00  0.00    +0.000 A 
ATOM      9  F   UNL     1       2.584   2.359  21.923  0.00  0.00    +0.000 F 
ATOM     10  C   UNL     1       3.726   2.664  19.880  0.00  0.00    +0.000 A 
ATOM     11  C   UNL     1       4.099   3.476  18.804  0.00  0.00    +0.000 A 
ATOM     12  C   UNL     1       3.609   4.770  18.769  0.00  0.00    +0.000 A 
ENDROOT
BRANCH   5  13
ATOM     13  N   UNL     1       1.510   8.669  19.803  0.00  0.00    +0.000 N 
ATOM     14  C   UNL     1       0.479   9.406  20.370  0.00  0.00    +0.000 C 
ATOM     15  O   UNL     1      -0.274   8.993  21.251  0.00  0.00    +0.000 OA
ATOM     16  H   UNL     1       2.061   9.023  19.022  0.00  0.00    +0.000 HD
BRANCH  14  17
ATOM     17  C   UNL     1       0.267  10.778  19.824  0.00  0.00    +0.000 A 
ATOM     18  C   UNL     1      -0.799  10.975  18.933  0.00  0.00    +0.000 A 
ATOM     19  C   UNL     1      -1.034  12.232  18.372  0.00  0.00    +0.000 A 
ATOM     20  C   UNL     1      -0.212  13.305  18.708  0.00  0.00    +0.000 A 
ATOM     21  C   UNL     1       0.836  13.127  19.612  0.00  0.00    +0.000 A 
ATOM     22  C   UNL     1       1.076  11.869  20.174  0.00  0.00    +0.000 A 
ENDBRANCH  14  17
ENDBRANCH   5  13
BRANCH   1  23
ATOM     23  C   UNL     1       4.713   5.653  16.669  0.00  0.00    +0.000 C 
BRANCH  23  24
ATOM     24  C   UNL     1       5.981   6.507  16.746  0.00  0.00    +0.000 C 
BRANCH  24  25
ATOM     25  C   UNL     1       7.081   5.870  17.593  0.00  0.00    +0.000 C 
BRANCH  25  26
ATOM     26  C   UNL     1       7.891   6.950  18.310  0.00  0.00    +0.000 C 
BRANCH  26  28
ATOM     27  C   UNL     1       8.560   9.370  18.332  0.00  0.00    +0.000 C 
ATOM     28  C   UNL     1       7.778   8.295  17.597  0.00  0.00    +0.000 C 
ENDBRANCH  26  28
ENDBRANCH  25  26
ENDBRANCH  24  25
ENDBRANCH  23  24
ENDBRANCH   1  23
TORSDOF 7
ENDMDL
MODEL 2
REMARK VINA RESULT:      -7.9      2.832      7.936
REMARK  Name = 
REMARK  8 active torsions:
REMARK  status: ('A' for Active; 'I' for Inactive)
REMARK    1  A    between atoms: C_1  and  C_2
REMARK    2  A    between atoms: C_2  and  C_3
REMARK    3  A    between atoms: C_3  and  C_4
REMARK    4  A    between atoms: C_4  and  C_5
REMARK    5  A    between atoms: C_5  and  C_6
REMARK    6  A    between atoms: C_6  and  N_7
REMARK    7  A    between atoms: N_11  and  N_12
REMARK    8  A    between atoms: C_13  and  C_15
REMARK                            x       y       z     vdW  Elec       q    Type
REMARK                         _______ _______ _______ _____ _____    ______ ____
ROOT
ATOM      1  N   UNL     1       0.284  10.404  19.012  0.00  0.00    +0.000 N 
ATOM      2  C   UNL     1       1.141   9.420  18.535  0.00  0.00    +0.000 C 
ATOM      3  O   UNL     1       1.532   9.185  17.409  0.00  0.00    +0.000 OA
ATOM      4  C   UNL     1       1.534   8.593  19.760  0.00  0.00    +0.000 C 
ATOM      5  N   UNL     1       2.303   7.555  19.831  0.00  0.00    +0.000 NA
ATOM      6  C   UNL     1       0.844   9.191  20.893  0.00  0.00    +0.000 A 
ATOM      7  C   UNL     1       0.839   8.817  22.222  0.00  0.00    +0.000 A 
ATOM      8  C   UNL     1       0.053   9.581  23.079  0.00  0.00    +0.000 A 
ATOM      9  F   UNL     1      -0.004   9.264  24.376  0.00  0.00    +0.000 F 
ATOM     10  C   UNL     1      -0.694  10.673  22.612  0.00  0.00    +0.000 A 
ATOM     11  C   UNL     1      -0.682  11.020  21.257  0.00  0.00    +0.000 A 
ATOM     12  C   UNL     1       0.102  10.267  20.401  0.00  0.00    +0.000 A 
ENDROOT
BRANCH   5  13
ATOM     13  N   UNL     1       2.877   7.104  18.675  0.00  0.00    +0.000 N 
ATOM     14  C   UNL     1       3.709   5.994  18.721  0.00  0.00    +0.000 C 
ATOM     15  O   UNL     1       3.969   5.356  19.741  0.00  0.00    +0.000 OA
ATOM     16  H   UNL     1       2.750   7.649  17.822  0.00  0.00    +0.000 HD
BRANCH  14  17
ATOM     17  C   UNL     1       4.353   5.594  17.436  0.00  0.00    +0.000 A 
ATOM     18  C   UNL     1       4.779   6.611  16.569  0.00  0.00    +0.000 A 
ATOM     19  C   UNL     1       5.368   6.298  15.342  0.00  0.00    +0.000 A 
ATOM     20  C   UNL     1       5.547   4.965  14.979  0.00  0.00    +0.000 A 
ATOM     21  C   UNL     1       5.150   3.946  15.845  0.00  0.00    +0.000 A 
ATOM     22  C   UNL     1       4.557   4.255  17.073  0.00  0.00    +0.000 A 
ENDBRANCH  14  17
ENDBRANCH   5  13
BRANCH   1  23
ATOM     23  C   UNL     1      -0.403  11.367  18.178  0.00  0.00    +0.000 C 
BRANCH  23  24
ATOM     24  C   UNL     1      -1.880  11.052  17.927  0.00  0.00    +0.000 C 
BRANCH  24  25
ATOM     25  C   UNL     1      -2.093  10.039  16.804  0.00  0.00    +0.000 C 
BRANCH  25  26
ATOM     26  C   UNL     1      -3.078  10.589  15.772  0.00  0.00    +0.000 C 
BRANCH  26  28
ATOM     27  C   UNL     1      -4.134   9.964  13.581  0.00  0.00    +0.000 C 
ATOM     28  C   UNL     1      -2.854   9.960  14.400  0.00  0.00    +0.000 C 
ENDBRANCH  26  28
ENDBRANCH  25  26
ENDBRANCH  24  25
ENDBRANCH  23  24
ENDBRANCH   1  23
TORSDOF 7
ENDMDL
MODEL 3
REMARK VINA RESULT:      -7.9      1.303      2.183
REMARK  Name = 
REMARK  8 active torsions:
REMARK  status: ('A' for Active; 'I' for Inactive)
REMARK    1  A    between atoms: C_1  and  C_2
REMARK    2  A    between atoms: C_2  and  C_3
REMARK    3  A    between atoms: C_3  and  C_4
REMARK    4  A    between atoms: C_4  and  C_5
REMARK    5  A    between atoms: C_5  and  C_6
REMARK    6  A    between atoms: C_6  and  N_7
REMARK    7  A    between atoms: N_11  and  N_12
REMARK    8  A    between atoms: C_13  and  C_15
REMARK                            x       y       z     vdW  Elec       q    Type
REMARK                         _______ _______ _______ _____ _____    ______ ____
ROOT
ATOM      1  N   UNL     1       3.708   5.721  17.958  0.00  0.00    +0.000 N 
ATOM      2  C   UNL     1       3.094   6.908  18.339  0.00  0.00    +0.000 C 
ATOM      3  O   UNL     1       3.091   8.004  17.816  0.00  0.00    +0.000 OA
ATOM      4  C   UNL     1       2.372   6.590  19.649  0.00  0.00    +0.000 C 
ATOM      5  N   UNL     1       1.669   7.372  20.404  0.00  0.00    +0.000 NA
ATOM      6  C   UNL     1       2.638   5.187  19.931  0.00  0.00    +0.000 A 
ATOM      7  C   UNL     1       2.240   4.409  21.000  0.00  0.00    +0.000 A 
ATOM      8  C   UNL     1       2.676   3.089  21.004  0.00  0.00    +0.000 A 
ATOM      9  F   UNL     1       2.334   2.287  22.017  0.00  0.00    +0.000 F 
ATOM     10  C   UNL     1       3.481   2.579  19.975  0.00  0.00    +0.000 A 
ATOM     11  C   UNL     1       3.883   3.394  18.910  0.00  0.00    +0.000 A 
ATOM     12  C   UNL     1       3.447   4.707  18.899  0.00  0.00    +0.000 A 
ENDROOT
BRANCH   5  13
ATOM     13  N   UNL     1       1.513   8.671  20.009  0.00  0.00    +0.000 N 
ATOM     14  C   UNL     1       0.436   9.400  20.493  0.00  0.00    +0.000 C 
ATOM     15  O   UNL     1      -0.405   8.968  21.280  0.00  0.00    +0.000 OA
ATOM     16  H   UNL     1       2.142   9.044  19.297  0.00  0.00    +0.000 HD
BRANCH  14  17
ATOM     17  C   UNL     1       0.289  10.791  19.972  0.00  0.00    +0.000 A 
ATOM     18  C   UNL     1      -0.710  11.034  19.018  0.00  0.00    +0.000 A 
ATOM     19  C   UNL     1      -0.881  12.311  18.478  0.00  0.00    +0.000 A 
ATOM     20  C   UNL     1      -0.063  13.357  18.898  0.00  0.00    +0.000 A 
ATOM     21  C   UNL     1       0.918  13.131  19.865  0.00  0.00    +0.000 A 
ATOM     22  C   UNL     1       1.094  11.853  20.406  0.00  0.00    +0.000 A 
ENDBRANCH  14  17
ENDBRANCH   5  13
BRANCH   1  23
ATOM     23  C   UNL     1       4.579   5.580  16.810  0.00  0.00    +0.000 C 
BRANCH  23  24
ATOM     24  C   UNL     1       6.074   5.645  17.133  0.00  0.00    +0.000 C 
BRANCH  24  25
ATOM     25  C   UNL     1       6.891   4.586  16.397  0.00  0.00    +0.000 C 
BRANCH  25  26
ATOM     26  C   UNL     1       6.065   3.963  15.272  0.00  0.00    +0.000 C 
BRANCH  26  28
ATOM     27  C   UNL     1       5.989   3.502  12.805  0.00  0.00    +0.000 C 
ATOM     28  C   UNL     1       6.616   4.347  13.901  0.00  0.00    +0.000 C 
ENDBRANCH  26  28
ENDBRANCH  25  26
ENDBRANCH  24  25
ENDBRANCH  23  24
ENDBRANCH   1  23
TORSDOF 7
ENDMDL
MODEL 4
REMARK VINA RESULT:      -7.9      2.783      7.891
REMARK  Name = 
REMARK  8 active torsions:
REMARK  status: ('A' for Active; 'I' for Inactive)
REMARK    1  A    between atoms: C_1  and  C_2
REMARK    2  A    between atoms: C_2  and  C_3
REMARK    3  A    between atoms: C_3  and  C_4
REMARK    4  A    between atoms: C_4  and  C_5
REMARK    5  A    between atoms: C_5  and  C_6
REMARK    6  A    between atoms: C_6  and  N_7
REMARK    7  A    between atoms: N_11  and  N_12
REMARK    8  A    between atoms: C_13  and  C_15
REMARK                            x       y       z     vdW  Elec       q    Type
REMARK                         _______ _______ _______ _____ _____    ______ ____
ROOT
ATOM      1  N   UNL     1       0.379  10.429  18.998  0.00  0.00    +0.000 N 
ATOM      2  C   UNL     1       1.187   9.412  18.505  0.00  0.00    +0.000 C 
ATOM      3  O   UNL     1       1.564   9.175  17.375  0.00  0.00    +0.000 OA
ATOM      4  C   UNL     1       1.542   8.550  19.718  0.00  0.00    +0.000 C 
ATOM      5  N   UNL     1       2.261   7.475  19.772  0.00  0.00    +0.000 NA
ATOM      6  C   UNL     1       0.884   9.165  20.861  0.00  0.00    +0.000 A 
ATOM      7  C   UNL     1       0.863   8.772  22.184  0.00  0.00    +0.000 A 
ATOM      8  C   UNL     1       0.116   9.561  23.054  0.00  0.00    +0.000 A 
ATOM      9  F   UNL     1       0.046   9.229  24.346  0.00  0.00    +0.000 F 
ATOM     10  C   UNL     1      -0.579  10.693  22.604  0.00  0.00    +0.000 A 
ATOM     11  C   UNL     1      -0.552  11.059  21.254  0.00  0.00    +0.000 A 
ATOM     12  C   UNL     1       0.193  10.281  20.386  0.00  0.00    +0.000 A 
ENDROOT
BRANCH   5  13
ATOM     13  N   UNL     1       2.810   7.015  18.609  0.00  0.00    +0.000 N 
ATOM     14  C   UNL     1       3.812   6.055  18.668  0.00  0.00    +0.000 C 
ATOM     15  O   UNL     1       4.247   5.561  19.707  0.00  0.00    +0.000 OA
ATOM     16  H   UNL     1       2.533   7.453  17.731  0.00  0.00    +0.000 HD
BRANCH  14  17
ATOM     17  C   UNL     1       4.412   5.642  17.365  0.00  0.00    +0.000 A 
ATOM     18  C   UNL     1       4.439   4.273  17.057  0.00  0.00    +0.000 A 
ATOM     19  C   UNL     1       5.007   3.825  15.863  0.00  0.00    +0.000 A 
ATOM     20  C   UNL     1       5.542   4.743  14.962  0.00  0.00    +0.000 A 
ATOM     21  C   UNL     1       5.497   6.108  15.247  0.00  0.00    +0.000 A 
ATOM     22  C   UNL     1       4.931   6.561  16.443  0.00  0.00    +0.000 A 
ENDBRANCH  14  17
ENDBRANCH   5  13
BRANCH   1  23
ATOM     23  C   UNL     1      -0.263  11.436  18.180  0.00  0.00    +0.000 C 
BRANCH  23  24
ATOM     24  C   UNL     1      -1.792  11.363  18.162  0.00  0.00    +0.000 C 
BRANCH  24  25
ATOM     25  C   UNL     1      -2.321  10.000  17.719  0.00  0.00    +0.000 C 
BRANCH  25  26
ATOM     26  C   UNL     1      -3.369  10.170  16.620  0.00  0.00    +0.000 C 
BRANCH  26  28
ATOM     27  C   UNL     1      -3.626  10.100  14.123  0.00  0.00    +0.000 C 
ATOM     28  C   UNL     1      -2.719  10.493  15.277  0.00  0.00    +0.000 C 
ENDBRANCH  26  28
ENDBRANCH  25  26
ENDBRANCH  24  25
ENDBRANCH  23  24
ENDBRANCH   1  23
TORSDOF 7
ENDMDL
MODEL 5
REMARK VINA RESULT:      -7.7      2.712      4.741
REMARK  Name = 
REMARK  8 active torsions:
REMARK  status: ('A' for Active; 'I' for Inactive)
REMARK    1  A    between atoms: C_1  and  C_2
REMARK    2  A    between atoms: C_2  and  C_3
REMARK    3  A    between atoms: C_3  and  C_4
REMARK    4  A    between atoms: C_4  and  C_5
REMARK    5  A    between atoms: C_5  and  C_6
REMARK    6  A    between atoms: C_6  and  N_7
REMARK    7  A    between atoms: N_11  and  N_12
REMARK    8  A    between atoms: C_13  and  C_15
REMARK                            x       y       z     vdW  Elec       q    Type
REMARK                         _______ _______ _______ _____ _____    ______ ____
ROOT
ATOM      1  N   UNL     1       2.674   6.006  19.854  0.00  0.00    +0.000 N 
ATOM      2  C   UNL     1       2.033   7.237  19.931  0.00  0.00    +0.000 C 
ATOM      3  O   UNL     1       1.266   7.682  20.760  0.00  0.00    +0.000 OA
ATOM      4  C   UNL     1       2.474   8.004  18.683  0.00  0.00    +0.000 C 
ATOM      5  N   UNL     1       2.137   9.191  18.293  0.00  0.00    +0.000 NA
ATOM      6  C   UNL     1       3.371   7.118  17.956  0.00  0.00    +0.000 A 
ATOM      7  C   UNL     1       4.026   7.313  16.757  0.00  0.00    +0.000 A 
ATOM      8  C   UNL     1       4.807   6.259  16.296  0.00  0.00    +0.000 A 
ATOM      9  F   UNL     1       5.459   6.381  15.136  0.00  0.00    +0.000 F 
ATOM     10  C   UNL     1       4.919   5.060  17.017  0.00  0.00    +0.000 A 
ATOM     11  C   UNL     1       4.232   4.883  18.223  0.00  0.00    +0.000 A 
ATOM     12  C   UNL     1       3.457   5.931  18.687  0.00  0.00    +0.000 A 
ENDROOT
BRANCH   5  13
ATOM     13  N   UNL     1       1.277   9.902  19.083  0.00  0.00    +0.000 N 
ATOM     14  C   UNL     1      -0.013  10.144  18.632  0.00  0.00    +0.000 C 
ATOM     15  O   UNL     1      -0.464   9.748  17.558  0.00  0.00    +0.000 OA
ATOM     16  H   UNL     1       1.634  10.315  19.945  0.00  0.00    +0.000 HD
BRANCH  14  17
ATOM     17  C   UNL     1      -0.879  10.980  19.514  0.00  0.00    +0.000 A 
ATOM     18  C   UNL     1      -0.560  11.044  20.879  0.00  0.00    +0.000 A 
ATOM     19  C   UNL     1      -1.345  11.793  21.757  0.00  0.00    +0.000 A 
ATOM     20  C   UNL     1      -2.449  12.494  21.276  0.00  0.00    +0.000 A 
ATOM     21  C   UNL     1      -2.760  12.457  19.916  0.00  0.00    +0.000 A 
ATOM     22  C   UNL     1      -1.977  11.706  19.033  0.00  0.00    +0.000 A 
ENDBRANCH  14  17
ENDBRANCH   5  13
BRANCH   1  23
ATOM     23  C   UNL     1       2.478   4.921  20.791  0.00  0.00    +0.000 C 
BRANCH  23  24
ATOM     24  C   UNL     1       1.182   4.131  20.589  0.00  0.00    +0.000 C 
BRANCH  24  25
ATOM     25  C   UNL     1       1.424   2.663  20.242  0.00  0.00    +0.000 C 
BRANCH  25  26
ATOM     26  C   UNL     1       0.996   2.380  18.803  0.00  0.00    +0.000 C 
BRANCH  26  28
ATOM     27  C   UNL     1       3.327   1.482  18.550  0.00  0.00    +0.000 C 
ATOM     28  C   UNL     1       2.205   2.254  17.879  0.00  0.00    +0.000 C 
ENDBRANCH  26  28
ENDBRANCH  25  26
ENDBRANCH  24  25
ENDBRANCH  23  24
ENDBRANCH   1  23
TORSDOF 7
ENDMDL
MODEL 6
REMARK VINA RESULT:      -7.7      2.584      4.651
REMARK  Name = 
REMARK  8 active torsions:
REMARK  status: ('A' for Active; 'I' for Inactive)
REMARK    1  A    between atoms: C_1  and  C_2
REMARK    2  A    between atoms: C_2  and  C_3
REMARK    3  A    between atoms: C_3  and  C_4
REMARK    4  A    between atoms: C_4  and  C_5
REMARK    5  A    between atoms: C_5  and  C_6
REMARK    6  A    between atoms: C_6  and  N_7
REMARK    7  A    between atoms: N_11  and  N_12
REMARK    8  A    between atoms: C_13  and  C_15
REMARK                            x       y       z     vdW  Elec       q    Type
REMARK                         _______ _______ _______ _____ _____    ______ ____
ROOT
ATOM      1  N   UNL     1       3.250   5.579  19.577  0.00  0.00    +0.000 N 
ATOM      2  C   UNL     1       2.461   6.708  19.394  0.00  0.00    +0.000 C 
ATOM      3  O   UNL     1       1.549   7.155  20.059  0.00  0.00    +0.000 OA
ATOM      4  C   UNL     1       2.957   7.345  18.095  0.00  0.00    +0.000 C 
ATOM      5  N   UNL     1       2.530   8.408  17.493  0.00  0.00    +0.000 NA
ATOM      6  C   UNL     1       4.038   6.498  17.613  0.00  0.00    +0.000 A 
ATOM      7  C   UNL     1       4.808   6.612  16.473  0.00  0.00    +0.000 A 
ATOM      8  C   UNL     1       5.762   5.621  16.266  0.00  0.00    +0.000 A 
ATOM      9  F   UNL     1       6.532   5.668  15.175  0.00  0.00    +0.000 F 
ATOM     10  C   UNL     1       5.927   4.562  17.171  0.00  0.00    +0.000 A 
ATOM     11  C   UNL     1       5.123   4.463  18.312  0.00  0.00    +0.000 A 
ATOM     12  C   UNL     1       4.175   5.449  18.524  0.00  0.00    +0.000 A 
ENDROOT
BRANCH   5  13
ATOM     13  N   UNL     1       1.500   9.098  18.068  0.00  0.00    +0.000 N 
ATOM     14  C   UNL     1       1.618  10.471  18.239  0.00  0.00    +0.000 C 
ATOM     15  O   UNL     1       2.592  11.138  17.895  0.00  0.00    +0.000 OA
ATOM     16  H   UNL     1       0.707   8.573  18.439  0.00  0.00    +0.000 HD
BRANCH  14  17
ATOM     17  C   UNL     1       0.484  11.152  18.930  0.00  0.00    +0.000 A 
ATOM     18  C   UNL     1       0.786  12.024  19.987  0.00  0.00    +0.000 A 
ATOM     19  C   UNL     1      -0.234  12.674  20.686  0.00  0.00    +0.000 A 
ATOM     20  C   UNL     1      -1.563  12.467  20.324  0.00  0.00    +0.000 A 
ATOM     21  C   UNL     1      -1.873  11.621  19.258  0.00  0.00    +0.000 A 
ATOM     22  C   UNL     1      -0.854  10.967  18.558  0.00  0.00    +0.000 A 
ENDBRANCH  14  17
ENDBRANCH   5  13
BRANCH   1  23
ATOM     23  C   UNL     1       3.072   4.619  20.645  0.00  0.00    +0.000 C 
BRANCH  23  24
ATOM     24  C   UNL     1       1.668   4.017  20.733  0.00  0.00    +0.000 C 
BRANCH  24  25
ATOM     25  C   UNL     1       1.564   2.642  20.076  0.00  0.00    +0.000 C 
BRANCH  25  26
ATOM     26  C   UNL     1       1.202   2.786  18.598  0.00  0.00    +0.000 C 
BRANCH  26  28
ATOM     27  C   UNL     1       3.345   1.481  18.498  0.00  0.00    +0.000 C 
ATOM     28  C   UNL     1       2.324   2.273  17.699  0.00  0.00    +0.000 C 
ENDBRANCH  26  28
ENDBRANCH  25  26
ENDBRANCH  24  25
ENDBRANCH  23  24
ENDBRANCH   1  23
TORSDOF 7
ENDMDL
MODEL 7
REMARK VINA RESULT:      -7.7      1.032      1.250
REMARK  Name = 
REMARK  8 active torsions:
REMARK  status: ('A' for Active; 'I' for Inactive)
REMARK    1  A    between atoms: C_1  and  C_2
REMARK    2  A    between atoms: C_2  and  C_3
REMARK    3  A    between atoms: C_3  and  C_4
REMARK    4  A    between atoms: C_4  and  C_5
REMARK    5  A    between atoms: C_5  and  C_6
REMARK    6  A    between atoms: C_6  and  N_7
REMARK    7  A    between atoms: N_11  and  N_12
REMARK    8  A    between atoms: C_13  and  C_15
REMARK                            x       y       z     vdW  Elec       q    Type
REMARK                         _______ _______ _______ _____ _____    ______ ____
ROOT
ATOM      1  N   UNL     1       3.585   5.412  18.069  0.00  0.00    +0.000 N 
ATOM      2  C   UNL     1       3.156   6.704  18.347  0.00  0.00    +0.000 C 
ATOM      3  O   UNL     1       3.417   7.761  17.808  0.00  0.00    +0.000 OA
ATOM      4  C   UNL     1       2.235   6.574  19.561  0.00  0.00    +0.000 C 
ATOM      5  N   UNL     1       1.600   7.499  20.206  0.00  0.00    +0.000 NA
ATOM      6  C   UNL     1       2.204   5.159  19.900  0.00  0.00    +0.000 A 
ATOM      7  C   UNL     1       1.544   4.510  20.923  0.00  0.00    +0.000 A 
ATOM      8  C   UNL     1       1.729   3.134  21.007  0.00  0.00    +0.000 A 
ATOM      9  F   UNL     1       1.126   2.448  21.983  0.00  0.00    +0.000 F 
ATOM     10  C   UNL     1       2.546   2.447  20.097  0.00  0.00    +0.000 A 
ATOM     11  C   UNL     1       3.216   3.132  19.078  0.00  0.00    +0.000 A 
ATOM     12  C   UNL     1       3.031   4.501  18.987  0.00  0.00    +0.000 A 
ENDROOT
BRANCH   5  13
ATOM     13  N   UNL     1       1.733   8.788  19.770  0.00  0.00    +0.000 N 
ATOM     14  C   UNL     1       0.697   9.686  19.991  0.00  0.00    +0.000 C 
ATOM     15  O   UNL     1      -0.351   9.416  20.574  0.00  0.00    +0.000 OA
ATOM     16  H   UNL     1       2.552   9.034  19.214  0.00  0.00    +0.000 HD
BRANCH  14  17
ATOM     17  C   UNL     1       0.880  11.059  19.434  0.00  0.00    +0.000 A 
ATOM     18  C   UNL     1       1.997  11.294  18.618  0.00  0.00    +0.000 A 
ATOM     19  C   UNL     1       2.232  12.564  18.085  0.00  0.00    +0.000 A 
ATOM     20  C   UNL     1       1.347  13.604  18.355  0.00  0.00    +0.000 A 
ATOM     21  C   UNL     1       0.220  13.374  19.146  0.00  0.00    +0.000 A 
ATOM     22  C   UNL     1      -0.018  12.105  19.683  0.00  0.00    +0.000 A 
ENDBRANCH  14  17
ENDBRANCH   5  13
BRANCH   1  23
ATOM     23  C   UNL     1       4.548   5.071  17.043  0.00  0.00    +0.000 C 
BRANCH  23  24
ATOM     24  C   UNL     1       5.920   4.647  17.573  0.00  0.00    +0.000 C 
BRANCH  24  25
ATOM     25  C   UNL     1       6.407   5.511  18.734  0.00  0.00    +0.000 C 
BRANCH  25  26
ATOM     26  C   UNL     1       7.709   6.218  18.361  0.00  0.00    +0.000 C 
BRANCH  26  28
ATOM     27  C   UNL     1       8.167   8.656  17.972  0.00  0.00    +0.000 C 
ATOM     28  C   UNL     1       7.449   7.420  17.457  0.00  0.00    +0.000 C 
ENDBRANCH  26  28
ENDBRANCH  25  26
ENDBRANCH  24  25
ENDBRANCH  23  24
ENDBRANCH   1  23
TORSDOF 7
ENDMDL
MODEL 8
REMARK VINA RESULT:      -7.7      2.450      4.497
REMARK  Name = 
REMARK  8 active torsions:
REMARK  status: ('A' for Active; 'I' for Inactive)
REMARK    1  A    between atoms: C_1  and  C_2
REMARK    2  A    between atoms: C_2  and  C_3
REMARK    3  A    between atoms: C_3  and  C_4
REMARK    4  A    between atoms: C_4  and  C_5
REMARK    5  A    between atoms: C_5  and  C_6
REMARK    6  A    between atoms: C_6  and  N_7
REMARK    7  A    between atoms: N_11  and  N_12
REMARK    8  A    between atoms: C_13  and  C_15
REMARK                            x       y       z     vdW  Elec       q    Type
REMARK                         _______ _______ _______ _____ _____    ______ ____
ROOT
ATOM      1  N   UNL     1       3.176   5.452  20.034  0.00  0.00    +0.000 N 
ATOM      2  C   UNL     1       2.350   6.510  19.675  0.00  0.00    +0.000 C 
ATOM      3  O   UNL     1       1.318   6.915  20.170  0.00  0.00    +0.000 OA
ATOM      4  C   UNL     1       2.997   7.128  18.434  0.00  0.00    +0.000 C 
ATOM      5  N   UNL     1       2.597   8.129  17.719  0.00  0.00    +0.000 NA
ATOM      6  C   UNL     1       4.194   6.345  18.166  0.00  0.00    +0.000 A 
ATOM      7  C   UNL     1       5.121   6.468  17.151  0.00  0.00    +0.000 A 
ATOM      8  C   UNL     1       6.161   5.544  17.144  0.00  0.00    +0.000 A 
ATOM      9  F   UNL     1       7.086   5.603  16.181  0.00  0.00    +0.000 F 
ATOM     10  C   UNL     1       6.256   4.540  18.118  0.00  0.00    +0.000 A 
ATOM     11  C   UNL     1       5.293   4.428  19.127  0.00  0.00    +0.000 A 
ATOM     12  C   UNL     1       4.260   5.348  19.141  0.00  0.00    +0.000 A 
ENDROOT
BRANCH   5  13
ATOM     13  N   UNL     1       1.446   8.763  18.095  0.00  0.00    +0.000 N 
ATOM     14  C   UNL     1       1.440  10.147  18.202  0.00  0.00    +0.000 C 
ATOM     15  O   UNL     1       2.407  10.871  17.968  0.00  0.00    +0.000 OA
ATOM     16  H   UNL     1       0.644   8.197  18.373  0.00  0.00    +0.000 HD
BRANCH  14  17
ATOM     17  C   UNL     1       0.170  10.770  18.677  0.00  0.00    +0.000 A 
ATOM     18  C   UNL     1      -1.028  10.371  18.066  0.00  0.00    +0.000 A 
ATOM     19  C   UNL     1      -2.246  10.934  18.453  0.00  0.00    +0.000 A 
ATOM     20  C   UNL     1      -2.276  11.893  19.463  0.00  0.00    +0.000 A 
ATOM     21  C   UNL     1      -1.093  12.279  20.095  0.00  0.00    +0.000 A 
ATOM     22  C   UNL     1       0.128  11.719  19.708  0.00  0.00    +0.000 A 
ENDBRANCH  14  17
ENDBRANCH   5  13
BRANCH   1  23
ATOM     23  C   UNL     1       2.901   4.526  21.112  0.00  0.00    +0.000 C 
BRANCH  23  24
ATOM     24  C   UNL     1       2.326   3.180  20.665  0.00  0.00    +0.000 C 
BRANCH  24  25
ATOM     25  C   UNL     1       0.936   3.300  20.043  0.00  0.00    +0.000 C 
BRANCH  25  26
ATOM     26  C   UNL     1       0.866   2.498  18.743  0.00  0.00    +0.000 C 
BRANCH  26  28
ATOM     27  C   UNL     1       2.515   3.242  17.002  0.00  0.00    +0.000 C 
ATOM     28  C   UNL     1       2.255   2.281  18.149  0.00  0.00    +0.000 C 
ENDBRANCH  26  28
ENDBRANCH  25  26
ENDBRANCH  24  25
ENDBRANCH  23  24
ENDBRANCH   1  23
TORSDOF 7
ENDMDL
MODEL 9
REMARK VINA RESULT:      -7.7      1.116      2.115
REMARK  Name = 
REMARK  8 active torsions:
REMARK  status: ('A' for Active; 'I' for Inactive)
REMARK    1  A    between atoms: C_1  and  C_2
REMARK    2  A    between atoms: C_2  and  C_3
REMARK    3  A    between atoms: C_3  and  C_4
REMARK    4  A    between atoms: C_4  and  C_5
REMARK    5  A    between atoms: C_5  and  C_6
REMARK    6  A    between atoms: C_6  and  N_7
REMARK    7  A    between atoms: N_11  and  N_12
REMARK    8  A    between atoms: C_13  and  C_15
REMARK                            x       y       z     vdW  Elec       q    Type
REMARK                         _______ _______ _______ _____ _____    ______ ____
ROOT
ATOM      1  N   UNL     1       3.660   5.970  18.075  0.00  0.00    +0.000 N 
ATOM      2  C   UNL     1       2.983   7.097  18.526  0.00  0.00    +0.000 C 
ATOM      3  O   UNL     1       2.919   8.221  18.070  0.00  0.00    +0.000 OA
ATOM      4  C   UNL     1       2.284   6.663  19.815  0.00  0.00    +0.000 C 
ATOM      5  N   UNL     1       1.542   7.359  20.615  0.00  0.00    +0.000 NA
ATOM      6  C   UNL     1       2.627   5.262  20.013  0.00  0.00    +0.000 A 
ATOM      7  C   UNL     1       2.275   4.402  21.033  0.00  0.00    +0.000 A 
ATOM      8  C   UNL     1       2.783   3.109  20.959  0.00  0.00    +0.000 A 
ATOM      9  F   UNL     1       2.488   2.230  21.921  0.00  0.00    +0.000 F 
ATOM     10  C   UNL     1       3.611   2.706  19.900  0.00  0.00    +0.000 A 
ATOM     11  C   UNL     1       3.964   3.604  18.886  0.00  0.00    +0.000 A 
ATOM     12  C   UNL     1       3.457   4.890  18.954  0.00  0.00    +0.000 A 
ENDROOT
BRANCH   5  13
ATOM     13  N   UNL     1       1.314   8.668  20.298  0.00  0.00    +0.000 N 
ATOM     14  C   UNL     1       0.221   9.319  20.855  0.00  0.00    +0.000 C 
ATOM     15  O   UNL     1      -0.572   8.805  21.643  0.00  0.00    +0.000 OA
ATOM     16  H   UNL     1       1.901   9.109  19.590  0.00  0.00    +0.000 HD
BRANCH  14  17
ATOM     17  C   UNL     1      -0.006  10.728  20.418  0.00  0.00    +0.000 A 
ATOM     18  C   UNL     1       0.998  11.670  20.688  0.00  0.00    +0.000 A 
ATOM     19  C   UNL     1       0.833  13.008  20.322  0.00  0.00    +0.000 A 
ATOM     20  C   UNL     1      -0.331  13.410  19.672  0.00  0.00    +0.000 A 
ATOM     21  C   UNL     1      -1.325  12.476  19.376  0.00  0.00    +0.000 A 
ATOM     22  C   UNL     1      -1.164  11.136  19.743  0.00  0.00    +0.000 A 
ENDBRANCH  14  17
ENDBRANCH   5  13
BRANCH   1  23
ATOM     23  C   UNL     1       4.532   5.946  16.921  0.00  0.00    +0.000 C 
BRANCH  23  24
ATOM     24  C   UNL     1       5.844   6.716  17.097  0.00  0.00    +0.000 C 
BRANCH  24  25
ATOM     25  C   UNL     1       7.081   5.856  16.849  0.00  0.00    +0.000 C 
BRANCH  25  26
ATOM     26  C   UNL     1       6.688   4.543  16.172  0.00  0.00    +0.000 C 
BRANCH  26  28
ATOM     27  C   UNL     1       5.897   3.992  13.853  0.00  0.00    +0.000 C 
ATOM     28  C   UNL     1       7.034   4.560  14.685  0.00  0.00    +0.000 C 
ENDBRANCH  26  28
ENDBRANCH  25  26
ENDBRANCH  24  25
ENDBRANCH  23  24
ENDBRANCH   1  23
TORSDOF 7
ENDMDL
