MODEL 1
REMARK VINA RESULT:      -6.8      0.000      0.000
REMARK  Name = 
REMARK  8 active torsions:
REMARK  status: ('A' for Active; 'I' for Inactive)
REMARK    1  A    between atoms: C_1  and  O_2
REMARK    2  A    between atoms: O_2  and  C_3
REMARK    3  A    between atoms: C_3  and  C_4
REMARK    4  A    between atoms: C_4  and  C_5
REMARK    5  A    between atoms: N_7  and  C_8
REMARK    6  A    between atoms: C_16  and  C_18
REMARK    7  A    between atoms: C_18  and  S_19
REMARK    8  A    between atoms: S_19  and  C_20
REMARK                            x       y       z     vdW  Elec       q    Type
REMARK                         _______ _______ _______ _____ _____    ______ ____
ROOT
ATOM      1  C   UNL     1       1.772   6.357  20.474  0.00  0.00    +0.000 A 
ATOM      2  C   UNL     1       1.303   5.037  20.461  0.00  0.00    +0.000 A 
ATOM      3  C   UNL     1       1.670   4.141  19.457  0.00  0.00    +0.000 A 
ATOM      4  C   UNL     1       2.526   4.561  18.445  0.00  0.00    +0.000 A 
ATOM      5  C   UNL     1       3.002   5.881  18.427  0.00  0.00    +0.000 A 
ATOM      6  C   UNL     1       2.611   6.781  19.432  0.00  0.00    +0.000 A 
ATOM      7  C   UNL     1       3.882   6.311  17.280  0.00  0.00    +0.000 C 
ATOM      8  N   UNL     1       4.809   5.268  16.835  0.00  0.00    +0.000 N 
ATOM      9  C   UNL     1       6.004   5.680  16.260  0.00  0.00    +0.000 C 
ATOM     10  O   UNL     1       6.275   6.873  16.103  0.00  0.00    +0.000 OA
ATOM     11  C   UNL     1       4.431   3.859  17.033  0.00  0.00    +0.000 C 
ATOM     12  C   UNL     1       2.946   3.647  17.331  0.00  0.00    +0.000 C 
ENDROOT
BRANCH   1  15
ATOM     13  C   UNL     1       0.888   8.536  21.261  0.00  0.00    +0.000 C 
ATOM     14  O   UNL     1       0.543   8.997  20.177  0.00  0.00    +0.000 OA
ATOM     15  N   UNL     1       1.416   7.271  21.484  0.00  0.00    +0.000 N 
ATOM     16  H   UNL     1       1.460   6.936  22.438  0.00  0.00    +0.000 HD
BRANCH  13  17
ATOM     17  C   UNL     1       0.735   9.374  22.503  0.00  0.00    +0.000 C 
BRANCH  17  18
ATOM     18  C   UNL     1       0.009  10.663  22.176  0.00  0.00    +0.000 C 
BRANCH  18  20
ATOM     19  C   UNL     1      -1.924  11.614  23.098  0.00  0.00    +0.000 C 
ATOM     20  O   UNL     1      -0.590  11.186  23.359  0.00  0.00    +0.000 OA
ENDBRANCH  18  20
ENDBRANCH  17  18
ENDBRANCH  13  17
ENDBRANCH   1  15
BRANCH   9  21
ATOM     21  C   UNL     1       6.998   4.619  15.801  0.00  0.00    +0.000 C 
BRANCH  21  22
ATOM     22  S   UNL     1       7.285   4.705  14.001  0.00  0.00    +0.000 S 
ATOM     23  C   UNL     1       5.892   3.703  13.418  0.00  0.00    +0.000 C 
ENDBRANCH  21  22
ENDBRANCH   9  21
TORSDOF 6
ENDMDL
MODEL 2
REMARK VINA RESULT:      -6.6      4.084      7.758
REMARK  Name = 
REMARK  8 active torsions:
REMARK  status: ('A' for Active; 'I' for Inactive)
REMARK    1  A    between atoms: C_1  and  O_2
REMARK    2  A    between atoms: O_2  and  C_3
REMARK    3  A    between atoms: C_3  and  C_4
REMARK    4  A    between atoms: C_4  and  C_5
REMARK    5  A    between atoms: N_7  and  C_8
REMARK    6  A    between atoms: C_16  and  C_18
REMARK    7  A    between atoms: C_18  and  S_19
REMARK    8  A    between atoms: S_19  and  C_20
REMARK                            x       y       z     vdW  Elec       q    Type
REMARK                         _______ _______ _______ _____ _____    ______ ____
ROOT
ATOM      1  C   UNL     1       2.295   6.662  19.941  0.00  0.00    +0.000 A 
ATOM      2  C   UNL     1       2.696   6.810  18.608  0.00  0.00    +0.000 A 
ATOM      3  C   UNL     1       2.424   7.972  17.886  0.00  0.00    +0.000 A 
ATOM      4  C   UNL     1       1.741   9.015  18.503  0.00  0.00    +0.000 A 
ATOM      5  C   UNL     1       1.318   8.890  19.835  0.00  0.00    +0.000 A 
ATOM      6  C   UNL     1       1.580   7.709  20.546  0.00  0.00    +0.000 A 
ATOM      7  C   UNL     1       0.532  10.023  20.447  0.00  0.00    +0.000 C 
ATOM      8  N   UNL     1       0.990  11.347  20.021  0.00  0.00    +0.000 N 
ATOM      9  C   UNL     1       0.794  12.404  20.900  0.00  0.00    +0.000 C 
ATOM     10  O   UNL     1       0.237  12.250  21.989  0.00  0.00    +0.000 OA
ATOM     11  C   UNL     1       1.637  11.478  18.704  0.00  0.00    +0.000 C 
ATOM     12  C   UNL     1       1.408  10.285  17.774  0.00  0.00    +0.000 C 
ENDROOT
BRANCH   1  15
ATOM     13  C   UNL     1       1.704   4.418  20.816  0.00  0.00    +0.000 C 
ATOM     14  O   UNL     1       0.643   4.262  20.219  0.00  0.00    +0.000 OA
ATOM     15  N   UNL     1       2.568   5.498  20.684  0.00  0.00    +0.000 N 
ATOM     16  H   UNL     1       3.501   5.410  21.066  0.00  0.00    +0.000 HD
BRANCH  13  17
ATOM     17  C   UNL     1       2.170   3.365  21.787  0.00  0.00    +0.000 C 
BRANCH  17  18
ATOM     18  C   UNL     1       3.037   2.347  21.075  0.00  0.00    +0.000 C 
BRANCH  18  20
ATOM     19  C   UNL     1       3.750   2.229  18.846  0.00  0.00    +0.000 C 
ATOM     20  O   UNL     1       3.785   2.993  20.047  0.00  0.00    +0.000 OA
ENDBRANCH  18  20
ENDBRANCH  17  18
ENDBRANCH  13  17
ENDBRANCH   1  15
BRANCH   9  21
ATOM     21  C   UNL     1       1.275  13.791  20.493  0.00  0.00    +0.000 C 
BRANCH  21  22
ATOM     22  S   UNL     1       2.998  14.083  21.018  0.00  0.00    +0.000 S 
ATOM     23  C   UNL     1       3.715  14.617  19.441  0.00  0.00    +0.000 C 
ENDBRANCH  21  22
ENDBRANCH   9  21
TORSDOF 6
ENDMDL
MODEL 3
REMARK VINA RESULT:      -6.5      4.260      8.839
REMARK  Name = 
REMARK  8 active torsions:
REMARK  status: ('A' for Active; 'I' for Inactive)
REMARK    1  A    between atoms: C_1  and  O_2
REMARK    2  A    between atoms: O_2  and  C_3
REMARK    3  A    between atoms: C_3  and  C_4
REMARK    4  A    between atoms: C_4  and  C_5
REMARK    5  A    between atoms: N_7  and  C_8
REMARK    6  A    between atoms: C_16  and  C_18
REMARK    7  A    between atoms: C_18  and  S_19
REMARK    8  A    between atoms: S_19  and  C_20
REMARK                            x       y       z     vdW  Elec       q    Type
REMARK                         _______ _______ _______ _____ _____    ______ ____
ROOT
ATOM      1  C   UNL     1       6.224   3.910  15.188  0.00  0.00    +0.000 A 
ATOM      2  C   UNL     1       7.340   4.260  15.957  0.00  0.00    +0.000 A 
ATOM      3  C   UNL     1       7.207   4.867  17.206  0.00  0.00    +0.000 A 
ATOM      4  C   UNL     1       5.936   5.128  17.707  0.00  0.00    +0.000 A 
ATOM      5  C   UNL     1       4.799   4.798  16.952  0.00  0.00    +0.000 A 
ATOM      6  C   UNL     1       4.946   4.205  15.688  0.00  0.00    +0.000 A 
ATOM      7  C   UNL     1       3.442   5.150  17.508  0.00  0.00    +0.000 C 
ATOM      8  N   UNL     1       3.345   4.979  18.959  0.00  0.00    +0.000 N 
ATOM      9  C   UNL     1       2.093   4.688  19.484  0.00  0.00    +0.000 C 
ATOM     10  O   UNL     1       1.091   4.598  18.770  0.00  0.00    +0.000 OA
ATOM     11  C   UNL     1       4.568   5.110  19.767  0.00  0.00    +0.000 C 
ATOM     12  C   UNL     1       5.729   5.790  19.038  0.00  0.00    +0.000 C 
ENDROOT
BRANCH   1  15
ATOM     13  C   UNL     1       6.864   3.895  12.792  0.00  0.00    +0.000 C 
ATOM     14  O   UNL     1       7.404   4.997  12.740  0.00  0.00    +0.000 OA
ATOM     15  N   UNL     1       6.342   3.291  13.929  0.00  0.00    +0.000 N 
ATOM     16  H   UNL     1       6.119   2.305  13.883  0.00  0.00    +0.000 HD
BRANCH  13  17
ATOM     17  C   UNL     1       6.740   3.072  11.537  0.00  0.00    +0.000 C 
BRANCH  17  18
ATOM     18  C   UNL     1       5.388   2.389  11.494  0.00  0.00    +0.000 C 
BRANCH  18  20
ATOM     19  C   UNL     1       3.541   3.504  10.581  0.00  0.00    +0.000 C 
ATOM     20  O   UNL     1       4.361   3.348  11.735  0.00  0.00    +0.000 OA
ENDBRANCH  18  20
ENDBRANCH  17  18
ENDBRANCH  13  17
ENDBRANCH   1  15
BRANCH   9  21
ATOM     21  C   UNL     1       1.961   4.488  20.989  0.00  0.00    +0.000 C 
BRANCH  21  22
ATOM     22  S   UNL     1       1.576   2.753  21.402  0.00  0.00    +0.000 S 
ATOM     23  C   UNL     1       2.167   1.938  19.895  0.00  0.00    +0.000 C 
ENDBRANCH  21  22
ENDBRANCH   9  21
TORSDOF 6
ENDMDL
MODEL 4
REMARK VINA RESULT:      -6.5      4.251      8.857
REMARK  Name = 
REMARK  8 active torsions:
REMARK  status: ('A' for Active; 'I' for Inactive)
REMARK    1  A    between atoms: C_1  and  O_2
REMARK    2  A    between atoms: O_2  and  C_3
REMARK    3  A    between atoms: C_3  and  C_4
REMARK    4  A    between atoms: C_4  and  C_5
REMARK    5  A    between atoms: N_7  and  C_8
REMARK    6  A    between atoms: C_16  and  C_18
REMARK    7  A    between atoms: C_18  and  S_19
REMARK    8  A    between atoms: S_19  and  C_20
REMARK                            x       y       z     vdW  Elec       q    Type
REMARK                         _______ _______ _______ _____ _____    ______ ____
ROOT
ATOM      1  C   UNL     1       2.501   7.454  19.270  0.00  0.00    +0.000 A 
ATOM      2  C   UNL     1       2.535   8.180  18.073  0.00  0.00    +0.000 A 
ATOM      3  C   UNL     1       1.733   9.303  17.875  0.00  0.00    +0.000 A 
ATOM      4  C   UNL     1       0.877   9.719  18.890  0.00  0.00    +0.000 A 
ATOM      5  C   UNL     1       0.814   9.003  20.096  0.00  0.00    +0.000 A 
ATOM      6  C   UNL     1       1.613   7.863  20.277  0.00  0.00    +0.000 A 
ATOM      7  C   UNL     1      -0.168   9.456  21.147  0.00  0.00    +0.000 C 
ATOM      8  N   UNL     1      -0.296  10.912  21.236  0.00  0.00    +0.000 N 
ATOM      9  C   UNL     1      -0.656  11.447  22.465  0.00  0.00    +0.000 C 
ATOM     10  O   UNL     1      -0.883  10.734  23.445  0.00  0.00    +0.000 OA
ATOM     11  C   UNL     1      -0.028  11.717  20.032  0.00  0.00    +0.000 C 
ATOM     12  C   UNL     1      -0.020  10.912  18.731  0.00  0.00    +0.000 C 
ENDROOT
BRANCH   1  15
ATOM     13  C   UNL     1       3.020   5.040  19.038  0.00  0.00    +0.000 C 
ATOM     14  O   UNL     1       2.095   4.724  18.295  0.00  0.00    +0.000 OA
ATOM     15  N   UNL     1       3.310   6.322  19.486  0.00  0.00    +0.000 N 
ATOM     16  H   UNL     1       4.212   6.483  19.916  0.00  0.00    +0.000 HD
BRANCH  13  17
ATOM     17  C   UNL     1       3.969   3.979  19.531  0.00  0.00    +0.000 C 
BRANCH  17  18
ATOM     18  C   UNL     1       5.335   4.171  18.905  0.00  0.00    +0.000 C 
BRANCH  18  20
ATOM     19  C   UNL     1       7.136   5.669  18.962  0.00  0.00    +0.000 C 
ATOM     20  O   UNL     1       6.122   5.028  19.729  0.00  0.00    +0.000 OA
ENDBRANCH  18  20
ENDBRANCH  17  18
ENDBRANCH  13  17
ENDBRANCH   1  15
BRANCH   9  21
ATOM     21  C   UNL     1      -0.783  12.961  22.595  0.00  0.00    +0.000 C 
BRANCH  21  22
ATOM     22  S   UNL     1      -2.499  13.460  22.958  0.00  0.00    +0.000 S 
ATOM     23  C   UNL     1      -2.565  15.027  22.048  0.00  0.00    +0.000 C 
ENDBRANCH  21  22
ENDBRANCH   9  21
TORSDOF 6
ENDMDL
MODEL 5
REMARK VINA RESULT:      -6.4      3.414      8.588
REMARK  Name = 
REMARK  8 active torsions:
REMARK  status: ('A' for Active; 'I' for Inactive)
REMARK    1  A    between atoms: C_1  and  O_2
REMARK    2  A    between atoms: O_2  and  C_3
REMARK    3  A    between atoms: C_3  and  C_4
REMARK    4  A    between atoms: C_4  and  C_5
REMARK    5  A    between atoms: N_7  and  C_8
REMARK    6  A    between atoms: C_16  and  C_18
REMARK    7  A    between atoms: C_18  and  S_19
REMARK    8  A    between atoms: S_19  and  C_20
REMARK                            x       y       z     vdW  Elec       q    Type
REMARK                         _______ _______ _______ _____ _____    ______ ____
ROOT
ATOM      1  C   UNL     1       5.030   4.506  15.859  0.00  0.00    +0.000 A 
ATOM      2  C   UNL     1       4.881   3.588  16.907  0.00  0.00    +0.000 A 
ATOM      3  C   UNL     1       4.385   3.973  18.152  0.00  0.00    +0.000 A 
ATOM      4  C   UNL     1       4.023   5.300  18.363  0.00  0.00    +0.000 A 
ATOM      5  C   UNL     1       4.171   6.243  17.335  0.00  0.00    +0.000 A 
ATOM      6  C   UNL     1       4.690   5.848  16.091  0.00  0.00    +0.000 A 
ATOM      7  C   UNL     1       3.820   7.681  17.624  0.00  0.00    +0.000 C 
ATOM      8  N   UNL     1       2.651   7.831  18.494  0.00  0.00    +0.000 N 
ATOM      9  C   UNL     1       1.896   8.988  18.355  0.00  0.00    +0.000 C 
ATOM     10  O   UNL     1       2.200   9.871  17.550  0.00  0.00    +0.000 OA
ATOM     11  C   UNL     1       2.341   6.753  19.448  0.00  0.00    +0.000 C 
ATOM     12  C   UNL     1       3.495   5.777  19.685  0.00  0.00    +0.000 C 
ENDROOT
BRANCH   1  15
ATOM     13  C   UNL     1       6.746   4.526  14.070  0.00  0.00    +0.000 C 
ATOM     14  O   UNL     1       7.622   5.151  14.662  0.00  0.00    +0.000 OA
ATOM     15  N   UNL     1       5.523   4.131  14.595  0.00  0.00    +0.000 N 
ATOM     16  H   UNL     1       4.983   3.446  14.081  0.00  0.00    +0.000 HD
BRANCH  13  17
ATOM     17  C   UNL     1       6.971   4.113  12.639  0.00  0.00    +0.000 C 
BRANCH  17  18
ATOM     18  C   UNL     1       5.885   3.153  12.198  0.00  0.00    +0.000 C 
BRANCH  18  20
ATOM     19  C   UNL     1       3.795   3.000  11.149  0.00  0.00    +0.000 C 
ATOM     20  O   UNL     1       4.805   3.885  11.624  0.00  0.00    +0.000 OA
ENDBRANCH  18  20
ENDBRANCH  17  18
ENDBRANCH  13  17
ENDBRANCH   1  15
BRANCH   9  21
ATOM     21  C   UNL     1       0.665   9.166  19.235  0.00  0.00    +0.000 C 
BRANCH  21  22
ATOM     22  S   UNL     1      -0.125  10.788  18.959  0.00  0.00    +0.000 S 
ATOM     23  C   UNL     1       0.668  11.747  20.276  0.00  0.00    +0.000 C 
ENDBRANCH  21  22
ENDBRANCH   9  21
TORSDOF 6
ENDMDL
MODEL 6
REMARK VINA RESULT:      -6.4      3.261      4.428
REMARK  Name = 
REMARK  8 active torsions:
REMARK  status: ('A' for Active; 'I' for Inactive)
REMARK    1  A    between atoms: C_1  and  O_2
REMARK    2  A    between atoms: O_2  and  C_3
REMARK    3  A    between atoms: C_3  and  C_4
REMARK    4  A    between atoms: C_4  and  C_5
REMARK    5  A    between atoms: N_7  and  C_8
REMARK    6  A    between atoms: C_16  and  C_18
REMARK    7  A    between atoms: C_18  and  S_19
REMARK    8  A    between atoms: S_19  and  C_20
REMARK                            x       y       z     vdW  Elec       q    Type
REMARK                         _______ _______ _______ _____ _____    ______ ____
ROOT
ATOM      1  C   UNL     1       0.894  10.096  19.598  0.00  0.00    +0.000 A 
ATOM      2  C   UNL     1       1.502  10.333  18.358  0.00  0.00    +0.000 A 
ATOM      3  C   UNL     1       2.278   9.362  17.726  0.00  0.00    +0.000 A 
ATOM      4  C   UNL     1       2.452   8.123  18.335  0.00  0.00    +0.000 A 
ATOM      5  C   UNL     1       1.863   7.862  19.582  0.00  0.00    +0.000 A 
ATOM      6  C   UNL     1       1.100   8.854  20.218  0.00  0.00    +0.000 A 
ATOM      7  C   UNL     1       2.125   6.526  20.232  0.00  0.00    +0.000 C 
ATOM      8  N   UNL     1       2.176   5.415  19.280  0.00  0.00    +0.000 N 
ATOM      9  C   UNL     1       1.816   4.158  19.747  0.00  0.00    +0.000 C 
ATOM     10  O   UNL     1       1.486   3.968  20.920  0.00  0.00    +0.000 OA
ATOM     11  C   UNL     1       2.589   5.693  17.895  0.00  0.00    +0.000 C 
ATOM     12  C   UNL     1       3.286   7.043  17.710  0.00  0.00    +0.000 C 
ENDROOT
BRANCH   1  15
ATOM     13  C   UNL     1       0.598  12.142  20.967  0.00  0.00    +0.000 C 
ATOM     14  O   UNL     1       1.775  12.480  21.049  0.00  0.00    +0.000 OA
ATOM     15  N   UNL     1       0.103  11.064  20.245  0.00  0.00    +0.000 N 
ATOM     16  H   UNL     1      -0.896  11.017  20.085  0.00  0.00    +0.000 HD
BRANCH  13  17
ATOM     17  C   UNL     1      -0.454  12.943  21.687  0.00  0.00    +0.000 C 
BRANCH  17  18
ATOM     18  C   UNL     1      -1.146  12.082  22.724  0.00  0.00    +0.000 C 
BRANCH  18  20
ATOM     19  C   UNL     1      -0.872   9.820  23.270  0.00  0.00    +0.000 C 
ATOM     20  O   UNL     1      -0.239  11.094  23.207  0.00  0.00    +0.000 OA
ENDBRANCH  18  20
ENDBRANCH  17  18
ENDBRANCH  13  17
ENDBRANCH   1  15
BRANCH   9  21
ATOM     21  C   UNL     1       1.843   2.983  18.777  0.00  0.00    +0.000 C 
BRANCH  21  22
ATOM     22  S   UNL     1       3.224   1.847  19.139  0.00  0.00    +0.000 S 
ATOM     23  C   UNL     1       4.548   3.051  19.422  0.00  0.00    +0.000 C 
ENDBRANCH  21  22
ENDBRANCH   9  21
TORSDOF 6
ENDMDL
MODEL 7
REMARK VINA RESULT:      -6.4      4.405      8.431
REMARK  Name = 
REMARK  8 active torsions:
REMARK  status: ('A' for Active; 'I' for Inactive)
REMARK    1  A    between atoms: C_1  and  O_2
REMARK    2  A    between atoms: O_2  and  C_3
REMARK    3  A    between atoms: C_3  and  C_4
REMARK    4  A    between atoms: C_4  and  C_5
REMARK    5  A    between atoms: N_7  and  C_8
REMARK    6  A    between atoms: C_16  and  C_18
REMARK    7  A    between atoms: C_18  and  S_19
REMARK    8  A    between atoms: S_19  and  C_20
REMARK                            x       y       z     vdW  Elec       q    Type
REMARK                         _______ _______ _______ _____ _____    ______ ____
ROOT
ATOM      1  C   UNL     1       2.246   6.789  19.897  0.00  0.00    +0.000 A 
ATOM      2  C   UNL     1       2.593   7.194  18.601  0.00  0.00    +0.000 A 
ATOM      3  C   UNL     1       2.171   8.415  18.078  0.00  0.00    +0.000 A 
ATOM      4  C   UNL     1       1.390   9.260  18.860  0.00  0.00    +0.000 A 
ATOM      5  C   UNL     1       1.018   8.876  20.158  0.00  0.00    +0.000 A 
ATOM      6  C   UNL     1       1.433   7.635  20.667  0.00  0.00    +0.000 A 
ATOM      7  C   UNL     1       0.123   9.797  20.950  0.00  0.00    +0.000 C 
ATOM      8  N   UNL     1       0.416  11.216  20.739  0.00  0.00    +0.000 N 
ATOM      9  C   UNL     1       0.123  12.088  21.779  0.00  0.00    +0.000 C 
ATOM     10  O   UNL     1      -0.384  11.699  22.833  0.00  0.00    +0.000 OA
ATOM     11  C   UNL     1       1.009  11.630  19.457  0.00  0.00    +0.000 C 
ATOM     12  C   UNL     1       0.895  10.581  18.348  0.00  0.00    +0.000 C 
ENDROOT
BRANCH   1  15
ATOM     13  C   UNL     1       1.848   4.466  20.666  0.00  0.00    +0.000 C 
ATOM     14  O   UNL     1       0.675   4.357  20.321  0.00  0.00    +0.000 OA
ATOM     15  N   UNL     1       2.670   5.562  20.440  0.00  0.00    +0.000 N 
ATOM     16  H   UNL     1       3.666   5.446  20.583  0.00  0.00    +0.000 HD
BRANCH  13  17
ATOM     17  C   UNL     1       2.513   3.329  21.396  0.00  0.00    +0.000 C 
BRANCH  17  18
ATOM     18  C   UNL     1       3.489   2.621  20.478  0.00  0.00    +0.000 C 
BRANCH  18  20
ATOM     19  C   UNL     1       3.446   2.180  18.177  0.00  0.00    +0.000 C 
ATOM     20  O   UNL     1       2.776   1.988  19.419  0.00  0.00    +0.000 OA
ENDBRANCH  18  20
ENDBRANCH  17  18
ENDBRANCH  13  17
ENDBRANCH   1  15
BRANCH   9  21
ATOM     21  C   UNL     1       0.431  13.570  21.597  0.00  0.00    +0.000 C 
BRANCH  21  22
ATOM     22  S   UNL     1      -1.027  14.605  21.956  0.00  0.00    +0.000 S 
ATOM     23  C   UNL     1      -2.150  14.018  20.659  0.00  0.00    +0.000 C 
ENDBRANCH  21  22
ENDBRANCH   9  21
TORSDOF 6
ENDMDL
MODEL 8
REMARK VINA RESULT:      -6.3      4.125      8.842
REMARK  Name = 
REMARK  8 active torsions:
REMARK  status: ('A' for Active; 'I' for Inactive)
REMARK    1  A    between atoms: C_1  and  O_2
REMARK    2  A    between atoms: O_2  and  C_3
REMARK    3  A    between atoms: C_3  and  C_4
REMARK    4  A    between atoms: C_4  and  C_5
REMARK    5  A    between atoms: N_7  and  C_8
REMARK    6  A    between atoms: C_16  and  C_18
REMARK    7  A    between atoms: C_18  and  S_19
REMARK    8  A    between atoms: S_19  and  C_20
REMARK                            x       y       z     vdW  Elec       q    Type
REMARK                         _______ _______ _______ _____ _____    ______ ____
ROOT
ATOM      1  C   UNL     1       2.467   7.433  19.167  0.00  0.00    +0.000 A 
ATOM      2  C   UNL     1       2.439   8.168  17.975  0.00  0.00    +0.000 A 
ATOM      3  C   UNL     1       1.605   9.274  17.817  0.00  0.00    +0.000 A 
ATOM      4  C   UNL     1       0.783   9.666  18.868  0.00  0.00    +0.000 A 
ATOM      5  C   UNL     1       0.782   8.942  20.070  0.00  0.00    +0.000 A 
ATOM      6  C   UNL     1       1.612   7.818  20.212  0.00  0.00    +0.000 A 
ATOM      7  C   UNL     1      -0.166   9.368  21.164  0.00  0.00    +0.000 C 
ATOM      8  N   UNL     1      -0.321  10.820  21.267  0.00  0.00    +0.000 N 
ATOM      9  C   UNL     1      -0.642  11.340  22.514  0.00  0.00    +0.000 C 
ATOM     10  O   UNL     1      -0.815  10.616  23.497  0.00  0.00    +0.000 OA
ATOM     11  C   UNL     1      -0.118  11.638  20.059  0.00  0.00    +0.000 C 
ATOM     12  C   UNL     1      -0.145  10.841  18.754  0.00  0.00    +0.000 C 
ENDROOT
BRANCH   1  15
ATOM     13  C   UNL     1       2.914   4.994  19.196  0.00  0.00    +0.000 C 
ATOM     14  O   UNL     1       1.827   4.603  18.778  0.00  0.00    +0.000 OA
ATOM     15  N   UNL     1       3.307   6.318  19.344  0.00  0.00    +0.000 N 
ATOM     16  H   UNL     1       4.290   6.507  19.493  0.00  0.00    +0.000 HD
BRANCH  13  17
ATOM     17  C   UNL     1       3.961   3.986  19.588  0.00  0.00    +0.000 C 
BRANCH  17  18
ATOM     18  C   UNL     1       5.120   4.032  18.613  0.00  0.00    +0.000 C 
BRANCH  18  20
ATOM     19  C   UNL     1       5.459   4.223  16.302  0.00  0.00    +0.000 C 
ATOM     20  O   UNL     1       4.712   4.696  17.419  0.00  0.00    +0.000 OA
ENDBRANCH  18  20
ENDBRANCH  17  18
ENDBRANCH  13  17
ENDBRANCH   1  15
BRANCH   9  21
ATOM     21  C   UNL     1      -0.795  12.850  22.658  0.00  0.00    +0.000 C 
BRANCH  21  22
ATOM     22  S   UNL     1      -2.455  13.299  23.267  0.00  0.00    +0.000 S 
ATOM     23  C   UNL     1      -3.453  12.808  21.837  0.00  0.00    +0.000 C 
ENDBRANCH  21  22
ENDBRANCH   9  21
TORSDOF 6
ENDMDL
MODEL 9
REMARK VINA RESULT:      -6.3      3.176      4.299
REMARK  Name = 
REMARK  8 active torsions:
REMARK  status: ('A' for Active; 'I' for Inactive)
REMARK    1  A    between atoms: C_1  and  O_2
REMARK    2  A    between atoms: O_2  and  C_3
REMARK    3  A    between atoms: C_3  and  C_4
REMARK    4  A    between atoms: C_4  and  C_5
REMARK    5  A    between atoms: N_7  and  C_8
REMARK    6  A    between atoms: C_16  and  C_18
REMARK    7  A    between atoms: C_18  and  S_19
REMARK    8  A    between atoms: S_19  and  C_20
REMARK                            x       y       z     vdW  Elec       q    Type
REMARK                         _______ _______ _______ _____ _____    ______ ____
ROOT
ATOM      1  C   UNL     1       1.213   9.530  19.494  0.00  0.00    +0.000 A 
ATOM      2  C   UNL     1       1.762   9.649  18.211  0.00  0.00    +0.000 A 
ATOM      3  C   UNL     1       2.451   8.596  17.609  0.00  0.00    +0.000 A 
ATOM      4  C   UNL     1       2.595   7.394  18.294  0.00  0.00    +0.000 A 
ATOM      5  C   UNL     1       2.064   7.251  19.586  0.00  0.00    +0.000 A 
ATOM      6  C   UNL     1       1.389   8.324  20.189  0.00  0.00    +0.000 A 
ATOM      7  C   UNL     1       2.292   5.949  20.314  0.00  0.00    +0.000 C 
ATOM      8  N   UNL     1       2.232   4.775  19.441  0.00  0.00    +0.000 N 
ATOM      9  C   UNL     1       1.835   3.574  20.013  0.00  0.00    +0.000 C 
ATOM     10  O   UNL     1       1.562   3.483  21.212  0.00  0.00    +0.000 OA
ATOM     11  C   UNL     1       2.582   4.936  18.020  0.00  0.00    +0.000 C 
ATOM     12  C   UNL     1       3.336   6.230  17.704  0.00  0.00    +0.000 C 
ENDROOT
BRANCH   1  15
ATOM     13  C   UNL     1      -0.758  11.014  19.744  0.00  0.00    +0.000 C 
ATOM     14  O   UNL     1      -1.497  10.478  18.924  0.00  0.00    +0.000 OA
ATOM     15  N   UNL     1       0.510  10.582  20.111  0.00  0.00    +0.000 N 
ATOM     16  H   UNL     1       0.926  10.982  20.943  0.00  0.00    +0.000 HD
BRANCH  13  17
ATOM     17  C   UNL     1      -1.225  12.254  20.461  0.00  0.00    +0.000 C 
BRANCH  17  18
ATOM     18  C   UNL     1      -0.832  12.189  21.923  0.00  0.00    +0.000 C 
BRANCH  18  20
ATOM     19  C   UNL     1      -0.748  10.266  23.260  0.00  0.00    +0.000 C 
ATOM     20  O   UNL     1      -1.600  11.182  22.579  0.00  0.00    +0.000 OA
ENDBRANCH  18  20
ENDBRANCH  17  18
ENDBRANCH  13  17
ENDBRANCH   1  15
BRANCH   9  21
ATOM     21  C   UNL     1       1.747   2.337  19.128  0.00  0.00    +0.000 C 
BRANCH  21  22
ATOM     22  S   UNL     1       3.399   1.785  18.584  0.00  0.00    +0.000 S 
ATOM     23  C   UNL     1       4.360   2.175  20.070  0.00  0.00    +0.000 C 
ENDBRANCH  21  22
ENDBRANCH   9  21
TORSDOF 6
ENDMDL
