MODEL 1
REMARK VINA RESULT:      -6.4      0.000      0.000
REMARK  Name = 
REMARK  12 active torsions:
REMARK  status: ('A' for Active; 'I' for Inactive)
REMARK    1  A    between atoms: C_1  and  O_2
REMARK    2  A    between atoms: O_2  and  C_3
REMARK    3  A    between atoms: C_6  and  C_7
REMARK    4  A    between atoms: C_8  and  C_9
REMARK    5  A    between atoms: C_9  and  C_11
REMARK    6  A    between atoms: C_17  and  O_18
REMARK    7  A    between atoms: N_21  and  C_22
REMARK    8  A    between atoms: C_22  and  C_23
REMARK    9  A    between atoms: C_23  and  C_24
REMARK   10  A    between atoms: C_23  and  O_25
REMARK   11  A    between atoms: C_26  and  O_27
REMARK   12  A    between atoms: O_27  and  C_28
REMARK                            x       y       z     vdW  Elec       q    Type
REMARK                         _______ _______ _______ _____ _____    ______ ____
ROOT
ATOM      1  C   UNL     1       0.879  12.123  20.624  0.00  0.00    +0.000 C 
ATOM      2  C   UNL     1       1.211  11.526  19.290  0.00  0.00    +0.000 C 
ATOM      3  C   UNL     1       1.981  12.348  18.557  0.00  0.00    +0.000 C 
ATOM      4  C   UNL     1       2.286  13.536  19.388  0.00  0.00    +0.000 C 
ATOM      5  O   UNL     1       3.079  14.411  19.098  0.00  0.00    +0.000 OA
ATOM      6  N   UNL     1       1.504  13.435  20.527  0.00  0.00    +0.000 N 
ENDROOT
BRANCH   1  10
ATOM      7  C   UNL     1      -3.258  12.765  21.736  0.00  0.00    +0.000 A 
ATOM      8  C   UNL     1      -2.799  13.153  20.480  0.00  0.00    +0.000 A 
ATOM      9  C   UNL     1      -1.478  12.916  20.104  0.00  0.00    +0.000 A 
ATOM     10  C   UNL     1      -0.594  12.251  20.972  0.00  0.00    +0.000 A 
ATOM     11  C   UNL     1      -1.081  11.804  22.220  0.00  0.00    +0.000 A 
ATOM     12  C   UNL     1      -2.402  12.081  22.599  0.00  0.00    +0.000 A 
BRANCH   7  14
ATOM     13  C   UNL     1      -5.490  12.970  20.940  0.00  0.00    +0.000 C 
ATOM     14  O   UNL     1      -4.554  13.112  22.002  0.00  0.00    +0.000 OA
ENDBRANCH   7  14
BRANCH  11  15
ATOM     15  O   UNL     1      -0.183  11.127  23.009  0.00  0.00    +0.000 OA
ATOM     16  C   UNL     1      -0.336   9.715  23.126  0.00  0.00    +0.000 C 
ENDBRANCH  11  15
ENDBRANCH   1  10
BRANCH   2  17
ATOM     17  C   UNL     1       0.763  10.241  18.708  0.00  0.00    +0.000 C 
ATOM     18  O   UNL     1      -0.301  10.213  18.083  0.00  0.00    +0.000 OA
BRANCH  17  19
ATOM     19  C   UNL     1       1.516   8.970  18.875  0.00  0.00    +0.000 A 
ATOM     20  C   UNL     1       2.309   8.542  17.797  0.00  0.00    +0.000 A 
ATOM     21  C   UNL     1       3.042   7.357  17.878  0.00  0.00    +0.000 A 
ATOM     22  C   UNL     1       2.982   6.580  19.032  0.00  0.00    +0.000 A 
ATOM     23  C   UNL     1       2.218   7.007  20.115  0.00  0.00    +0.000 A 
ATOM     24  C   UNL     1       1.515   8.213  20.050  0.00  0.00    +0.000 A 
ENDBRANCH  17  19
ENDBRANCH   2  17
BRANCH   3  25
ATOM     25  O   UNL     1       2.438  12.186  17.279  0.00  0.00    +0.000 OA
ATOM     26  H   UNL     1       3.311  12.635  17.225  0.00  0.00    +0.000 HD
ENDBRANCH   3  25
BRANCH   6  27
ATOM     27  C   UNL     1       1.683  14.268  21.715  0.00  0.00    +0.000 C 
BRANCH  27  28
ATOM     28  C   UNL     1       0.795  15.516  21.827  0.00  0.00    +0.000 C 
ATOM     29  C   UNL     1       0.251  15.984  20.481  0.00  0.00    +0.000 C 
BRANCH  28  30
ATOM     30  O   UNL     1      -0.315  15.212  22.686  0.00  0.00    +0.000 OA
ATOM     31  H   UNL     1      -1.052  14.913  22.128  0.00  0.00    +0.000 HD
ENDBRANCH  28  30
ENDBRANCH  27  28
ENDBRANCH   6  27
TORSDOF 9
ENDMDL
MODEL 2
REMARK VINA RESULT:      -6.4      4.901      8.351
REMARK  Name = 
REMARK  12 active torsions:
REMARK  status: ('A' for Active; 'I' for Inactive)
REMARK    1  A    between atoms: C_1  and  O_2
REMARK    2  A    between atoms: O_2  and  C_3
REMARK    3  A    between atoms: C_6  and  C_7
REMARK    4  A    between atoms: C_8  and  C_9
REMARK    5  A    between atoms: C_9  and  C_11
REMARK    6  A    between atoms: C_17  and  O_18
REMARK    7  A    between atoms: N_21  and  C_22
REMARK    8  A    between atoms: C_22  and  C_23
REMARK    9  A    between atoms: C_23  and  C_24
REMARK   10  A    between atoms: C_23  and  O_25
REMARK   11  A    between atoms: C_26  and  O_27
REMARK   12  A    between atoms: O_27  and  C_28
REMARK                            x       y       z     vdW  Elec       q    Type
REMARK                         _______ _______ _______ _____ _____    ______ ____
ROOT
ATOM      1  C   UNL     1       4.874   5.317  18.340  0.00  0.00    +0.000 C 
ATOM      2  C   UNL     1       4.532   4.039  17.634  0.00  0.00    +0.000 C 
ATOM      3  C   UNL     1       5.516   3.654  16.803  0.00  0.00    +0.000 C 
ATOM      4  C   UNL     1       6.630   4.617  16.951  0.00  0.00    +0.000 C 
ATOM      5  O   UNL     1       7.737   4.491  16.462  0.00  0.00    +0.000 OA
ATOM      6  N   UNL     1       6.159   5.652  17.742  0.00  0.00    +0.000 N 
ENDROOT
BRANCH   1  10
ATOM      7  C   UNL     1       2.284   8.778  18.052  0.00  0.00    +0.000 A 
ATOM      8  C   UNL     1       3.165   8.470  17.018  0.00  0.00    +0.000 A 
ATOM      9  C   UNL     1       3.974   7.338  17.090  0.00  0.00    +0.000 A 
ATOM     10  C   UNL     1       3.893   6.467  18.190  0.00  0.00    +0.000 A 
ATOM     11  C   UNL     1       2.954   6.749  19.208  0.00  0.00    +0.000 A 
ATOM     12  C   UNL     1       2.172   7.911  19.139  0.00  0.00    +0.000 A 
BRANCH   7  14
ATOM     13  C   UNL     1       0.438  10.133  18.693  0.00  0.00    +0.000 C 
ATOM     14  O   UNL     1       1.595   9.947  17.886  0.00  0.00    +0.000 OA
ENDBRANCH   7  14
BRANCH  11  15
ATOM     15  O   UNL     1       2.893   5.843  20.238  0.00  0.00    +0.000 OA
ATOM     16  C   UNL     1       1.780   5.921  21.125  0.00  0.00    +0.000 C 
ENDBRANCH  11  15
ENDBRANCH   1  10
BRANCH   2  17
ATOM     17  C   UNL     1       3.288   3.241  17.705  0.00  0.00    +0.000 C 
ATOM     18  O   UNL     1       2.787   2.831  16.653  0.00  0.00    +0.000 OA
BRANCH  17  19
ATOM     19  C   UNL     1       2.587   2.944  18.982  0.00  0.00    +0.000 A 
ATOM     20  C   UNL     1       1.184   3.001  18.977  0.00  0.00    +0.000 A 
ATOM     21  C   UNL     1       0.456   2.738  20.139  0.00  0.00    +0.000 A 
ATOM     22  C   UNL     1       1.123   2.425  21.320  0.00  0.00    +0.000 A 
ATOM     23  C   UNL     1       2.512   2.341  21.331  0.00  0.00    +0.000 A 
ATOM     24  C   UNL     1       3.240   2.567  20.159  0.00  0.00    +0.000 A 
ENDBRANCH  17  19
ENDBRANCH   2  17
BRANCH   3  25
ATOM     25  O   UNL     1       5.552   2.584  15.952  0.00  0.00    +0.000 OA
ATOM     26  H   UNL     1       6.391   2.648  15.444  0.00  0.00    +0.000 HD
ENDBRANCH   3  25
BRANCH   6  27
ATOM     27  C   UNL     1       7.013   6.680  18.333  0.00  0.00    +0.000 C 
BRANCH  27  28
ATOM     28  C   UNL     1       7.429   7.845  17.423  0.00  0.00    +0.000 C 
ATOM     29  C   UNL     1       8.294   8.880  18.135  0.00  0.00    +0.000 C 
BRANCH  28  30
ATOM     30  O   UNL     1       8.172   7.315  16.314  0.00  0.00    +0.000 OA
ATOM     31  H   UNL     1       7.914   7.809  15.518  0.00  0.00    +0.000 HD
ENDBRANCH  28  30
ENDBRANCH  27  28
ENDBRANCH   6  27
TORSDOF 9
ENDMDL
MODEL 3
REMARK VINA RESULT:      -6.4      0.720      1.212
REMARK  Name = 
REMARK  12 active torsions:
REMARK  status: ('A' for Active; 'I' for Inactive)
REMARK    1  A    between atoms: C_1  and  O_2
REMARK    2  A    between atoms: O_2  and  C_3
REMARK    3  A    between atoms: C_6  and  C_7
REMARK    4  A    between atoms: C_8  and  C_9
REMARK    5  A    between atoms: C_9  and  C_11
REMARK    6  A    between atoms: C_17  and  O_18
REMARK    7  A    between atoms: N_21  and  C_22
REMARK    8  A    between atoms: C_22  and  C_23
REMARK    9  A    between atoms: C_23  and  C_24
REMARK   10  A    between atoms: C_23  and  O_25
REMARK   11  A    between atoms: C_26  and  O_27
REMARK   12  A    between atoms: O_27  and  C_28
REMARK                            x       y       z     vdW  Elec       q    Type
REMARK                         _______ _______ _______ _____ _____    ______ ____
ROOT
ATOM      1  C   UNL     1       0.885  12.165  20.637  0.00  0.00    +0.000 C 
ATOM      2  C   UNL     1       1.203  11.570  19.298  0.00  0.00    +0.000 C 
ATOM      3  C   UNL     1       1.977  12.388  18.564  0.00  0.00    +0.000 C 
ATOM      4  C   UNL     1       2.297  13.569  19.397  0.00  0.00    +0.000 C 
ATOM      5  O   UNL     1       3.097  14.438  19.106  0.00  0.00    +0.000 OA
ATOM      6  N   UNL     1       1.522  13.471  20.541  0.00  0.00    +0.000 N 
ENDROOT
BRANCH   1  10
ATOM      7  C   UNL     1      -3.238  12.838  21.784  0.00  0.00    +0.000 A 
ATOM      8  C   UNL     1      -2.777  13.252  20.536  0.00  0.00    +0.000 A 
ATOM      9  C   UNL     1      -1.462  13.006  20.149  0.00  0.00    +0.000 A 
ATOM     10  C   UNL     1      -0.585  12.305  20.994  0.00  0.00    +0.000 A 
ATOM     11  C   UNL     1      -1.073  11.832  22.232  0.00  0.00    +0.000 A 
ATOM     12  C   UNL     1      -2.388  12.118  22.625  0.00  0.00    +0.000 A 
BRANCH   7  14
ATOM     13  C   UNL     1      -4.740  13.964  23.243  0.00  0.00    +0.000 C 
ATOM     14  O   UNL     1      -4.527  13.196  22.065  0.00  0.00    +0.000 OA
ENDBRANCH   7  14
BRANCH  11  15
ATOM     15  O   UNL     1      -0.182  11.120  22.999  0.00  0.00    +0.000 OA
ATOM     16  C   UNL     1      -0.378   9.713  23.110  0.00  0.00    +0.000 C 
ENDBRANCH  11  15
ENDBRANCH   1  10
BRANCH   2  17
ATOM     17  C   UNL     1       0.740  10.292  18.713  0.00  0.00    +0.000 C 
ATOM     18  O   UNL     1      -0.345  10.268  18.124  0.00  0.00    +0.000 OA
BRANCH  17  19
ATOM     19  C   UNL     1       1.501   9.021  18.838  0.00  0.00    +0.000 A 
ATOM     20  C   UNL     1       1.416   8.334  20.060  0.00  0.00    +0.000 A 
ATOM     21  C   UNL     1       2.106   7.136  20.253  0.00  0.00    +0.000 A 
ATOM     22  C   UNL     1       2.897   6.617  19.232  0.00  0.00    +0.000 A 
ATOM     23  C   UNL     1       2.969   7.277  18.008  0.00  0.00    +0.000 A 
ATOM     24  C   UNL     1       2.248   8.456  17.801  0.00  0.00    +0.000 A 
ENDBRANCH  17  19
ENDBRANCH   2  17
BRANCH   3  25
ATOM     25  O   UNL     1       2.424  12.227  17.282  0.00  0.00    +0.000 OA
ATOM     26  H   UNL     1       1.678  11.855  16.761  0.00  0.00    +0.000 HD
ENDBRANCH   3  25
BRANCH   6  27
ATOM     27  C   UNL     1       1.716  14.297  21.731  0.00  0.00    +0.000 C 
BRANCH  27  28
ATOM     28  C   UNL     1       0.906  15.600  21.810  0.00  0.00    +0.000 C 
ATOM     29  C   UNL     1      -0.282  15.507  22.761  0.00  0.00    +0.000 C 
BRANCH  28  30
ATOM     30  O   UNL     1       1.774  16.650  22.266  0.00  0.00    +0.000 OA
ATOM     31  H   UNL     1       2.368  16.886  21.534  0.00  0.00    +0.000 HD
ENDBRANCH  28  30
ENDBRANCH  27  28
ENDBRANCH   6  27
TORSDOF 9
ENDMDL
MODEL 4
REMARK VINA RESULT:      -6.3      4.988      8.708
REMARK  Name = 
REMARK  12 active torsions:
REMARK  status: ('A' for Active; 'I' for Inactive)
REMARK    1  A    between atoms: C_1  and  O_2
REMARK    2  A    between atoms: O_2  and  C_3
REMARK    3  A    between atoms: C_6  and  C_7
REMARK    4  A    between atoms: C_8  and  C_9
REMARK    5  A    between atoms: C_9  and  C_11
REMARK    6  A    between atoms: C_17  and  O_18
REMARK    7  A    between atoms: N_21  and  C_22
REMARK    8  A    between atoms: C_22  and  C_23
REMARK    9  A    between atoms: C_23  and  C_24
REMARK   10  A    between atoms: C_23  and  O_25
REMARK   11  A    between atoms: C_26  and  O_27
REMARK   12  A    between atoms: O_27  and  C_28
REMARK                            x       y       z     vdW  Elec       q    Type
REMARK                         _______ _______ _______ _____ _____    ______ ____
ROOT
ATOM      1  C   UNL     1       5.192   5.072  18.589  0.00  0.00    +0.000 C 
ATOM      2  C   UNL     1       4.796   3.881  17.768  0.00  0.00    +0.000 C 
ATOM      3  C   UNL     1       5.726   3.586  16.843  0.00  0.00    +0.000 C 
ATOM      4  C   UNL     1       6.857   4.522  17.031  0.00  0.00    +0.000 C 
ATOM      5  O   UNL     1       7.933   4.446  16.466  0.00  0.00    +0.000 OA
ATOM      6  N   UNL     1       6.444   5.465  17.957  0.00  0.00    +0.000 N 
ENDROOT
BRANCH   1  10
ATOM      7  C   UNL     1       2.198   8.202  18.564  0.00  0.00    +0.000 A 
ATOM      8  C   UNL     1       2.339   7.371  19.673  0.00  0.00    +0.000 A 
ATOM      9  C   UNL     1       3.324   6.387  19.700  0.00  0.00    +0.000 A 
ATOM     10  C   UNL     1       4.216   6.235  18.625  0.00  0.00    +0.000 A 
ATOM     11  C   UNL     1       4.110   7.120  17.529  0.00  0.00    +0.000 A 
ATOM     12  C   UNL     1       3.091   8.083  17.499  0.00  0.00    +0.000 A 
BRANCH   7  14
ATOM     13  C   UNL     1       0.773   9.521  19.938  0.00  0.00    +0.000 C 
ATOM     14  O   UNL     1       1.155   9.083  18.639  0.00  0.00    +0.000 OA
ENDBRANCH   7  14
BRANCH  11  15
ATOM     15  O   UNL     1       5.033   6.949  16.526  0.00  0.00    +0.000 OA
ATOM     16  C   UNL     1       4.566   6.995  15.180  0.00  0.00    +0.000 C 
ENDBRANCH  11  15
ENDBRANCH   1  10
BRANCH   2  17
ATOM     17  C   UNL     1       3.550   3.085  17.823  0.00  0.00    +0.000 C 
ATOM     18  O   UNL     1       3.188   2.480  16.809  0.00  0.00    +0.000 OA
BRANCH  17  19
ATOM     19  C   UNL     1       2.687   3.013  19.032  0.00  0.00    +0.000 A 
ATOM     20  C   UNL     1       3.302   2.653  20.243  0.00  0.00    +0.000 A 
ATOM     21  C   UNL     1       2.557   2.560  21.420  0.00  0.00    +0.000 A 
ATOM     22  C   UNL     1       1.189   2.815  21.398  0.00  0.00    +0.000 A 
ATOM     23  C   UNL     1       0.574   3.196  20.209  0.00  0.00    +0.000 A 
ATOM     24  C   UNL     1       1.326   3.327  19.038  0.00  0.00    +0.000 A 
ENDBRANCH  17  19
ENDBRANCH   2  17
BRANCH   3  25
ATOM     25  O   UNL     1       5.701   2.617  15.879  0.00  0.00    +0.000 OA
ATOM     26  H   UNL     1       4.764   2.508  15.603  0.00  0.00    +0.000 HD
ENDBRANCH   3  25
BRANCH   6  27
ATOM     27  C   UNL     1       7.342   6.418  18.607  0.00  0.00    +0.000 C 
BRANCH  27  28
ATOM     28  C   UNL     1       7.597   7.742  17.873  0.00  0.00    +0.000 C 
ATOM     29  C   UNL     1       8.637   8.617  18.565  0.00  0.00    +0.000 C 
BRANCH  28  30
ATOM     30  O   UNL     1       8.059   7.447  16.546  0.00  0.00    +0.000 OA
ATOM     31  H   UNL     1       7.356   7.693  15.922  0.00  0.00    +0.000 HD
ENDBRANCH  28  30
ENDBRANCH  27  28
ENDBRANCH   6  27
TORSDOF 9
ENDMDL
MODEL 5
REMARK VINA RESULT:      -6.2      4.545      7.766
REMARK  Name = 
REMARK  12 active torsions:
REMARK  status: ('A' for Active; 'I' for Inactive)
REMARK    1  A    between atoms: C_1  and  O_2
REMARK    2  A    between atoms: O_2  and  C_3
REMARK    3  A    between atoms: C_6  and  C_7
REMARK    4  A    between atoms: C_8  and  C_9
REMARK    5  A    between atoms: C_9  and  C_11
REMARK    6  A    between atoms: C_17  and  O_18
REMARK    7  A    between atoms: N_21  and  C_22
REMARK    8  A    between atoms: C_22  and  C_23
REMARK    9  A    between atoms: C_23  and  C_24
REMARK   10  A    between atoms: C_23  and  O_25
REMARK   11  A    between atoms: C_26  and  O_27
REMARK   12  A    between atoms: O_27  and  C_28
REMARK                            x       y       z     vdW  Elec       q    Type
REMARK                         _______ _______ _______ _____ _____    ______ ____
ROOT
ATOM      1  C   UNL     1       4.498   6.082  18.016  0.00  0.00    +0.000 C 
ATOM      2  C   UNL     1       4.221   4.838  17.226  0.00  0.00    +0.000 C 
ATOM      3  C   UNL     1       5.088   4.695  16.209  0.00  0.00    +0.000 C 
ATOM      4  C   UNL     1       6.064   5.805  16.291  0.00  0.00    +0.000 C 
ATOM      5  O   UNL     1       7.074   5.903  15.620  0.00  0.00    +0.000 OA
ATOM      6  N   UNL     1       5.598   6.672  17.265  0.00  0.00    +0.000 N 
ENDROOT
BRANCH   1  10
ATOM      7  C   UNL     1       1.437   9.099  18.559  0.00  0.00    +0.000 A 
ATOM      8  C   UNL     1       2.151   9.028  17.365  0.00  0.00    +0.000 A 
ATOM      9  C   UNL     1       3.111   8.037  17.172  0.00  0.00    +0.000 A 
ATOM     10  C   UNL     1       3.353   7.070  18.163  0.00  0.00    +0.000 A 
ATOM     11  C   UNL     1       2.583   7.108  19.347  0.00  0.00    +0.000 A 
ATOM     12  C   UNL     1       1.646   8.132  19.543  0.00  0.00    +0.000 A 
BRANCH   7  14
ATOM     13  C   UNL     1       1.138  11.434  18.895  0.00  0.00    +0.000 C 
ATOM     14  O   UNL     1       0.571  10.154  18.644  0.00  0.00    +0.000 OA
ENDBRANCH   7  14
BRANCH  11  15
ATOM     15  O   UNL     1       2.837   6.115  20.262  0.00  0.00    +0.000 OA
ATOM     16  C   UNL     1       1.869   5.892  21.284  0.00  0.00    +0.000 C 
ENDBRANCH  11  15
ENDBRANCH   1  10
BRANCH   2  17
ATOM     17  C   UNL     1       3.134   3.849  17.398  0.00  0.00    +0.000 C 
ATOM     18  O   UNL     1       2.519   3.465  16.398  0.00  0.00    +0.000 OA
BRANCH  17  19
ATOM     19  C   UNL     1       2.717   3.326  18.725  0.00  0.00    +0.000 A 
ATOM     20  C   UNL     1       1.339   3.194  18.964  0.00  0.00    +0.000 A 
ATOM     21  C   UNL     1       0.870   2.713  20.188  0.00  0.00    +0.000 A 
ATOM     22  C   UNL     1       1.773   2.369  21.190  0.00  0.00    +0.000 A 
ATOM     23  C   UNL     1       3.141   2.472  20.956  0.00  0.00    +0.000 A 
ATOM     24  C   UNL     1       3.612   2.917  19.718  0.00  0.00    +0.000 A 
ENDBRANCH  17  19
ENDBRANCH   2  17
BRANCH   3  25
ATOM     25  O   UNL     1       5.124   3.729  15.241  0.00  0.00    +0.000 OA
ATOM     26  H   UNL     1       6.034   3.358  15.238  0.00  0.00    +0.000 HD
ENDBRANCH   3  25
BRANCH   6  27
ATOM     27  C   UNL     1       6.389   7.763  17.832  0.00  0.00    +0.000 C 
BRANCH  27  28
ATOM     28  C   UNL     1       7.894   7.512  18.004  0.00  0.00    +0.000 C 
ATOM     29  C   UNL     1       8.670   8.770  18.380  0.00  0.00    +0.000 C 
BRANCH  28  30
ATOM     30  O   UNL     1       8.078   6.535  19.041  0.00  0.00    +0.000 OA
ATOM     31  H   UNL     1       8.177   5.665  18.619  0.00  0.00    +0.000 HD
ENDBRANCH  28  30
ENDBRANCH  27  28
ENDBRANCH   6  27
TORSDOF 9
ENDMDL
MODEL 6
REMARK VINA RESULT:      -6.2      2.283      6.765
REMARK  Name = 
REMARK  12 active torsions:
REMARK  status: ('A' for Active; 'I' for Inactive)
REMARK    1  A    between atoms: C_1  and  O_2
REMARK    2  A    between atoms: O_2  and  C_3
REMARK    3  A    between atoms: C_6  and  C_7
REMARK    4  A    between atoms: C_8  and  C_9
REMARK    5  A    between atoms: C_9  and  C_11
REMARK    6  A    between atoms: C_17  and  O_18
REMARK    7  A    between atoms: N_21  and  C_22
REMARK    8  A    between atoms: C_22  and  C_23
REMARK    9  A    between atoms: C_23  and  C_24
REMARK   10  A    between atoms: C_23  and  O_25
REMARK   11  A    between atoms: C_26  and  O_27
REMARK   12  A    between atoms: O_27  and  C_28
REMARK                            x       y       z     vdW  Elec       q    Type
REMARK                         _______ _______ _______ _____ _____    ______ ____
ROOT
ATOM      1  C   UNL     1      -1.839  13.274  22.367  0.00  0.00    +0.000 C 
ATOM      2  C   UNL     1      -2.930  13.407  23.386  0.00  0.00    +0.000 C 
ATOM      3  C   UNL     1      -2.573  14.225  24.391  0.00  0.00    +0.000 C 
ATOM      4  C   UNL     1      -1.230  14.764  24.074  0.00  0.00    +0.000 C 
ATOM      5  O   UNL     1      -0.666  15.649  24.689  0.00  0.00    +0.000 OA
ATOM      6  N   UNL     1      -0.777  14.071  22.964  0.00  0.00    +0.000 N 
ENDROOT
BRANCH   1  10
ATOM      7  C   UNL     1      -0.163   9.371  21.520  0.00  0.00    +0.000 A 
ATOM      8  C   UNL     1      -0.465   9.738  22.828  0.00  0.00    +0.000 A 
ATOM      9  C   UNL     1      -1.038  10.978  23.102  0.00  0.00    +0.000 A 
ATOM     10  C   UNL     1      -1.353  11.868  22.061  0.00  0.00    +0.000 A 
ATOM     11  C   UNL     1      -1.102  11.466  20.730  0.00  0.00    +0.000 A 
ATOM     12  C   UNL     1      -0.493  10.231  20.472  0.00  0.00    +0.000 A 
BRANCH   7  14
ATOM     13  C   UNL     1       1.570   8.086  20.518  0.00  0.00    +0.000 C 
ATOM     14  O   UNL     1       0.451   8.156  21.395  0.00  0.00    +0.000 OA
ENDBRANCH   7  14
BRANCH  11  15
ATOM     15  O   UNL     1      -1.466  12.361  19.753  0.00  0.00    +0.000 OA
ATOM     16  C   UNL     1      -2.160  11.855  18.615  0.00  0.00    +0.000 C 
ENDBRANCH  11  15
ENDBRANCH   1  10
BRANCH   2  17
ATOM     17  C   UNL     1      -4.247  12.733  23.433  0.00  0.00    +0.000 C 
ATOM     18  O   UNL     1      -4.482  11.954  24.363  0.00  0.00    +0.000 OA
BRANCH  17  19
ATOM     19  C   UNL     1      -5.289  12.918  22.389  0.00  0.00    +0.000 A 
ATOM     20  C   UNL     1      -4.950  12.572  21.070  0.00  0.00    +0.000 A 
ATOM     21  C   UNL     1      -5.875  12.721  20.035  0.00  0.00    +0.000 A 
ATOM     22  C   UNL     1      -7.144  13.227  20.304  0.00  0.00    +0.000 A 
ATOM     23  C   UNL     1      -7.498  13.550  21.611  0.00  0.00    +0.000 A 
ATOM     24  C   UNL     1      -6.587  13.365  22.654  0.00  0.00    +0.000 A 
ENDBRANCH  17  19
ENDBRANCH   2  17
BRANCH   3  25
ATOM     25  O   UNL     1      -3.266  14.548  25.524  0.00  0.00    +0.000 OA
ATOM     26  H   UNL     1      -3.871  15.287  25.292  0.00  0.00    +0.000 HD
ENDBRANCH   3  25
BRANCH   6  27
ATOM     27  C   UNL     1       0.393  14.464  22.180  0.00  0.00    +0.000 C 
BRANCH  27  28
ATOM     28  C   UNL     1       0.132  15.273  20.901  0.00  0.00    +0.000 C 
ATOM     29  C   UNL     1       0.880  16.602  20.872  0.00  0.00    +0.000 C 
BRANCH  28  30
ATOM     30  O   UNL     1       0.550  14.490  19.772  0.00  0.00    +0.000 OA
ATOM     31  H   UNL     1      -0.183  13.900  19.530  0.00  0.00    +0.000 HD
ENDBRANCH  28  30
ENDBRANCH  27  28
ENDBRANCH   6  27
TORSDOF 9
ENDMDL
MODEL 7
REMARK VINA RESULT:      -6.2      5.095     10.215
REMARK  Name = 
REMARK  12 active torsions:
REMARK  status: ('A' for Active; 'I' for Inactive)
REMARK    1  A    between atoms: C_1  and  O_2
REMARK    2  A    between atoms: O_2  and  C_3
REMARK    3  A    between atoms: C_6  and  C_7
REMARK    4  A    between atoms: C_8  and  C_9
REMARK    5  A    between atoms: C_9  and  C_11
REMARK    6  A    between atoms: C_17  and  O_18
REMARK    7  A    between atoms: N_21  and  C_22
REMARK    8  A    between atoms: C_22  and  C_23
REMARK    9  A    between atoms: C_23  and  C_24
REMARK   10  A    between atoms: C_23  and  O_25
REMARK   11  A    between atoms: C_26  and  O_27
REMARK   12  A    between atoms: O_27  and  C_28
REMARK                            x       y       z     vdW  Elec       q    Type
REMARK                         _______ _______ _______ _____ _____    ______ ____
ROOT
ATOM      1  C   UNL     1       3.956   5.013  19.697  0.00  0.00    +0.000 C 
ATOM      2  C   UNL     1       2.683   5.805  19.715  0.00  0.00    +0.000 C 
ATOM      3  C   UNL     1       1.634   5.046  20.074  0.00  0.00    +0.000 C 
ATOM      4  C   UNL     1       2.147   3.695  20.398  0.00  0.00    +0.000 C 
ATOM      5  O   UNL     1       1.496   2.799  20.901  0.00  0.00    +0.000 OA
ATOM      6  N   UNL     1       3.480   3.677  20.023  0.00  0.00    +0.000 N 
ENDROOT
BRANCH   1  10
ATOM      7  C   UNL     1       6.239   4.688  16.030  0.00  0.00    +0.000 A 
ATOM      8  C   UNL     1       4.856   4.525  16.015  0.00  0.00    +0.000 A 
ATOM      9  C   UNL     1       4.113   4.664  17.185  0.00  0.00    +0.000 A 
ATOM     10  C   UNL     1       4.741   5.006  18.396  0.00  0.00    +0.000 A 
ATOM     11  C   UNL     1       6.135   5.231  18.394  0.00  0.00    +0.000 A 
ATOM     12  C   UNL     1       6.875   5.053  17.217  0.00  0.00    +0.000 A 
BRANCH   7  14
ATOM     13  C   UNL     1       6.070   3.859  13.807  0.00  0.00    +0.000 C 
ATOM     14  O   UNL     1       6.854   4.463  14.829  0.00  0.00    +0.000 OA
ENDBRANCH   7  14
BRANCH  11  15
ATOM     15  O   UNL     1       6.686   5.600  19.598  0.00  0.00    +0.000 OA
ATOM     16  C   UNL     1       8.107   5.671  19.683  0.00  0.00    +0.000 C 
ENDBRANCH  11  15
ENDBRANCH   1  10
BRANCH   2  17
ATOM     17  C   UNL     1       2.462   7.222  19.349  0.00  0.00    +0.000 C 
ATOM     18  O   UNL     1       2.951   7.644  18.296  0.00  0.00    +0.000 OA
BRANCH  17  19
ATOM     19  C   UNL     1       1.713   8.174  20.210  0.00  0.00    +0.000 A 
ATOM     20  C   UNL     1       0.943   9.157  19.566  0.00  0.00    +0.000 A 
ATOM     21  C   UNL     1       0.215  10.090  20.308  0.00  0.00    +0.000 A 
ATOM     22  C   UNL     1       0.257  10.057  21.699  0.00  0.00    +0.000 A 
ATOM     23  C   UNL     1       0.998   9.072  22.347  0.00  0.00    +0.000 A 
ATOM     24  C   UNL     1       1.696   8.115  21.606  0.00  0.00    +0.000 A 
ENDBRANCH  17  19
ENDBRANCH   2  17
BRANCH   3  25
ATOM     25  O   UNL     1       0.312   5.388  20.150  0.00  0.00    +0.000 OA
ATOM     26  H   UNL     1      -0.093   5.170  19.281  0.00  0.00    +0.000 HD
ENDBRANCH   3  25
BRANCH   6  27
ATOM     27  C   UNL     1       4.417   2.620  20.398  0.00  0.00    +0.000 C 
BRANCH  27  28
ATOM     28  C   UNL     1       4.194   1.238  19.766  0.00  0.00    +0.000 C 
ATOM     29  C   UNL     1       3.828   1.309  18.287  0.00  0.00    +0.000 C 
BRANCH  28  30
ATOM     30  O   UNL     1       5.402   0.473  19.900  0.00  0.00    +0.000 OA
ATOM     31  H   UNL     1       5.251  -0.210  20.574  0.00  0.00    +0.000 HD
ENDBRANCH  28  30
ENDBRANCH  27  28
ENDBRANCH   6  27
TORSDOF 9
ENDMDL
MODEL 8
REMARK VINA RESULT:      -6.1      2.841      3.778
REMARK  Name = 
REMARK  12 active torsions:
REMARK  status: ('A' for Active; 'I' for Inactive)
REMARK    1  A    between atoms: C_1  and  O_2
REMARK    2  A    between atoms: O_2  and  C_3
REMARK    3  A    between atoms: C_6  and  C_7
REMARK    4  A    between atoms: C_8  and  C_9
REMARK    5  A    between atoms: C_9  and  C_11
REMARK    6  A    between atoms: C_17  and  O_18
REMARK    7  A    between atoms: N_21  and  C_22
REMARK    8  A    between atoms: C_22  and  C_23
REMARK    9  A    between atoms: C_23  and  C_24
REMARK   10  A    between atoms: C_23  and  O_25
REMARK   11  A    between atoms: C_26  and  O_27
REMARK   12  A    between atoms: O_27  and  C_28
REMARK                            x       y       z     vdW  Elec       q    Type
REMARK                         _______ _______ _______ _____ _____    ______ ____
ROOT
ATOM      1  C   UNL     1      -0.940  12.839  20.930  0.00  0.00    +0.000 C 
ATOM      2  C   UNL     1      -0.956  12.339  19.516  0.00  0.00    +0.000 C 
ATOM      3  C   UNL     1      -0.640  13.311  18.644  0.00  0.00    +0.000 C 
ATOM      4  C   UNL     1      -0.313  14.526  19.425  0.00  0.00    +0.000 C 
ATOM      5  O   UNL     1       0.159  15.549  18.967  0.00  0.00    +0.000 OA
ATOM      6  N   UNL     1      -0.644  14.252  20.742  0.00  0.00    +0.000 N 
ENDROOT
BRANCH   1  10
ATOM      7  C   UNL     1      -4.518  12.594  23.359  0.00  0.00    +0.000 A 
ATOM      8  C   UNL     1      -4.572  13.144  22.080  0.00  0.00    +0.000 A 
ATOM      9  C   UNL     1      -3.431  13.192  21.281  0.00  0.00    +0.000 A 
ATOM     10  C   UNL     1      -2.214  12.656  21.737  0.00  0.00    +0.000 A 
ATOM     11  C   UNL     1      -2.179  12.044  23.009  0.00  0.00    +0.000 A 
ATOM     12  C   UNL     1      -3.325  12.035  23.816  0.00  0.00    +0.000 A 
BRANCH   7  14
ATOM     13  C   UNL     1      -6.629  13.652  23.649  0.00  0.00    +0.000 C 
ATOM     14  O   UNL     1      -5.690  12.665  24.061  0.00  0.00    +0.000 OA
ENDBRANCH   7  14
BRANCH  11  15
ATOM     15  O   UNL     1      -0.972  11.504  23.384  0.00  0.00    +0.000 OA
ATOM     16  C   UNL     1      -0.768  10.113  23.153  0.00  0.00    +0.000 C 
ENDBRANCH  11  15
ENDBRANCH   1  10
BRANCH   2  17
ATOM     17  C   UNL     1      -1.315  10.996  19.008  0.00  0.00    +0.000 C 
ATOM     18  O   UNL     1      -0.792  10.006  19.527  0.00  0.00    +0.000 OA
BRANCH  17  19
ATOM     19  C   UNL     1      -2.249  10.784  17.870  0.00  0.00    +0.000 A 
ATOM     20  C   UNL     1      -3.487  11.445  17.920  0.00  0.00    +0.000 A 
ATOM     21  C   UNL     1      -4.418  11.292  16.890  0.00  0.00    +0.000 A 
ATOM     22  C   UNL     1      -4.126  10.468  15.807  0.00  0.00    +0.000 A 
ATOM     23  C   UNL     1      -2.892   9.827  15.736  0.00  0.00    +0.000 A 
ATOM     24  C   UNL     1      -1.945  10.011  16.747  0.00  0.00    +0.000 A 
ENDBRANCH  17  19
ENDBRANCH   2  17
BRANCH   3  25
ATOM     25  O   UNL     1      -0.605  13.261  17.278  0.00  0.00    +0.000 OA
ATOM     26  H   UNL     1      -0.746  12.324  17.020  0.00  0.00    +0.000 HD
ENDBRANCH   3  25
BRANCH   6  27
ATOM     27  C   UNL     1      -0.249  15.090  21.873  0.00  0.00    +0.000 C 
BRANCH  27  28
ATOM     28  C   UNL     1      -1.260  16.147  22.340  0.00  0.00    +0.000 C 
ATOM     29  C   UNL     1      -1.910  15.801  23.676  0.00  0.00    +0.000 C 
BRANCH  28  30
ATOM     30  O   UNL     1      -0.578  17.403  22.476  0.00  0.00    +0.000 OA
ATOM     31  H   UNL     1       0.356  17.262  22.251  0.00  0.00    +0.000 HD
ENDBRANCH  28  30
ENDBRANCH  27  28
ENDBRANCH   6  27
TORSDOF 9
ENDMDL
MODEL 9
REMARK VINA RESULT:      -6.1      1.156      1.248
REMARK  Name = 
REMARK  12 active torsions:
REMARK  status: ('A' for Active; 'I' for Inactive)
REMARK    1  A    between atoms: C_1  and  O_2
REMARK    2  A    between atoms: O_2  and  C_3
REMARK    3  A    between atoms: C_6  and  C_7
REMARK    4  A    between atoms: C_8  and  C_9
REMARK    5  A    between atoms: C_9  and  C_11
REMARK    6  A    between atoms: C_17  and  O_18
REMARK    7  A    between atoms: N_21  and  C_22
REMARK    8  A    between atoms: C_22  and  C_23
REMARK    9  A    between atoms: C_23  and  C_24
REMARK   10  A    between atoms: C_23  and  O_25
REMARK   11  A    between atoms: C_26  and  O_27
REMARK   12  A    between atoms: O_27  and  C_28
REMARK                            x       y       z     vdW  Elec       q    Type
REMARK                         _______ _______ _______ _____ _____    ______ ____
ROOT
ATOM      1  C   UNL     1       1.192  12.585  20.733  0.00  0.00    +0.000 C 
ATOM      2  C   UNL     1       1.328  11.942  19.386  0.00  0.00    +0.000 C 
ATOM      3  C   UNL     1       2.086  12.681  18.558  0.00  0.00    +0.000 C 
ATOM      4  C   UNL     1       2.579  13.848  19.325  0.00  0.00    +0.000 C 
ATOM      5  O   UNL     1       3.412  14.644  18.934  0.00  0.00    +0.000 OA
ATOM      6  N   UNL     1       1.916  13.833  20.541  0.00  0.00    +0.000 N 
ENDROOT
BRANCH   1  10
ATOM      7  C   UNL     1      -2.715  13.552  22.335  0.00  0.00    +0.000 A 
ATOM      8  C   UNL     1      -2.230  14.218  21.212  0.00  0.00    +0.000 A 
ATOM      9  C   UNL     1      -0.990  13.885  20.671  0.00  0.00    +0.000 A 
ATOM     10  C   UNL     1      -0.219  12.850  21.228  0.00  0.00    +0.000 A 
ATOM     11  C   UNL     1      -0.742  12.135  22.329  0.00  0.00    +0.000 A 
ATOM     12  C   UNL     1      -1.975  12.504  22.885  0.00  0.00    +0.000 A 
BRANCH   7  14
ATOM     13  C   UNL     1      -4.792  13.061  23.384  0.00  0.00    +0.000 C 
ATOM     14  O   UNL     1      -3.913  14.016  22.801  0.00  0.00    +0.000 OA
ENDBRANCH   7  14
BRANCH  11  15
ATOM     15  O   UNL     1       0.038  11.109  22.806  0.00  0.00    +0.000 OA
ATOM     16  C   UNL     1      -0.611   9.888  23.150  0.00  0.00    +0.000 C 
ENDBRANCH  11  15
ENDBRANCH   1  10
BRANCH   2  17
ATOM     17  C   UNL     1       0.710  10.694  18.883  0.00  0.00    +0.000 C 
ATOM     18  O   UNL     1      -0.375  10.764  18.298  0.00  0.00    +0.000 OA
BRANCH  17  19
ATOM     19  C   UNL     1       1.316   9.352  19.086  0.00  0.00    +0.000 A 
ATOM     20  C   UNL     1       1.993   8.778  17.997  0.00  0.00    +0.000 A 
ATOM     21  C   UNL     1       2.584   7.518  18.110  0.00  0.00    +0.000 A 
ATOM     22  C   UNL     1       2.496   6.814  19.308  0.00  0.00    +0.000 A 
ATOM     23  C   UNL     1       1.848   7.383  20.400  0.00  0.00    +0.000 A 
ATOM     24  C   UNL     1       1.290   8.661  20.300  0.00  0.00    +0.000 A 
ENDBRANCH  17  19
ENDBRANCH   2  17
BRANCH   3  25
ATOM     25  O   UNL     1       2.390  12.461  17.243  0.00  0.00    +0.000 OA
ATOM     26  H   UNL     1       1.607  12.028  16.835  0.00  0.00    +0.000 HD
ENDBRANCH   3  25
BRANCH   6  27
ATOM     27  C   UNL     1       2.291  14.664  21.684  0.00  0.00    +0.000 C 
BRANCH  27  28
ATOM     28  C   UNL     1       1.860  16.137  21.643  0.00  0.00    +0.000 C 
ATOM     29  C   UNL     1       1.573  16.714  23.025  0.00  0.00    +0.000 C 
BRANCH  28  30
ATOM     30  O   UNL     1       2.913  16.904  21.038  0.00  0.00    +0.000 OA
ATOM     31  H   UNL     1       3.299  16.372  20.323  0.00  0.00    +0.000 HD
ENDBRANCH  28  30
ENDBRANCH  27  28
ENDBRANCH   6  27
TORSDOF 9
ENDMDL
