MODEL 1
REMARK VINA RESULT:      -7.4      0.000      0.000
REMARK  Name = 
REMARK  6 active torsions:
REMARK  status: ('A' for Active; 'I' for Inactive)
REMARK    1  A    between atoms: C_1  and  C_2
REMARK    2  A    between atoms: N_4  and  C_5
REMARK    3  A    between atoms: C_7  and  C_8
REMARK    4  A    between atoms: C_8  and  O_9
REMARK    5  A    between atoms: C_10  and  O_11
REMARK    6  A    between atoms: C_12  and  O_13
REMARK                            x       y       z     vdW  Elec       q    Type
REMARK                         _______ _______ _______ _____ _____    ______ ____
ROOT
ATOM      1  C   UNL     1       4.415   3.510  19.365  0.00  0.00    +0.000 C 
ATOM      2  S   UNL     1       3.562   2.008  18.757  0.00  0.00    +0.000 S 
ATOM      3  C   UNL     1       1.991   2.320  19.641  0.00  0.00    +0.000 C 
ATOM      4  C   UNL     1       2.303   3.439  20.652  0.00  0.00    +0.000 C 
ATOM      5  C   UNL     1       3.351   4.402  20.060  0.00  0.00    +0.000 C 
ENDROOT
BRANCH   1   9
ATOM      6  C   UNL     1       5.410   4.303  14.548  0.00  0.00    +0.000 C 
ATOM      7  C   UNL     1       5.699   4.482  16.001  0.00  0.00    +0.000 A 
ATOM      8  C   UNL     1       4.983   3.924  16.983  0.00  0.00    +0.000 A 
ATOM      9  N   UNL     1       5.242   4.131  18.325  0.00  0.00    +0.000 N 
ATOM     10  C   UNL     1       6.305   4.929  18.731  0.00  0.00    +0.000 A 
ATOM     11  O   UNL     1       6.572   5.187  19.903  0.00  0.00    +0.000 OA
ATOM     12  N   UNL     1       7.079   5.443  17.726  0.00  0.00    +0.000 N 
ATOM     13  C   UNL     1       6.841   5.336  16.384  0.00  0.00    +0.000 A 
ATOM     14  O   UNL     1       7.528   5.912  15.551  0.00  0.00    +0.000 OA
ATOM     15  H   UNL     1       7.847   6.030  18.003  0.00  0.00    +0.000 HD
ENDBRANCH   1   9
BRANCH   4  16
ATOM     16  O   UNL     1       2.786   2.867  21.876  0.00  0.00    +0.000 OA
ATOM     17  H   UNL     1       2.108   2.275  22.248  0.00  0.00    +0.000 HD
ENDBRANCH   4  16
BRANCH   5  18
ATOM     18  O   UNL     1       2.738   5.389  19.228  0.00  0.00    +0.000 OA
ATOM     19  H   UNL     1       1.838   5.085  18.981  0.00  0.00    +0.000 HD
ENDBRANCH   5  18
BRANCH   3  20
ATOM     20  C   UNL     1       0.894   2.659  18.628  0.00  0.00    +0.000 C 
BRANCH  20  21
ATOM     21  O   UNL     1       1.390   3.409  17.522  0.00  0.00    +0.000 OA
ATOM     22  H   UNL     1       0.600   3.684  17.015  0.00  0.00    +0.000 HD
ENDBRANCH  20  21
ENDBRANCH   3  20
TORSDOF 5
ENDMDL
MODEL 2
REMARK VINA RESULT:      -6.9      1.540      2.317
REMARK  Name = 
REMARK  6 active torsions:
REMARK  status: ('A' for Active; 'I' for Inactive)
REMARK    1  A    between atoms: C_1  and  C_2
REMARK    2  A    between atoms: N_4  and  C_5
REMARK    3  A    between atoms: C_7  and  C_8
REMARK    4  A    between atoms: C_8  and  O_9
REMARK    5  A    between atoms: C_10  and  O_11
REMARK    6  A    between atoms: C_12  and  O_13
REMARK                            x       y       z     vdW  Elec       q    Type
REMARK                         _______ _______ _______ _____ _____    ______ ____
ROOT
ATOM      1  C   UNL     1       3.378   3.623  17.836  0.00  0.00    +0.000 C 
ATOM      2  S   UNL     1       2.136   4.676  18.674  0.00  0.00    +0.000 S 
ATOM      3  C   UNL     1       1.667   3.435  19.934  0.00  0.00    +0.000 C 
ATOM      4  C   UNL     1       2.278   2.107  19.451  0.00  0.00    +0.000 C 
ATOM      5  C   UNL     1       3.613   2.376  18.729  0.00  0.00    +0.000 C 
ENDROOT
BRANCH   1   9
ATOM      6  C   UNL     1       6.742   4.825  14.362  0.00  0.00    +0.000 C 
ATOM      7  C   UNL     1       6.165   4.936  15.734  0.00  0.00    +0.000 A 
ATOM      8  C   UNL     1       5.102   4.247  16.159  0.00  0.00    +0.000 A 
ATOM      9  N   UNL     1       4.558   4.389  17.422  0.00  0.00    +0.000 N 
ATOM     10  C   UNL     1       5.122   5.262  18.346  0.00  0.00    +0.000 A 
ATOM     11  O   UNL     1       4.672   5.467  19.471  0.00  0.00    +0.000 OA
ATOM     12  N   UNL     1       6.252   5.916  17.934  0.00  0.00    +0.000 N 
ATOM     13  C   UNL     1       6.801   5.873  16.682  0.00  0.00    +0.000 A 
ATOM     14  O   UNL     1       7.757   6.569  16.365  0.00  0.00    +0.000 OA
ATOM     15  H   UNL     1       6.667   6.556  18.588  0.00  0.00    +0.000 HD
ENDBRANCH   1   9
BRANCH   4  16
ATOM     16  O   UNL     1       1.360   1.442  18.570  0.00  0.00    +0.000 OA
ATOM     17  H   UNL     1       0.458   1.770  18.734  0.00  0.00    +0.000 HD
ENDBRANCH   4  16
BRANCH   5  18
ATOM     18  O   UNL     1       4.693   2.480  19.659  0.00  0.00    +0.000 OA
ATOM     19  H   UNL     1       4.330   2.665  20.552  0.00  0.00    +0.000 HD
ENDBRANCH   5  18
BRANCH   3  20
ATOM     20  C   UNL     1       2.150   3.899  21.311  0.00  0.00    +0.000 C 
BRANCH  20  21
ATOM     21  O   UNL     1       2.628   2.819  22.110  0.00  0.00    +0.000 OA
ATOM     22  H   UNL     1       2.226   2.012  21.729  0.00  0.00    +0.000 HD
ENDBRANCH  20  21
ENDBRANCH   3  20
TORSDOF 5
ENDMDL
MODEL 3
REMARK VINA RESULT:      -6.8      1.615      2.457
REMARK  Name = 
REMARK  6 active torsions:
REMARK  status: ('A' for Active; 'I' for Inactive)
REMARK    1  A    between atoms: C_1  and  C_2
REMARK    2  A    between atoms: N_4  and  C_5
REMARK    3  A    between atoms: C_7  and  C_8
REMARK    4  A    between atoms: C_8  and  O_9
REMARK    5  A    between atoms: C_10  and  O_11
REMARK    6  A    between atoms: C_12  and  O_13
REMARK                            x       y       z     vdW  Elec       q    Type
REMARK                         _______ _______ _______ _____ _____    ______ ____
ROOT
ATOM      1  C   UNL     1       2.851   3.541  17.802  0.00  0.00    +0.000 C 
ATOM      2  S   UNL     1       2.200   4.866  18.885  0.00  0.00    +0.000 S 
ATOM      3  C   UNL     1       1.340   3.745  20.048  0.00  0.00    +0.000 C 
ATOM      4  C   UNL     1       1.324   2.369  19.357  0.00  0.00    +0.000 C 
ATOM      5  C   UNL     1       2.607   2.188  18.523  0.00  0.00    +0.000 C 
ENDROOT
BRANCH   1   9
ATOM      6  C   UNL     1       6.126   4.105  14.090  0.00  0.00    +0.000 C 
ATOM      7  C   UNL     1       5.765   4.080  15.538  0.00  0.00    +0.000 A 
ATOM      8  C   UNL     1       4.541   3.809  16.001  0.00  0.00    +0.000 A 
ATOM      9  N   UNL     1       4.215   3.827  17.345  0.00  0.00    +0.000 N 
ATOM     10  C   UNL     1       5.177   4.108  18.307  0.00  0.00    +0.000 A 
ATOM     11  O   UNL     1       4.953   4.177  19.514  0.00  0.00    +0.000 OA
ATOM     12  N   UNL     1       6.446   4.317  17.837  0.00  0.00    +0.000 N 
ATOM     13  C   UNL     1       6.822   4.381  16.524  0.00  0.00    +0.000 A 
ATOM     14  O   UNL     1       7.962   4.673  16.185  0.00  0.00    +0.000 OA
ATOM     15  H   UNL     1       7.151   4.530  18.520  0.00  0.00    +0.000 HD
ENDBRANCH   1   9
BRANCH   4  16
ATOM     16  O   UNL     1       0.165   2.260  18.518  0.00  0.00    +0.000 OA
ATOM     17  H   UNL     1       0.432   1.955  17.633  0.00  0.00    +0.000 HD
ENDBRANCH   4  16
BRANCH   5  18
ATOM     18  O   UNL     1       3.689   1.717  19.330  0.00  0.00    +0.000 OA
ATOM     19  H   UNL     1       3.885   0.786  19.089  0.00  0.00    +0.000 HD
ENDBRANCH   5  18
BRANCH   3  20
ATOM     20  C   UNL     1       2.050   3.773  21.403  0.00  0.00    +0.000 C 
BRANCH  20  21
ATOM     21  O   UNL     1       2.205   2.470  21.961  0.00  0.00    +0.000 OA
ATOM     22  H   UNL     1       2.352   1.874  21.200  0.00  0.00    +0.000 HD
ENDBRANCH  20  21
ENDBRANCH   3  20
TORSDOF 5
ENDMDL
MODEL 4
REMARK VINA RESULT:      -6.6      1.610      2.229
REMARK  Name = 
REMARK  6 active torsions:
REMARK  status: ('A' for Active; 'I' for Inactive)
REMARK    1  A    between atoms: C_1  and  C_2
REMARK    2  A    between atoms: N_4  and  C_5
REMARK    3  A    between atoms: C_7  and  C_8
REMARK    4  A    between atoms: C_8  and  O_9
REMARK    5  A    between atoms: C_10  and  O_11
REMARK    6  A    between atoms: C_12  and  O_13
REMARK                            x       y       z     vdW  Elec       q    Type
REMARK                         _______ _______ _______ _____ _____    ______ ____
ROOT
ATOM      1  C   UNL     1       3.414   3.345  17.590  0.00  0.00    +0.000 C 
ATOM      2  S   UNL     1       2.191   4.555  18.220  0.00  0.00    +0.000 S 
ATOM      3  C   UNL     1       1.775   3.620  19.736  0.00  0.00    +0.000 C 
ATOM      4  C   UNL     1       2.381   2.219  19.535  0.00  0.00    +0.000 C 
ATOM      5  C   UNL     1       3.688   2.325  18.727  0.00  0.00    +0.000 C 
ENDROOT
BRANCH   1   9
ATOM      6  C   UNL     1       6.424   4.023  13.678  0.00  0.00    +0.000 C 
ATOM      7  C   UNL     1       6.007   4.298  15.084  0.00  0.00    +0.000 A 
ATOM      8  C   UNL     1       4.969   3.711  15.687  0.00  0.00    +0.000 A 
ATOM      9  N   UNL     1       4.573   4.004  16.979  0.00  0.00    +0.000 N 
ATOM     10  C   UNL     1       5.272   4.930  17.744  0.00  0.00    +0.000 A 
ATOM     11  O   UNL     1       4.957   5.268  18.884  0.00  0.00    +0.000 OA
ATOM     12  N   UNL     1       6.376   5.480  17.151  0.00  0.00    +0.000 N 
ATOM     13  C   UNL     1       6.782   5.287  15.859  0.00  0.00    +0.000 A 
ATOM     14  O   UNL     1       7.726   5.897  15.374  0.00  0.00    +0.000 OA
ATOM     15  H   UNL     1       6.887   6.159  17.689  0.00  0.00    +0.000 HD
ENDBRANCH   1   9
BRANCH   4  16
ATOM     16  O   UNL     1       1.440   1.376  18.853  0.00  0.00    +0.000 OA
ATOM     17  H   UNL     1       1.317   1.697  17.942  0.00  0.00    +0.000 HD
ENDBRANCH   4  16
BRANCH   5  18
ATOM     18  O   UNL     1       4.798   2.631  19.574  0.00  0.00    +0.000 OA
ATOM     19  H   UNL     1       5.408   3.234  19.096  0.00  0.00    +0.000 HD
ENDBRANCH   5  18
BRANCH   3  20
ATOM     20  C   UNL     1       2.299   4.375  20.961  0.00  0.00    +0.000 C 
BRANCH  20  21
ATOM     21  O   UNL     1       2.841   5.648  20.621  0.00  0.00    +0.000 OA
ATOM     22  H   UNL     1       2.076   6.197  20.353  0.00  0.00    +0.000 HD
ENDBRANCH  20  21
ENDBRANCH   3  20
TORSDOF 5
ENDMDL
MODEL 5
REMARK VINA RESULT:      -6.6      1.249      1.302
REMARK  Name = 
REMARK  6 active torsions:
REMARK  status: ('A' for Active; 'I' for Inactive)
REMARK    1  A    between atoms: C_1  and  C_2
REMARK    2  A    between atoms: N_4  and  C_5
REMARK    3  A    between atoms: C_7  and  C_8
REMARK    4  A    between atoms: C_8  and  O_9
REMARK    5  A    between atoms: C_10  and  O_11
REMARK    6  A    between atoms: C_12  and  O_13
REMARK                            x       y       z     vdW  Elec       q    Type
REMARK                         _______ _______ _______ _____ _____    ______ ____
ROOT
ATOM      1  C   UNL     1       4.641   4.639  18.719  0.00  0.00    +0.000 C 
ATOM      2  S   UNL     1       3.898   2.965  18.756  0.00  0.00    +0.000 S 
ATOM      3  C   UNL     1       2.278   3.500  19.415  0.00  0.00    +0.000 C 
ATOM      4  C   UNL     1       2.486   4.950  19.892  0.00  0.00    +0.000 C 
ATOM      5  C   UNL     1       3.503   5.660  18.978  0.00  0.00    +0.000 C 
ENDROOT
BRANCH   1   9
ATOM      6  C   UNL     1       5.508   3.858  13.875  0.00  0.00    +0.000 C 
ATOM      7  C   UNL     1       5.867   4.438  15.202  0.00  0.00    +0.000 A 
ATOM      8  C   UNL     1       5.148   4.266  16.315  0.00  0.00    +0.000 A 
ATOM      9  N   UNL     1       5.475   4.842  17.529  0.00  0.00    +0.000 N 
ATOM     10  C   UNL     1       6.614   5.628  17.660  0.00  0.00    +0.000 A 
ATOM     11  O   UNL     1       6.946   6.200  18.696  0.00  0.00    +0.000 OA
ATOM     12  N   UNL     1       7.387   5.746  16.537  0.00  0.00    +0.000 N 
ATOM     13  C   UNL     1       7.089   5.262  15.293  0.00  0.00    +0.000 A 
ATOM     14  O   UNL     1       7.787   5.499  14.316  0.00  0.00    +0.000 OA
ATOM     15  H   UNL     1       8.210   6.318  16.614  0.00  0.00    +0.000 HD
ENDBRANCH   1   9
BRANCH   4  16
ATOM     16  O   UNL     1       2.950   4.952  21.251  0.00  0.00    +0.000 OA
ATOM     17  H   UNL     1       2.392   5.547  21.783  0.00  0.00    +0.000 HD
ENDBRANCH   4  16
BRANCH   5  18
ATOM     18  O   UNL     1       2.870   6.187  17.809  0.00  0.00    +0.000 OA
ATOM     19  H   UNL     1       3.371   5.895  17.017  0.00  0.00    +0.000 HD
ENDBRANCH   5  18
BRANCH   3  20
ATOM     20  C   UNL     1       1.206   3.330  18.336  0.00  0.00    +0.000 C 
BRANCH  20  21
ATOM     21  O   UNL     1       1.750   3.379  17.019  0.00  0.00    +0.000 OA
ATOM     22  H   UNL     1       2.721   3.390  17.136  0.00  0.00    +0.000 HD
ENDBRANCH  20  21
ENDBRANCH   3  20
TORSDOF 5
ENDMDL
MODEL 6
REMARK VINA RESULT:      -6.4      1.505      2.118
REMARK  Name = 
REMARK  6 active torsions:
REMARK  status: ('A' for Active; 'I' for Inactive)
REMARK    1  A    between atoms: C_1  and  C_2
REMARK    2  A    between atoms: N_4  and  C_5
REMARK    3  A    between atoms: C_7  and  C_8
REMARK    4  A    between atoms: C_8  and  O_9
REMARK    5  A    between atoms: C_10  and  O_11
REMARK    6  A    between atoms: C_12  and  O_13
REMARK                            x       y       z     vdW  Elec       q    Type
REMARK                         _______ _______ _______ _____ _____    ______ ____
ROOT
ATOM      1  C   UNL     1       4.166   4.029  19.802  0.00  0.00    +0.000 C 
ATOM      2  S   UNL     1       3.787   2.277  19.428  0.00  0.00    +0.000 S 
ATOM      3  C   UNL     1       2.034   2.355  19.947  0.00  0.00    +0.000 C 
ATOM      4  C   UNL     1       1.890   3.686  20.708  0.00  0.00    +0.000 C 
ATOM      5  C   UNL     1       2.820   4.747  20.088  0.00  0.00    +0.000 C 
ENDROOT
BRANCH   1   9
ATOM      6  C   UNL     1       8.154   6.787  18.656  0.00  0.00    +0.000 C 
ATOM      7  C   UNL     1       6.966   5.965  18.280  0.00  0.00    +0.000 A 
ATOM      8  C   UNL     1       6.125   5.415  19.160  0.00  0.00    +0.000 A 
ATOM      9  N   UNL     1       5.050   4.626  18.796  0.00  0.00    +0.000 N 
ATOM     10  C   UNL     1       4.769   4.381  17.457  0.00  0.00    +0.000 A 
ATOM     11  O   UNL     1       3.854   3.662  17.060  0.00  0.00    +0.000 OA
ATOM     12  N   UNL     1       5.589   5.002  16.553  0.00  0.00    +0.000 N 
ATOM     13  C   UNL     1       6.705   5.736  16.844  0.00  0.00    +0.000 A 
ATOM     14  O   UNL     1       7.444   6.174  15.972  0.00  0.00    +0.000 OA
ATOM     15  H   UNL     1       5.403   4.827  15.581  0.00  0.00    +0.000 HD
ENDBRANCH   1   9
BRANCH   4  16
ATOM     16  O   UNL     1       2.209   3.491  22.094  0.00  0.00    +0.000 OA
ATOM     17  H   UNL     1       1.756   4.167  22.630  0.00  0.00    +0.000 HD
ENDBRANCH   4  16
BRANCH   5  18
ATOM     18  O   UNL     1       2.209   5.379  18.961  0.00  0.00    +0.000 OA
ATOM     19  H   UNL     1       2.668   5.088  18.144  0.00  0.00    +0.000 HD
ENDBRANCH   5  18
BRANCH   3  20
ATOM     20  C   UNL     1       1.131   2.218  18.719  0.00  0.00    +0.000 C 
BRANCH  20  21
ATOM     21  O   UNL     1       1.859   1.848  17.550  0.00  0.00    +0.000 OA
ATOM     22  H   UNL     1       2.230   2.682  17.197  0.00  0.00    +0.000 HD
ENDBRANCH  20  21
ENDBRANCH   3  20
TORSDOF 5
ENDMDL
MODEL 7
REMARK VINA RESULT:      -6.2      2.359      5.803
REMARK  Name = 
REMARK  6 active torsions:
REMARK  status: ('A' for Active; 'I' for Inactive)
REMARK    1  A    between atoms: C_1  and  C_2
REMARK    2  A    between atoms: N_4  and  C_5
REMARK    3  A    between atoms: C_7  and  C_8
REMARK    4  A    between atoms: C_8  and  O_9
REMARK    5  A    between atoms: C_10  and  O_11
REMARK    6  A    between atoms: C_12  and  O_13
REMARK                            x       y       z     vdW  Elec       q    Type
REMARK                         _______ _______ _______ _____ _____    ______ ____
ROOT
ATOM      1  C   UNL     1       5.523   4.213  18.432  0.00  0.00    +0.000 C 
ATOM      2  S   UNL     1       6.488   5.516  19.283  0.00  0.00    +0.000 S 
ATOM      3  C   UNL     1       7.353   6.109  17.784  0.00  0.00    +0.000 C 
ATOM      4  C   UNL     1       7.092   5.039  16.707  0.00  0.00    +0.000 C 
ATOM      5  C   UNL     1       5.690   4.430  16.905  0.00  0.00    +0.000 C 
ENDROOT
BRANCH   1   9
ATOM      6  C   UNL     1       1.614   6.297  20.712  0.00  0.00    +0.000 C 
ATOM      7  C   UNL     1       2.300   5.141  20.063  0.00  0.00    +0.000 A 
ATOM      8  C   UNL     1       3.548   5.181  19.587  0.00  0.00    +0.000 A 
ATOM      9  N   UNL     1       4.156   4.112  18.955  0.00  0.00    +0.000 N 
ATOM     10  C   UNL     1       3.490   2.902  18.804  0.00  0.00    +0.000 A 
ATOM     11  O   UNL     1       3.953   1.923  18.222  0.00  0.00    +0.000 OA
ATOM     12  N   UNL     1       2.238   2.840  19.354  0.00  0.00    +0.000 N 
ATOM     13  C   UNL     1       1.553   3.874  19.929  0.00  0.00    +0.000 A 
ATOM     14  O   UNL     1       0.395   3.761  20.306  0.00  0.00    +0.000 OA
ATOM     15  H   UNL     1       1.740   1.973  19.245  0.00  0.00    +0.000 HD
ENDBRANCH   1   9
BRANCH   4  16
ATOM     16  O   UNL     1       8.096   4.016  16.785  0.00  0.00    +0.000 OA
ATOM     17  H   UNL     1       8.000   3.531  17.624  0.00  0.00    +0.000 HD
ENDBRANCH   4  16
BRANCH   5  18
ATOM     18  O   UNL     1       4.684   5.232  16.283  0.00  0.00    +0.000 OA
ATOM     19  H   UNL     1       4.032   5.509  16.963  0.00  0.00    +0.000 HD
ENDBRANCH   5  18
BRANCH   3  20
ATOM     20  C   UNL     1       6.853   7.512  17.427  0.00  0.00    +0.000 C 
BRANCH  20  21
ATOM     21  O   UNL     1       7.915   8.458  17.333  0.00  0.00    +0.000 OA
ATOM     22  H   UNL     1       8.448   8.338  18.145  0.00  0.00    +0.000 HD
ENDBRANCH  20  21
ENDBRANCH   3  20
TORSDOF 5
ENDMDL
MODEL 8
REMARK VINA RESULT:      -6.2      2.356      5.566
REMARK  Name = 
REMARK  6 active torsions:
REMARK  status: ('A' for Active; 'I' for Inactive)
REMARK    1  A    between atoms: C_1  and  C_2
REMARK    2  A    between atoms: N_4  and  C_5
REMARK    3  A    between atoms: C_7  and  C_8
REMARK    4  A    between atoms: C_8  and  O_9
REMARK    5  A    between atoms: C_10  and  O_11
REMARK    6  A    between atoms: C_12  and  O_13
REMARK                            x       y       z     vdW  Elec       q    Type
REMARK                         _______ _______ _______ _____ _____    ______ ____
ROOT
ATOM      1  C   UNL     1       5.598   4.053  18.773  0.00  0.00    +0.000 C 
ATOM      2  S   UNL     1       6.269   5.732  19.069  0.00  0.00    +0.000 S 
ATOM      3  C   UNL     1       6.701   6.066  17.323  0.00  0.00    +0.000 C 
ATOM      4  C   UNL     1       6.598   4.706  16.607  0.00  0.00    +0.000 C 
ATOM      5  C   UNL     1       5.471   3.866  17.238  0.00  0.00    +0.000 C 
ENDROOT
BRANCH   1   9
ATOM      6  C   UNL     1       1.268   5.577  20.710  0.00  0.00    +0.000 C 
ATOM      7  C   UNL     1       2.337   4.554  20.512  0.00  0.00    +0.000 A 
ATOM      8  C   UNL     1       3.445   4.757  19.792  0.00  0.00    +0.000 A 
ATOM      9  N   UNL     1       4.408   3.787  19.587  0.00  0.00    +0.000 N 
ATOM     10  C   UNL     1       4.280   2.526  20.158  0.00  0.00    +0.000 A 
ATOM     11  O   UNL     1       5.076   1.604  19.990  0.00  0.00    +0.000 OA
ATOM     12  N   UNL     1       3.180   2.341  20.952  0.00  0.00    +0.000 N 
ATOM     13  C   UNL     1       2.159   3.230  21.141  0.00  0.00    +0.000 A 
ATOM     14  O   UNL     1       1.159   2.948  21.788  0.00  0.00    +0.000 OA
ATOM     15  H   UNL     1       3.070   1.431  21.365  0.00  0.00    +0.000 HD
ENDBRANCH   1   9
BRANCH   4  16
ATOM     16  O   UNL     1       7.851   4.011  16.701  0.00  0.00    +0.000 OA
ATOM     17  H   UNL     1       7.703   3.057  16.570  0.00  0.00    +0.000 HD
ENDBRANCH   4  16
BRANCH   5  18
ATOM     18  O   UNL     1       4.199   4.202  16.680  0.00  0.00    +0.000 OA
ATOM     19  H   UNL     1       3.677   4.694  17.350  0.00  0.00    +0.000 HD
ENDBRANCH   5  18
BRANCH   3  20
ATOM     20  C   UNL     1       5.778   7.153  16.768  0.00  0.00    +0.000 C 
BRANCH  20  21
ATOM     21  O   UNL     1       5.282   6.833  15.471  0.00  0.00    +0.000 OA
ATOM     22  H   UNL     1       5.609   7.542  14.882  0.00  0.00    +0.000 HD
ENDBRANCH  20  21
ENDBRANCH   3  20
TORSDOF 5
ENDMDL
MODEL 9
REMARK VINA RESULT:      -6.1      1.981      2.712
REMARK  Name = 
REMARK  6 active torsions:
REMARK  status: ('A' for Active; 'I' for Inactive)
REMARK    1  A    between atoms: C_1  and  C_2
REMARK    2  A    between atoms: N_4  and  C_5
REMARK    3  A    between atoms: C_7  and  C_8
REMARK    4  A    between atoms: C_8  and  O_9
REMARK    5  A    between atoms: C_10  and  O_11
REMARK    6  A    between atoms: C_12  and  O_13
REMARK                            x       y       z     vdW  Elec       q    Type
REMARK                         _______ _______ _______ _____ _____    ______ ____
ROOT
ATOM      1  C   UNL     1       5.397   4.751  17.368  0.00  0.00    +0.000 C 
ATOM      2  S   UNL     1       4.244   3.339  17.553  0.00  0.00    +0.000 S 
ATOM      3  C   UNL     1       2.987   4.256  18.515  0.00  0.00    +0.000 C 
ATOM      4  C   UNL     1       3.671   5.569  18.941  0.00  0.00    +0.000 C 
ATOM      5  C   UNL     1       4.652   6.026  17.844  0.00  0.00    +0.000 C 
ENDROOT
BRANCH   1   9
ATOM      6  C   UNL     1       5.448   3.310  12.599  0.00  0.00    +0.000 C 
ATOM      7  C   UNL     1       6.015   4.064  13.755  0.00  0.00    +0.000 A 
ATOM      8  C   UNL     1       5.497   4.051  14.987  0.00  0.00    +0.000 A 
ATOM      9  N   UNL     1       6.014   4.785  16.038  0.00  0.00    +0.000 N 
ATOM     10  C   UNL     1       7.145   5.574  15.867  0.00  0.00    +0.000 A 
ATOM     11  O   UNL     1       7.637   6.281  16.744  0.00  0.00    +0.000 OA
ATOM     12  N   UNL     1       7.716   5.533  14.623  0.00  0.00    +0.000 N 
ATOM     13  C   UNL     1       7.221   4.886  13.525  0.00  0.00    +0.000 A 
ATOM     14  O   UNL     1       7.740   4.982  12.421  0.00  0.00    +0.000 OA
ATOM     15  H   UNL     1       8.530   6.106  14.482  0.00  0.00    +0.000 HD
ENDBRANCH   1   9
BRANCH   4  16
ATOM     16  O   UNL     1       4.365   5.375  20.182  0.00  0.00    +0.000 OA
ATOM     17  H   UNL     1       3.720   5.315  20.909  0.00  0.00    +0.000 HD
ENDBRANCH   4  16
BRANCH   5  18
ATOM     18  O   UNL     1       3.980   6.764  16.821  0.00  0.00    +0.000 OA
ATOM     19  H   UNL     1       3.273   7.308  17.232  0.00  0.00    +0.000 HD
ENDBRANCH   5  18
BRANCH   3  20
ATOM     20  C   UNL     1       1.726   4.437  17.667  0.00  0.00    +0.000 C 
BRANCH  20  21
ATOM     21  O   UNL     1       0.773   3.399  17.883  0.00  0.00    +0.000 OA
ATOM     22  H   UNL     1       1.134   2.860  18.616  0.00  0.00    +0.000 HD
ENDBRANCH  20  21
ENDBRANCH   3  20
TORSDOF 5
ENDMDL
