MODEL 1
REMARK VINA RESULT:      -7.6      0.000      0.000
REMARK  Name = 
REMARK  10 active torsions:
REMARK  status: ('A' for Active; 'I' for Inactive)
REMARK    1  A    between atoms: C_1  and  O_2
REMARK    2  A    between atoms: O_2  and  C_3
REMARK    3  A    between atoms: C_7  and  N_8
REMARK    4  A    between atoms: N_8  and  C_9
REMARK    5  A    between atoms: C_9  and  C_10
REMARK    6  A    between atoms: C_10  and  C_11
REMARK    7  A    between atoms: C_11  and  C_12
REMARK    8  A    between atoms: C_15  and  C_16
REMARK    9  A    between atoms: C_22  and  C_23
REMARK   10  A    between atoms: C_22  and  C_24
REMARK                            x       y       z     vdW  Elec       q    Type
REMARK                         _______ _______ _______ _____ _____    ______ ____
ROOT
ATOM      1  C   UNL     1       4.966   5.115  17.519  0.00  0.00    +0.000 C 
ATOM      2  C   UNL     1       5.661   4.164  16.504  0.00  0.00    +0.000 C 
ATOM      3  C   UNL     1       7.022   4.669  16.037  0.00  0.00    +0.000 C 
ATOM      4  O   UNL     1       7.908   4.893  17.126  0.00  0.00    +0.000 OA
ATOM      5  C   UNL     1       7.447   5.832  18.099  0.00  0.00    +0.000 C 
ATOM      6  C   UNL     1       8.421   5.719  19.288  0.00  0.00    +0.000 C 
ATOM      7  C   UNL     1       7.560   7.271  17.574  0.00  0.00    +0.000 C 
ATOM      8  C   UNL     1       6.039   5.449  18.599  0.00  0.00    +0.000 C 
ENDROOT
BRANCH   1   9
ATOM      9  C   UNL     1       3.726   4.429  18.175  0.00  0.00    +0.000 A 
ATOM     10  C   UNL     1       2.517   4.259  17.478  0.00  0.00    +0.000 A 
ATOM     11  C   UNL     1       1.374   3.750  18.110  0.00  0.00    +0.000 A 
ATOM     12  C   UNL     1       1.397   3.410  19.462  0.00  0.00    +0.000 A 
ATOM     13  C   UNL     1       0.170   2.915  20.168  0.00  0.00    +0.000 C 
ATOM     14  C   UNL     1       2.590   3.560  20.169  0.00  0.00    +0.000 A 
ATOM     15  C   UNL     1       3.735   4.050  19.533  0.00  0.00    +0.000 A 
ENDBRANCH   1   9
BRANCH   1  16
ATOM     16  C   UNL     1       4.428   6.374  16.752  0.00  0.00    +0.000 C 
BRANCH  16  17
ATOM     17  C   UNL     1       4.081   7.557  17.660  0.00  0.00    +0.000 C 
BRANCH  17  18
ATOM     18  N   UNL     1       2.690   7.979  17.492  0.00  0.00    +0.000 N 
ATOM     19  H   UNL     1       2.593   8.747  16.832  0.00  0.00    +0.000 HD
BRANCH  18  24
ATOM     20  C   UNL     1       0.662   9.727  20.123  0.00  0.00    +0.000 A 
ATOM     21  C   UNL     1       0.750   8.799  21.158  0.00  0.00    +0.000 A 
ATOM     22  C   UNL     1       1.471   7.618  20.981  0.00  0.00    +0.000 A 
ATOM     23  C   UNL     1       2.098   7.356  19.760  0.00  0.00    +0.000 A 
ATOM     24  C   UNL     1       1.990   8.250  18.689  0.00  0.00    +0.000 A 
ATOM     25  C   UNL     1       1.294   9.451  18.908  0.00  0.00    +0.000 A 
BRANCH  20  27
ATOM     26  C   UNL     1      -0.693  10.910  21.681  0.00  0.00    +0.000 C 
ATOM     27  O   UNL     1      -0.045  10.864  20.413  0.00  0.00    +0.000 OA
ENDBRANCH  20  27
ENDBRANCH  18  24
ENDBRANCH  17  18
ENDBRANCH  16  17
ENDBRANCH   1  16
TORSDOF 6
ENDMDL
MODEL 2
REMARK VINA RESULT:      -7.6      2.407      6.099
REMARK  Name = 
REMARK  10 active torsions:
REMARK  status: ('A' for Active; 'I' for Inactive)
REMARK    1  A    between atoms: C_1  and  O_2
REMARK    2  A    between atoms: O_2  and  C_3
REMARK    3  A    between atoms: C_7  and  N_8
REMARK    4  A    between atoms: N_8  and  C_9
REMARK    5  A    between atoms: C_9  and  C_10
REMARK    6  A    between atoms: C_10  and  C_11
REMARK    7  A    between atoms: C_11  and  C_12
REMARK    8  A    between atoms: C_15  and  C_16
REMARK    9  A    between atoms: C_22  and  C_23
REMARK   10  A    between atoms: C_22  and  C_24
REMARK                            x       y       z     vdW  Elec       q    Type
REMARK                         _______ _______ _______ _____ _____    ______ ____
ROOT
ATOM      1  C   UNL     1       2.601   5.242  18.990  0.00  0.00    +0.000 C 
ATOM      2  C   UNL     1       1.726   4.496  17.942  0.00  0.00    +0.000 C 
ATOM      3  C   UNL     1       1.788   2.978  18.075  0.00  0.00    +0.000 C 
ATOM      4  O   UNL     1       1.407   2.542  19.373  0.00  0.00    +0.000 OA
ATOM      5  C   UNL     1       2.194   3.067  20.444  0.00  0.00    +0.000 C 
ATOM      6  C   UNL     1       1.454   2.681  21.739  0.00  0.00    +0.000 C 
ATOM      7  C   UNL     1       3.570   2.387  20.503  0.00  0.00    +0.000 C 
ATOM      8  C   UNL     1       2.252   4.608  20.371  0.00  0.00    +0.000 C 
ENDROOT
BRANCH   1   9
ATOM      9  C   UNL     1       2.287   6.772  18.998  0.00  0.00    +0.000 A 
ATOM     10  C   UNL     1       1.790   7.421  20.140  0.00  0.00    +0.000 A 
ATOM     11  C   UNL     1       1.401   8.768  20.105  0.00  0.00    +0.000 A 
ATOM     12  C   UNL     1       1.480   9.504  18.923  0.00  0.00    +0.000 A 
ATOM     13  C   UNL     1       1.018  10.929  18.853  0.00  0.00    +0.000 C 
ATOM     14  C   UNL     1       1.981   8.881  17.780  0.00  0.00    +0.000 A 
ATOM     15  C   UNL     1       2.388   7.543  17.822  0.00  0.00    +0.000 A 
ENDBRANCH   1   9
BRANCH   1  16
ATOM     16  C   UNL     1       4.110   5.096  18.591  0.00  0.00    +0.000 C 
BRANCH  16  17
ATOM     17  C   UNL     1       4.333   4.510  17.194  0.00  0.00    +0.000 C 
BRANCH  17  18
ATOM     18  N   UNL     1       5.349   5.255  16.449  0.00  0.00    +0.000 N 
ATOM     19  H   UNL     1       5.808   4.686  15.741  0.00  0.00    +0.000 HD
BRANCH  18  24
ATOM     20  C   UNL     1       7.586   7.947  17.805  0.00  0.00    +0.000 A 
ATOM     21  C   UNL     1       8.318   7.213  18.735  0.00  0.00    +0.000 A 
ATOM     22  C   UNL     1       8.070   5.851  18.905  0.00  0.00    +0.000 A 
ATOM     23  C   UNL     1       7.078   5.219  18.149  0.00  0.00    +0.000 A 
ATOM     24  C   UNL     1       6.298   5.941  17.239  0.00  0.00    +0.000 A 
ATOM     25  C   UNL     1       6.598   7.303  17.057  0.00  0.00    +0.000 A 
BRANCH  20  27
ATOM     26  C   UNL     1       8.872   9.764  18.645  0.00  0.00    +0.000 C 
ATOM     27  O   UNL     1       7.929   9.270  17.698  0.00  0.00    +0.000 OA
ENDBRANCH  20  27
ENDBRANCH  18  24
ENDBRANCH  17  18
ENDBRANCH  16  17
ENDBRANCH   1  16
TORSDOF 6
ENDMDL
MODEL 3
REMARK VINA RESULT:      -7.5      0.443      1.039
REMARK  Name = 
REMARK  10 active torsions:
REMARK  status: ('A' for Active; 'I' for Inactive)
REMARK    1  A    between atoms: C_1  and  O_2
REMARK    2  A    between atoms: O_2  and  C_3
REMARK    3  A    between atoms: C_7  and  N_8
REMARK    4  A    between atoms: N_8  and  C_9
REMARK    5  A    between atoms: C_9  and  C_10
REMARK    6  A    between atoms: C_10  and  C_11
REMARK    7  A    between atoms: C_11  and  C_12
REMARK    8  A    between atoms: C_15  and  C_16
REMARK    9  A    between atoms: C_22  and  C_23
REMARK   10  A    between atoms: C_22  and  C_24
REMARK                            x       y       z     vdW  Elec       q    Type
REMARK                         _______ _______ _______ _____ _____    ______ ____
ROOT
ATOM      1  C   UNL     1       4.921   5.181  17.613  0.00  0.00    +0.000 C 
ATOM      2  C   UNL     1       5.561   4.152  16.639  0.00  0.00    +0.000 C 
ATOM      3  C   UNL     1       6.948   4.562  16.153  0.00  0.00    +0.000 C 
ATOM      4  O   UNL     1       7.846   4.781  17.234  0.00  0.00    +0.000 OA
ATOM      5  C   UNL     1       7.439   5.783  18.167  0.00  0.00    +0.000 C 
ATOM      6  C   UNL     1       8.406   5.664  19.361  0.00  0.00    +0.000 C 
ATOM      7  C   UNL     1       7.631   7.191  17.584  0.00  0.00    +0.000 C 
ATOM      8  C   UNL     1       6.012   5.499  18.681  0.00  0.00    +0.000 C 
ENDROOT
BRANCH   1   9
ATOM      9  C   UNL     1       3.645   4.592  18.294  0.00  0.00    +0.000 A 
ATOM     10  C   UNL     1       3.647   4.173  19.635  0.00  0.00    +0.000 A 
ATOM     11  C   UNL     1       2.534   3.538  20.205  0.00  0.00    +0.000 A 
ATOM     12  C   UNL     1       1.391   3.286  19.448  0.00  0.00    +0.000 A 
ATOM     13  C   UNL     1       0.212   2.561  20.024  0.00  0.00    +0.000 C 
ATOM     14  C   UNL     1       1.364   3.705  18.118  0.00  0.00    +0.000 A 
ATOM     15  C   UNL     1       2.467   4.356  17.557  0.00  0.00    +0.000 A 
ENDBRANCH   1   9
BRANCH   1  16
ATOM     16  C   UNL     1       4.453   6.436  16.795  0.00  0.00    +0.000 C 
BRANCH  16  17
ATOM     17  C   UNL     1       4.125   7.657  17.658  0.00  0.00    +0.000 C 
BRANCH  17  18
ATOM     18  N   UNL     1       2.758   8.128  17.433  0.00  0.00    +0.000 N 
ATOM     19  H   UNL     1       2.720   8.931  16.809  0.00  0.00    +0.000 HD
BRANCH  18  24
ATOM     20  C   UNL     1       0.496   9.740  19.958  0.00  0.00    +0.000 A 
ATOM     21  C   UNL     1       0.630   8.843  21.016  0.00  0.00    +0.000 A 
ATOM     22  C   UNL     1       1.457   7.728  20.888  0.00  0.00    +0.000 A 
ATOM     23  C   UNL     1       2.146   7.498  19.694  0.00  0.00    +0.000 A 
ATOM     24  C   UNL     1       1.997   8.359  18.600  0.00  0.00    +0.000 A 
ATOM     25  C   UNL     1       1.191   9.498  18.771  0.00  0.00    +0.000 A 
BRANCH  20  27
ATOM     26  C   UNL     1       0.315  12.088  20.295  0.00  0.00    +0.000 C 
ATOM     27  O   UNL     1      -0.318  10.815  20.199  0.00  0.00    +0.000 OA
ENDBRANCH  20  27
ENDBRANCH  18  24
ENDBRANCH  17  18
ENDBRANCH  16  17
ENDBRANCH   1  16
TORSDOF 6
ENDMDL
MODEL 4
REMARK VINA RESULT:      -7.4      2.010      4.768
REMARK  Name = 
REMARK  10 active torsions:
REMARK  status: ('A' for Active; 'I' for Inactive)
REMARK    1  A    between atoms: C_1  and  O_2
REMARK    2  A    between atoms: O_2  and  C_3
REMARK    3  A    between atoms: C_7  and  N_8
REMARK    4  A    between atoms: N_8  and  C_9
REMARK    5  A    between atoms: C_9  and  C_10
REMARK    6  A    between atoms: C_10  and  C_11
REMARK    7  A    between atoms: C_11  and  C_12
REMARK    8  A    between atoms: C_15  and  C_16
REMARK    9  A    between atoms: C_22  and  C_23
REMARK   10  A    between atoms: C_22  and  C_24
REMARK                            x       y       z     vdW  Elec       q    Type
REMARK                         _______ _______ _______ _____ _____    ______ ____
ROOT
ATOM      1  C   UNL     1       4.039   3.990  18.815  0.00  0.00    +0.000 C 
ATOM      2  C   UNL     1       4.549   2.845  19.736  0.00  0.00    +0.000 C 
ATOM      3  C   UNL     1       3.545   2.443  20.812  0.00  0.00    +0.000 C 
ATOM      4  O   UNL     1       2.297   2.052  20.254  0.00  0.00    +0.000 OA
ATOM      5  C   UNL     1       1.650   3.047  19.459  0.00  0.00    +0.000 C 
ATOM      6  C   UNL     1       0.478   2.332  18.760  0.00  0.00    +0.000 C 
ATOM      7  C   UNL     1       1.034   4.144  20.341  0.00  0.00    +0.000 C 
ATOM      8  C   UNL     1       2.604   3.574  18.367  0.00  0.00    +0.000 C 
ENDROOT
BRANCH   1   9
ATOM      9  C   UNL     1       4.968   4.169  17.573  0.00  0.00    +0.000 A 
ATOM     10  C   UNL     1       6.304   4.584  17.700  0.00  0.00    +0.000 A 
ATOM     11  C   UNL     1       7.097   4.855  16.575  0.00  0.00    +0.000 A 
ATOM     12  C   UNL     1       6.573   4.737  15.288  0.00  0.00    +0.000 A 
ATOM     13  C   UNL     1       7.389   5.074  14.075  0.00  0.00    +0.000 C 
ATOM     14  C   UNL     1       5.252   4.315  15.140  0.00  0.00    +0.000 A 
ATOM     15  C   UNL     1       4.469   4.025  16.262  0.00  0.00    +0.000 A 
ENDBRANCH   1   9
BRANCH   1  16
ATOM     16  C   UNL     1       4.086   5.342  19.608  0.00  0.00    +0.000 C 
BRANCH  16  17
ATOM     17  C   UNL     1       3.151   6.422  19.058  0.00  0.00    +0.000 C 
BRANCH  17  18
ATOM     18  N   UNL     1       2.510   7.183  20.131  0.00  0.00    +0.000 N 
ATOM     19  H   UNL     1       1.959   6.594  20.752  0.00  0.00    +0.000 HD
BRANCH  18  24
ATOM     20  C   UNL     1       0.089  10.051  20.106  0.00  0.00    +0.000 A 
ATOM     21  C   UNL     1       0.199  10.454  18.777  0.00  0.00    +0.000 A 
ATOM     22  C   UNL     1       1.062   9.783  17.911  0.00  0.00    +0.000 A 
ATOM     23  C   UNL     1       1.828   8.710  18.375  0.00  0.00    +0.000 A 
ATOM     24  C   UNL     1       1.769   8.311  19.715  0.00  0.00    +0.000 A 
ATOM     25  C   UNL     1       0.860   8.977  20.556  0.00  0.00    +0.000 A 
BRANCH  20  27
ATOM     26  C   UNL     1      -0.270  11.762  21.720  0.00  0.00    +0.000 C 
ATOM     27  O   UNL     1      -0.808  10.760  20.863  0.00  0.00    +0.000 OA
ENDBRANCH  20  27
ENDBRANCH  18  24
ENDBRANCH  17  18
ENDBRANCH  16  17
ENDBRANCH   1  16
TORSDOF 6
ENDMDL
MODEL 5
REMARK VINA RESULT:      -7.4      2.833      7.326
REMARK  Name = 
REMARK  10 active torsions:
REMARK  status: ('A' for Active; 'I' for Inactive)
REMARK    1  A    between atoms: C_1  and  O_2
REMARK    2  A    between atoms: O_2  and  C_3
REMARK    3  A    between atoms: C_7  and  N_8
REMARK    4  A    between atoms: N_8  and  C_9
REMARK    5  A    between atoms: C_9  and  C_10
REMARK    6  A    between atoms: C_10  and  C_11
REMARK    7  A    between atoms: C_11  and  C_12
REMARK    8  A    between atoms: C_15  and  C_16
REMARK    9  A    between atoms: C_22  and  C_23
REMARK   10  A    between atoms: C_22  and  C_24
REMARK                            x       y       z     vdW  Elec       q    Type
REMARK                         _______ _______ _______ _____ _____    ______ ____
ROOT
ATOM      1  C   UNL     1       2.739   5.395  18.941  0.00  0.00    +0.000 C 
ATOM      2  C   UNL     1       1.940   4.639  17.841  0.00  0.00    +0.000 C 
ATOM      3  C   UNL     1       2.119   3.125  17.897  0.00  0.00    +0.000 C 
ATOM      4  O   UNL     1       1.755   2.595  19.165  0.00  0.00    +0.000 OA
ATOM      5  C   UNL     1       2.483   3.123  20.275  0.00  0.00    +0.000 C 
ATOM      6  C   UNL     1       1.757   2.613  21.536  0.00  0.00    +0.000 C 
ATOM      7  C   UNL     1       3.907   2.548  20.325  0.00  0.00    +0.000 C 
ATOM      8  C   UNL     1       2.421   4.664  20.281  0.00  0.00    +0.000 C 
ENDROOT
BRANCH   1   9
ATOM      9  C   UNL     1       2.307   6.893  19.020  0.00  0.00    +0.000 A 
ATOM     10  C   UNL     1       1.828   7.465  20.210  0.00  0.00    +0.000 A 
ATOM     11  C   UNL     1       1.332   8.776  20.245  0.00  0.00    +0.000 A 
ATOM     12  C   UNL     1       1.284   9.552  19.087  0.00  0.00    +0.000 A 
ATOM     13  C   UNL     1       0.708  10.937  19.093  0.00  0.00    +0.000 C 
ATOM     14  C   UNL     1       1.766   9.007  17.897  0.00  0.00    +0.000 A 
ATOM     15  C   UNL     1       2.278   7.706  17.868  0.00  0.00    +0.000 A 
ENDBRANCH   1   9
BRANCH   1  16
ATOM     16  C   UNL     1       4.261   5.387  18.562  0.00  0.00    +0.000 C 
BRANCH  16  17
ATOM     17  C   UNL     1       4.530   5.432  17.055  0.00  0.00    +0.000 C 
BRANCH  17  18
ATOM     18  N   UNL     1       5.288   4.264  16.604  0.00  0.00    +0.000 N 
ATOM     19  H   UNL     1       6.018   3.996  17.261  0.00  0.00    +0.000 HD
BRANCH  18  24
ATOM     20  C   UNL     1       5.767   3.698  12.925  0.00  0.00    +0.000 A 
ATOM     21  C   UNL     1       6.949   4.405  12.719  0.00  0.00    +0.000 A 
ATOM     22  C   UNL     1       7.572   5.054  13.785  0.00  0.00    +0.000 A 
ATOM     23  C   UNL     1       7.005   5.008  15.062  0.00  0.00    +0.000 A 
ATOM     24  C   UNL     1       5.796   4.342  15.288  0.00  0.00    +0.000 A 
ATOM     25  C   UNL     1       5.212   3.660  14.206  0.00  0.00    +0.000 A 
BRANCH  20  27
ATOM     26  C   UNL     1       5.813   1.807  11.482  0.00  0.00    +0.000 C 
ATOM     27  O   UNL     1       5.255   3.074  11.817  0.00  0.00    +0.000 OA
ENDBRANCH  20  27
ENDBRANCH  18  24
ENDBRANCH  17  18
ENDBRANCH  16  17
ENDBRANCH   1  16
TORSDOF 6
ENDMDL
MODEL 6
REMARK VINA RESULT:      -7.4      0.836      1.563
REMARK  Name = 
REMARK  10 active torsions:
REMARK  status: ('A' for Active; 'I' for Inactive)
REMARK    1  A    between atoms: C_1  and  O_2
REMARK    2  A    between atoms: O_2  and  C_3
REMARK    3  A    between atoms: C_7  and  N_8
REMARK    4  A    between atoms: N_8  and  C_9
REMARK    5  A    between atoms: C_9  and  C_10
REMARK    6  A    between atoms: C_10  and  C_11
REMARK    7  A    between atoms: C_11  and  C_12
REMARK    8  A    between atoms: C_15  and  C_16
REMARK    9  A    between atoms: C_22  and  C_23
REMARK   10  A    between atoms: C_22  and  C_24
REMARK                            x       y       z     vdW  Elec       q    Type
REMARK                         _______ _______ _______ _____ _____    ______ ____
ROOT
ATOM      1  C   UNL     1       4.921   5.278  17.645  0.00  0.00    +0.000 C 
ATOM      2  C   UNL     1       5.601   4.215  16.736  0.00  0.00    +0.000 C 
ATOM      3  C   UNL     1       6.998   4.619  16.276  0.00  0.00    +0.000 C 
ATOM      4  O   UNL     1       7.860   4.894  17.373  0.00  0.00    +0.000 OA
ATOM      5  C   UNL     1       7.415   5.930  18.249  0.00  0.00    +0.000 C 
ATOM      6  C   UNL     1       8.346   5.874  19.476  0.00  0.00    +0.000 C 
ATOM      7  C   UNL     1       7.611   7.314  17.611  0.00  0.00    +0.000 C 
ATOM      8  C   UNL     1       5.975   5.653  18.731  0.00  0.00    +0.000 C 
ENDROOT
BRANCH   1   9
ATOM      9  C   UNL     1       3.631   4.705  18.313  0.00  0.00    +0.000 A 
ATOM     10  C   UNL     1       3.427   4.760  19.702  0.00  0.00    +0.000 A 
ATOM     11  C   UNL     1       2.324   4.140  20.305  0.00  0.00    +0.000 A 
ATOM     12  C   UNL     1       1.398   3.430  19.541  0.00  0.00    +0.000 A 
ATOM     13  C   UNL     1       0.241   2.715  20.174  0.00  0.00    +0.000 C 
ATOM     14  C   UNL     1       1.576   3.372  18.159  0.00  0.00    +0.000 A 
ATOM     15  C   UNL     1       2.666   4.008  17.557  0.00  0.00    +0.000 A 
ENDBRANCH   1   9
BRANCH   1  16
ATOM     16  C   UNL     1       4.466   6.490  16.760  0.00  0.00    +0.000 C 
BRANCH  16  17
ATOM     17  C   UNL     1       3.927   7.680  17.560  0.00  0.00    +0.000 C 
BRANCH  17  18
ATOM     18  N   UNL     1       2.479   7.597  17.746  0.00  0.00    +0.000 N 
ATOM     19  H   UNL     1       1.969   7.642  16.866  0.00  0.00    +0.000 HD
BRANCH  18  24
ATOM     20  C   UNL     1       1.094   9.022  20.930  0.00  0.00    +0.000 A 
ATOM     21  C   UNL     1       0.700  10.282  20.485  0.00  0.00    +0.000 A 
ATOM     22  C   UNL     1       0.893  10.646  19.153  0.00  0.00    +0.000 A 
ATOM     23  C   UNL     1       1.493   9.752  18.261  0.00  0.00    +0.000 A 
ATOM     24  C   UNL     1       1.936   8.496  18.691  0.00  0.00    +0.000 A 
ATOM     25  C   UNL     1       1.691   8.138  20.028  0.00  0.00    +0.000 A 
BRANCH  20  27
ATOM     26  C   UNL     1      -0.253   9.465  22.841  0.00  0.00    +0.000 C 
ATOM     27  O   UNL     1       0.832   8.757  22.249  0.00  0.00    +0.000 OA
ENDBRANCH  20  27
ENDBRANCH  18  24
ENDBRANCH  17  18
ENDBRANCH  16  17
ENDBRANCH   1  16
TORSDOF 6
ENDMDL
MODEL 7
REMARK VINA RESULT:      -7.3      1.958      4.676
REMARK  Name = 
REMARK  10 active torsions:
REMARK  status: ('A' for Active; 'I' for Inactive)
REMARK    1  A    between atoms: C_1  and  O_2
REMARK    2  A    between atoms: O_2  and  C_3
REMARK    3  A    between atoms: C_7  and  N_8
REMARK    4  A    between atoms: N_8  and  C_9
REMARK    5  A    between atoms: C_9  and  C_10
REMARK    6  A    between atoms: C_10  and  C_11
REMARK    7  A    between atoms: C_11  and  C_12
REMARK    8  A    between atoms: C_15  and  C_16
REMARK    9  A    between atoms: C_22  and  C_23
REMARK   10  A    between atoms: C_22  and  C_24
REMARK                            x       y       z     vdW  Elec       q    Type
REMARK                         _______ _______ _______ _____ _____    ______ ____
ROOT
ATOM      1  C   UNL     1       3.996   4.232  18.672  0.00  0.00    +0.000 C 
ATOM      2  C   UNL     1       4.640   3.077  19.490  0.00  0.00    +0.000 C 
ATOM      3  C   UNL     1       3.732   2.536  20.589  0.00  0.00    +0.000 C 
ATOM      4  O   UNL     1       2.486   2.083  20.074  0.00  0.00    +0.000 OA
ATOM      5  C   UNL     1       1.724   3.071  19.378  0.00  0.00    +0.000 C 
ATOM      6  C   UNL     1       0.570   2.309  18.697  0.00  0.00    +0.000 C 
ATOM      7  C   UNL     1       1.079   4.062  20.358  0.00  0.00    +0.000 C 
ATOM      8  C   UNL     1       2.573   3.734  18.273  0.00  0.00    +0.000 C 
ENDROOT
BRANCH   1   9
ATOM      9  C   UNL     1       4.837   4.556  17.397  0.00  0.00    +0.000 A 
ATOM     10  C   UNL     1       4.488   4.056  16.131  0.00  0.00    +0.000 A 
ATOM     11  C   UNL     1       5.312   4.254  15.014  0.00  0.00    +0.000 A 
ATOM     12  C   UNL     1       6.519   4.942  15.129  0.00  0.00    +0.000 A 
ATOM     13  C   UNL     1       7.439   5.116  13.957  0.00  0.00    +0.000 C 
ATOM     14  C   UNL     1       6.879   5.455  16.375  0.00  0.00    +0.000 A 
ATOM     15  C   UNL     1       6.047   5.275  17.484  0.00  0.00    +0.000 A 
ENDBRANCH   1   9
BRANCH   1  16
ATOM     16  C   UNL     1       3.988   5.534  19.546  0.00  0.00    +0.000 C 
BRANCH  16  17
ATOM     17  C   UNL     1       3.017   6.611  19.054  0.00  0.00    +0.000 C 
BRANCH  17  18
ATOM     18  N   UNL     1       2.339   7.280  20.165  0.00  0.00    +0.000 N 
ATOM     19  H   UNL     1       1.777   6.639  20.720  0.00  0.00    +0.000 HD
BRANCH  18  24
ATOM     20  C   UNL     1      -0.020  10.194  20.345  0.00  0.00    +0.000 A 
ATOM     21  C   UNL     1       0.024  10.628  19.023  0.00  0.00    +0.000 A 
ATOM     22  C   UNL     1       0.822   9.962  18.093  0.00  0.00    +0.000 A 
ATOM     23  C   UNL     1       1.591   8.863  18.487  0.00  0.00    +0.000 A 
ATOM     24  C   UNL     1       1.599   8.432  19.819  0.00  0.00    +0.000 A 
ATOM     25  C   UNL     1       0.753   9.094  20.725  0.00  0.00    +0.000 A 
BRANCH  20  27
ATOM     26  C   UNL     1      -1.407  12.104  20.640  0.00  0.00    +0.000 C 
ATOM     27  O   UNL     1      -0.857  10.901  21.168  0.00  0.00    +0.000 OA
ENDBRANCH  20  27
ENDBRANCH  18  24
ENDBRANCH  17  18
ENDBRANCH  16  17
ENDBRANCH   1  16
TORSDOF 6
ENDMDL
MODEL 8
REMARK VINA RESULT:      -7.3      2.529      7.021
REMARK  Name = 
REMARK  10 active torsions:
REMARK  status: ('A' for Active; 'I' for Inactive)
REMARK    1  A    between atoms: C_1  and  O_2
REMARK    2  A    between atoms: O_2  and  C_3
REMARK    3  A    between atoms: C_7  and  N_8
REMARK    4  A    between atoms: N_8  and  C_9
REMARK    5  A    between atoms: C_9  and  C_10
REMARK    6  A    between atoms: C_10  and  C_11
REMARK    7  A    between atoms: C_11  and  C_12
REMARK    8  A    between atoms: C_15  and  C_16
REMARK    9  A    between atoms: C_22  and  C_23
REMARK   10  A    between atoms: C_22  and  C_24
REMARK                            x       y       z     vdW  Elec       q    Type
REMARK                         _______ _______ _______ _____ _____    ______ ____
ROOT
ATOM      1  C   UNL     1       2.782   5.456  19.358  0.00  0.00    +0.000 C 
ATOM      2  C   UNL     1       2.414   4.704  18.048  0.00  0.00    +0.000 C 
ATOM      3  C   UNL     1       2.596   3.193  18.147  0.00  0.00    +0.000 C 
ATOM      4  O   UNL     1       1.840   2.636  19.215  0.00  0.00    +0.000 OA
ATOM      5  C   UNL     1       2.143   3.160  20.509  0.00  0.00    +0.000 C 
ATOM      6  C   UNL     1       1.048   2.618  21.449  0.00  0.00    +0.000 C 
ATOM      7  C   UNL     1       3.480   2.610  21.028  0.00  0.00    +0.000 C 
ATOM      8  C   UNL     1       2.049   4.700  20.508  0.00  0.00    +0.000 C 
ENDROOT
BRANCH   1   9
ATOM      9  C   UNL     1       2.316   6.946  19.301  0.00  0.00    +0.000 A 
ATOM     10  C   UNL     1       1.757   7.591  20.418  0.00  0.00    +0.000 A 
ATOM     11  C   UNL     1       1.234   8.889  20.327  0.00  0.00    +0.000 A 
ATOM     12  C   UNL     1       1.237   9.576  19.113  0.00  0.00    +0.000 A 
ATOM     13  C   UNL     1       0.634  10.943  18.984  0.00  0.00    +0.000 C 
ATOM     14  C   UNL     1       1.797   8.958  17.996  0.00  0.00    +0.000 A 
ATOM     15  C   UNL     1       2.336   7.671  18.092  0.00  0.00    +0.000 A 
ENDBRANCH   1   9
BRANCH   1  16
ATOM     16  C   UNL     1       4.342   5.481  19.512  0.00  0.00    +0.000 C 
BRANCH  16  17
ATOM     17  C   UNL     1       5.089   5.900  18.242  0.00  0.00    +0.000 C 
BRANCH  17  18
ATOM     18  N   UNL     1       6.157   4.960  17.905  0.00  0.00    +0.000 N 
ATOM     19  H   UNL     1       7.050   5.218  18.320  0.00  0.00    +0.000 HD
BRANCH  18  24
ATOM     20  C   UNL     1       7.339   5.066  14.344  0.00  0.00    +0.000 A 
ATOM     21  C   UNL     1       6.435   4.182  13.759  0.00  0.00    +0.000 A 
ATOM     22  C   UNL     1       5.454   3.567  14.536  0.00  0.00    +0.000 A 
ATOM     23  C   UNL     1       5.381   3.825  15.908  0.00  0.00    +0.000 A 
ATOM     24  C   UNL     1       6.303   4.675  16.529  0.00  0.00    +0.000 A 
ATOM     25  C   UNL     1       7.254   5.315  15.716  0.00  0.00    +0.000 A 
BRANCH  20  27
ATOM     26  C   UNL     1       7.909   5.617  12.101  0.00  0.00    +0.000 C 
ATOM     27  O   UNL     1       8.242   5.636  13.486  0.00  0.00    +0.000 OA
ENDBRANCH  20  27
ENDBRANCH  18  24
ENDBRANCH  17  18
ENDBRANCH  16  17
ENDBRANCH   1  16
TORSDOF 6
ENDMDL
MODEL 9
REMARK VINA RESULT:      -7.2      1.943      4.644
REMARK  Name = 
REMARK  10 active torsions:
REMARK  status: ('A' for Active; 'I' for Inactive)
REMARK    1  A    between atoms: C_1  and  O_2
REMARK    2  A    between atoms: O_2  and  C_3
REMARK    3  A    between atoms: C_7  and  N_8
REMARK    4  A    between atoms: N_8  and  C_9
REMARK    5  A    between atoms: C_9  and  C_10
REMARK    6  A    between atoms: C_10  and  C_11
REMARK    7  A    between atoms: C_11  and  C_12
REMARK    8  A    between atoms: C_15  and  C_16
REMARK    9  A    between atoms: C_22  and  C_23
REMARK   10  A    between atoms: C_22  and  C_24
REMARK                            x       y       z     vdW  Elec       q    Type
REMARK                         _______ _______ _______ _____ _____    ______ ____
ROOT
ATOM      1  C   UNL     1       4.048   4.266  18.588  0.00  0.00    +0.000 C 
ATOM      2  C   UNL     1       4.692   3.162  19.475  0.00  0.00    +0.000 C 
ATOM      3  C   UNL     1       3.770   2.663  20.583  0.00  0.00    +0.000 C 
ATOM      4  O   UNL     1       2.540   2.169  20.067  0.00  0.00    +0.000 OA
ATOM      5  C   UNL     1       1.778   3.110  19.309  0.00  0.00    +0.000 C 
ATOM      6  C   UNL     1       0.648   2.299  18.646  0.00  0.00    +0.000 C 
ATOM      7  C   UNL     1       1.102   4.139  20.226  0.00  0.00    +0.000 C 
ATOM      8  C   UNL     1       2.640   3.729  18.189  0.00  0.00    +0.000 C 
ENDROOT
BRANCH   1   9
ATOM      9  C   UNL     1       4.910   4.537  17.314  0.00  0.00    +0.000 A 
ATOM     10  C   UNL     1       4.409   4.321  16.020  0.00  0.00    +0.000 A 
ATOM     11  C   UNL     1       5.225   4.455  14.887  0.00  0.00    +0.000 A 
ATOM     12  C   UNL     1       6.572   4.792  15.014  0.00  0.00    +0.000 A 
ATOM     13  C   UNL     1       7.473   4.886  13.819  0.00  0.00    +0.000 C 
ATOM     14  C   UNL     1       7.086   5.022  16.290  0.00  0.00    +0.000 A 
ATOM     15  C   UNL     1       6.266   4.908  17.417  0.00  0.00    +0.000 A 
ENDBRANCH   1   9
BRANCH   1  16
ATOM     16  C   UNL     1       4.006   5.610  19.396  0.00  0.00    +0.000 C 
BRANCH  16  17
ATOM     17  C   UNL     1       3.516   6.812  18.583  0.00  0.00    +0.000 C 
BRANCH  17  18
ATOM     18  N   UNL     1       2.079   7.029  18.750  0.00  0.00    +0.000 N 
ATOM     19  H   UNL     1       1.562   6.908  17.882  0.00  0.00    +0.000 HD
BRANCH  18  24
ATOM     20  C   UNL     1       1.064   9.518  21.371  0.00  0.00    +0.000 A 
ATOM     21  C   UNL     1       0.843  10.638  20.573  0.00  0.00    +0.000 A 
ATOM     22  C   UNL     1       1.028  10.563  19.193  0.00  0.00    +0.000 A 
ATOM     23  C   UNL     1       1.448   9.366  18.606  0.00  0.00    +0.000 A 
ATOM     24  C   UNL     1       1.718   8.238  19.387  0.00  0.00    +0.000 A 
ATOM     25  C   UNL     1       1.482   8.328  20.770  0.00  0.00    +0.000 A 
BRANCH  20  27
ATOM     26  C   UNL     1      -0.537   9.836  23.102  0.00  0.00    +0.000 C 
ATOM     27  O   UNL     1       0.824   9.692  22.709  0.00  0.00    +0.000 OA
ENDBRANCH  20  27
ENDBRANCH  18  24
ENDBRANCH  17  18
ENDBRANCH  16  17
ENDBRANCH   1  16
TORSDOF 6
ENDMDL
