MODEL 1
REMARK VINA RESULT:     -10.2      0.000      0.000
REMARK  Name = 
REMARK  5 active torsions:
REMARK  status: ('A' for Active; 'I' for Inactive)
REMARK    1  A    between atoms: C_2  and  C_10
REMARK    2  A    between atoms: N_3  and  C_4
REMARK    3  A    between atoms: N_13  and  C_14
REMARK    4  A    between atoms: C_14  and  C_15
REMARK    5  A    between atoms: C_14  and  C_22
REMARK                            x       y       z     vdW  Elec       q    Type
REMARK                         _______ _______ _______ _____ _____    ______ ____
ROOT
ATOM      1  C   UNL     1       7.350   6.107  17.842  0.00  0.00    +0.000 C 
ATOM      2  C   UNL     1       6.633   5.511  19.055  0.00  0.00    +0.000 C 
ATOM      3  C   UNL     1       5.116   5.423  18.857  0.00  0.00    +0.000 C 
ATOM      4  N   UNL     1       4.491   6.703  18.479  0.00  0.00    +0.000 NA
ATOM      5  C   UNL     1       5.178   7.312  17.322  0.00  0.00    +0.000 C 
ATOM      6  C   UNL     1       6.695   7.441  17.487  0.00  0.00    +0.000 C 
ENDROOT
BRANCH   1   8
ATOM      7  O   UNL     1       7.986   4.042  16.768  0.00  0.00    +0.000 OA
ATOM      8  C   UNL     1       7.400   5.117  16.663  0.00  0.00    +0.000 C 
ATOM      9  N   UNL     1       6.810   5.595  15.508  0.00  0.00    +0.000 N 
ATOM     10  H   UNL     1       6.532   6.568  15.494  0.00  0.00    +0.000 HD
BRANCH   9  11
ATOM     11  C   UNL     1       6.743   4.911  14.266  0.00  0.00    +0.000 A 
ATOM     12  C   UNL     1       7.654   5.118  13.228  0.00  0.00    +0.000 A 
ATOM     13  C   UNL     1       7.519   4.449  12.007  0.00  0.00    +0.000 A 
ATOM     14  C   UNL     1       6.468   3.559  11.812  0.00  0.00    +0.000 A 
ATOM     15  C   UNL     1       5.564   3.324  12.847  0.00  0.00    +0.000 A 
ATOM     16  C   UNL     1       5.706   3.989  14.071  0.00  0.00    +0.000 A 
ENDBRANCH   9  11
ENDBRANCH   1   8
BRANCH   4  17
ATOM     17  C   UNL     1       3.004   6.587  18.229  0.00  0.00    +0.000 C 
BRANCH  17  18
ATOM     18  C   UNL     1       2.432   5.209  18.631  0.00  0.00    +0.000 A 
ATOM     19  C   UNL     1       2.270   4.857  19.985  0.00  0.00    +0.000 A 
ATOM     20  C   UNL     1       1.908   3.560  20.351  0.00  0.00    +0.000 A 
ATOM     21  C   UNL     1       1.696   2.607  19.365  0.00  0.00    +0.000 A 
ATOM     22  F   UNL     1       1.392   1.352  19.717  0.00  0.00    +0.000 F 
ATOM     23  C   UNL     1       1.805   2.935  18.019  0.00  0.00    +0.000 A 
ATOM     24  C   UNL     1       2.154   4.236  17.651  0.00  0.00    +0.000 A 
ENDBRANCH  17  18
BRANCH  17  25
ATOM     25  C   UNL     1       2.146   7.773  18.744  0.00  0.00    +0.000 A 
ATOM     26  C   UNL     1       1.814   7.953  20.098  0.00  0.00    +0.000 A 
ATOM     27  C   UNL     1       1.007   9.019  20.513  0.00  0.00    +0.000 A 
ATOM     28  C   UNL     1       0.565   9.951  19.587  0.00  0.00    +0.000 A 
ATOM     29  F   UNL     1      -0.188  10.985  19.992  0.00  0.00    +0.000 F 
ATOM     30  C   UNL     1       0.905   9.834  18.247  0.00  0.00    +0.000 A 
ATOM     31  C   UNL     1       1.691   8.752  17.829  0.00  0.00    +0.000 A 
ENDBRANCH  17  25
ENDBRANCH   4  17
TORSDOF 5
ENDMDL
MODEL 2
REMARK VINA RESULT:     -10.0      0.613      1.399
REMARK  Name = 
REMARK  5 active torsions:
REMARK  status: ('A' for Active; 'I' for Inactive)
REMARK    1  A    between atoms: C_2  and  C_10
REMARK    2  A    between atoms: N_3  and  C_4
REMARK    3  A    between atoms: N_13  and  C_14
REMARK    4  A    between atoms: C_14  and  C_15
REMARK    5  A    between atoms: C_14  and  C_22
REMARK                            x       y       z     vdW  Elec       q    Type
REMARK                         _______ _______ _______ _____ _____    ______ ____
ROOT
ATOM      1  C   UNL     1       7.433   6.118  17.803  0.00  0.00    +0.000 C 
ATOM      2  C   UNL     1       6.845   5.510  19.078  0.00  0.00    +0.000 C 
ATOM      3  C   UNL     1       5.323   5.347  19.005  0.00  0.00    +0.000 C 
ATOM      4  N   UNL     1       4.608   6.589  18.660  0.00  0.00    +0.000 NA
ATOM      5  C   UNL     1       5.171   7.208  17.442  0.00  0.00    +0.000 C 
ATOM      6  C   UNL     1       6.688   7.412  17.483  0.00  0.00    +0.000 C 
ENDROOT
BRANCH   1   8
ATOM      7  O   UNL     1       7.915   3.986  16.779  0.00  0.00    +0.000 OA
ATOM      8  C   UNL     1       7.437   5.110  16.638  0.00  0.00    +0.000 C 
ATOM      9  N   UNL     1       6.941   5.624  15.454  0.00  0.00    +0.000 N 
ATOM     10  H   UNL     1       6.755   6.618  15.419  0.00  0.00    +0.000 HD
BRANCH   9  11
ATOM     11  C   UNL     1       6.859   4.931  14.218  0.00  0.00    +0.000 A 
ATOM     12  C   UNL     1       7.737   5.156  13.155  0.00  0.00    +0.000 A 
ATOM     13  C   UNL     1       7.588   4.476  11.942  0.00  0.00    +0.000 A 
ATOM     14  C   UNL     1       6.557   3.557  11.780  0.00  0.00    +0.000 A 
ATOM     15  C   UNL     1       5.687   3.304  12.839  0.00  0.00    +0.000 A 
ATOM     16  C   UNL     1       5.844   3.980  14.056  0.00  0.00    +0.000 A 
ENDBRANCH   9  11
ENDBRANCH   1   8
BRANCH   4  17
ATOM     17  C   UNL     1       3.114   6.398  18.531  0.00  0.00    +0.000 C 
BRANCH  17  18
ATOM     18  C   UNL     1       2.594   5.171  19.314  0.00  0.00    +0.000 A 
ATOM     19  C   UNL     1       1.763   4.215  18.697  0.00  0.00    +0.000 A 
ATOM     20  C   UNL     1       1.163   3.199  19.442  0.00  0.00    +0.000 A 
ATOM     21  C   UNL     1       1.396   3.125  20.808  0.00  0.00    +0.000 A 
ATOM     22  F   UNL     1       0.786   2.177  21.530  0.00  0.00    +0.000 F 
ATOM     23  C   UNL     1       2.245   4.027  21.437  0.00  0.00    +0.000 A 
ATOM     24  C   UNL     1       2.857   5.036  20.691  0.00  0.00    +0.000 A 
ENDBRANCH  17  18
BRANCH  17  25
ATOM     25  C   UNL     1       2.256   7.671  18.762  0.00  0.00    +0.000 A 
ATOM     26  C   UNL     1       1.889   8.551  17.730  0.00  0.00    +0.000 A 
ATOM     27  C   UNL     1       1.144   9.707  17.990  0.00  0.00    +0.000 A 
ATOM     28  C   UNL     1       0.710   9.972  19.280  0.00  0.00    +0.000 A 
ATOM     29  F   UNL     1      -0.024  11.068  19.521  0.00  0.00    +0.000 F 
ATOM     30  C   UNL     1       1.015   9.108  20.320  0.00  0.00    +0.000 A 
ATOM     31  C   UNL     1       1.783   7.965  20.063  0.00  0.00    +0.000 A 
ENDBRANCH  17  25
ENDBRANCH   4  17
TORSDOF 5
ENDMDL
MODEL 3
REMARK VINA RESULT:     -10.0      0.605      1.394
REMARK  Name = 
REMARK  5 active torsions:
REMARK  status: ('A' for Active; 'I' for Inactive)
REMARK    1  A    between atoms: C_2  and  C_10
REMARK    2  A    between atoms: N_3  and  C_4
REMARK    3  A    between atoms: N_13  and  C_14
REMARK    4  A    between atoms: C_14  and  C_15
REMARK    5  A    between atoms: C_14  and  C_22
REMARK                            x       y       z     vdW  Elec       q    Type
REMARK                         _______ _______ _______ _____ _____    ______ ____
ROOT
ATOM      1  C   UNL     1       7.361   6.125  17.758  0.00  0.00    +0.000 C 
ATOM      2  C   UNL     1       6.790   5.520  19.042  0.00  0.00    +0.000 C 
ATOM      3  C   UNL     1       5.266   5.360  18.989  0.00  0.00    +0.000 C 
ATOM      4  N   UNL     1       4.550   6.603  18.652  0.00  0.00    +0.000 NA
ATOM      5  C   UNL     1       5.097   7.219  17.426  0.00  0.00    +0.000 C 
ATOM      6  C   UNL     1       6.615   7.420  17.445  0.00  0.00    +0.000 C 
ENDROOT
BRANCH   1   8
ATOM      7  O   UNL     1       7.899   4.021  16.704  0.00  0.00    +0.000 OA
ATOM      8  C   UNL     1       7.348   5.114  16.595  0.00  0.00    +0.000 C 
ATOM      9  N   UNL     1       6.746   5.594  15.446  0.00  0.00    +0.000 N 
ATOM     10  H   UNL     1       6.501   6.575  15.423  0.00  0.00    +0.000 HD
BRANCH   9  11
ATOM     11  C   UNL     1       6.624   4.893  14.218  0.00  0.00    +0.000 A 
ATOM     12  C   UNL     1       5.602   3.977  13.959  0.00  0.00    +0.000 A 
ATOM     13  C   UNL     1       5.550   3.280  12.748  0.00  0.00    +0.000 A 
ATOM     14  C   UNL     1       6.523   3.495  11.777  0.00  0.00    +0.000 A 
ATOM     15  C   UNL     1       7.536   4.423  12.012  0.00  0.00    +0.000 A 
ATOM     16  C   UNL     1       7.581   5.126  13.222  0.00  0.00    +0.000 A 
ENDBRANCH   9  11
ENDBRANCH   1   8
BRANCH   4  17
ATOM     17  C   UNL     1       3.053   6.415  18.544  0.00  0.00    +0.000 C 
BRANCH  17  18
ATOM     18  C   UNL     1       2.546   5.171  19.308  0.00  0.00    +0.000 A 
ATOM     19  C   UNL     1       1.739   4.207  18.672  0.00  0.00    +0.000 A 
ATOM     20  C   UNL     1       1.149   3.173  19.399  0.00  0.00    +0.000 A 
ATOM     21  C   UNL     1       1.367   3.089  20.766  0.00  0.00    +0.000 A 
ATOM     22  F   UNL     1       0.766   2.122  21.471  0.00  0.00    +0.000 F 
ATOM     23  C   UNL     1       2.193   3.998  21.415  0.00  0.00    +0.000 A 
ATOM     24  C   UNL     1       2.795   5.026  20.686  0.00  0.00    +0.000 A 
ENDBRANCH  17  18
BRANCH  17  25
ATOM     25  C   UNL     1       2.200   7.682  18.816  0.00  0.00    +0.000 A 
ATOM     26  C   UNL     1       1.743   8.044  20.095  0.00  0.00    +0.000 A 
ATOM     27  C   UNL     1       0.946   9.178  20.290  0.00  0.00    +0.000 A 
ATOM     28  C   UNL     1       0.638   9.997  19.214  0.00  0.00    +0.000 A 
ATOM     29  F   UNL     1      -0.106  11.096  19.408  0.00  0.00    +0.000 F 
ATOM     30  C   UNL     1       1.104   9.699  17.942  0.00  0.00    +0.000 A 
ATOM     31  C   UNL     1       1.880   8.550  17.745  0.00  0.00    +0.000 A 
ENDBRANCH  17  25
ENDBRANCH   4  17
TORSDOF 5
ENDMDL
MODEL 4
REMARK VINA RESULT:      -9.4      3.605      7.884
REMARK  Name = 
REMARK  5 active torsions:
REMARK  status: ('A' for Active; 'I' for Inactive)
REMARK    1  A    between atoms: C_2  and  C_10
REMARK    2  A    between atoms: N_3  and  C_4
REMARK    3  A    between atoms: N_13  and  C_14
REMARK    4  A    between atoms: C_14  and  C_15
REMARK    5  A    between atoms: C_14  and  C_22
REMARK                            x       y       z     vdW  Elec       q    Type
REMARK                         _______ _______ _______ _____ _____    ______ ____
ROOT
ATOM      1  C   UNL     1       1.281  10.114  19.500  0.00  0.00    +0.000 C 
ATOM      2  C   UNL     1       2.145   9.957  18.246  0.00  0.00    +0.000 C 
ATOM      3  C   UNL     1       2.176   8.514  17.731  0.00  0.00    +0.000 C 
ATOM      4  N   UNL     1       2.578   7.528  18.750  0.00  0.00    +0.000 NA
ATOM      5  C   UNL     1       1.773   7.672  19.980  0.00  0.00    +0.000 C 
ATOM      6  C   UNL     1       1.734   9.095  20.544  0.00  0.00    +0.000 C 
ENDROOT
BRANCH   1   8
ATOM      7  O   UNL     1      -0.981   9.360  19.871  0.00  0.00    +0.000 OA
ATOM      8  C   UNL     1      -0.222  10.030  19.174  0.00  0.00    +0.000 C 
ATOM      9  N   UNL     1      -0.579  10.695  18.016  0.00  0.00    +0.000 N 
ATOM     10  H   UNL     1       0.167  11.047  17.430  0.00  0.00    +0.000 HD
BRANCH   9  11
ATOM     11  C   UNL     1      -1.885  10.753  17.462  0.00  0.00    +0.000 A 
ATOM     12  C   UNL     1      -2.255  10.070  16.300  0.00  0.00    +0.000 A 
ATOM     13  C   UNL     1      -3.543  10.194  15.772  0.00  0.00    +0.000 A 
ATOM     14  C   UNL     1      -4.481  11.005  16.403  0.00  0.00    +0.000 A 
ATOM     15  C   UNL     1      -4.135  11.674  17.576  0.00  0.00    +0.000 A 
ATOM     16  C   UNL     1      -2.846  11.541  18.107  0.00  0.00    +0.000 A 
ENDBRANCH   9  11
ENDBRANCH   1   8
BRANCH   4  17
ATOM     17  C   UNL     1       2.545   6.103  18.244  0.00  0.00    +0.000 C 
BRANCH  17  18
ATOM     18  C   UNL     1       3.816   5.715  17.454  0.00  0.00    +0.000 A 
ATOM     19  C   UNL     1       3.961   4.429  16.899  0.00  0.00    +0.000 A 
ATOM     20  C   UNL     1       5.169   4.026  16.329  0.00  0.00    +0.000 A 
ATOM     21  C   UNL     1       6.239   4.909  16.302  0.00  0.00    +0.000 A 
ATOM     22  F   UNL     1       7.411   4.507  15.795  0.00  0.00    +0.000 F 
ATOM     23  C   UNL     1       6.114   6.198  16.802  0.00  0.00    +0.000 A 
ATOM     24  C   UNL     1       4.901   6.608  17.361  0.00  0.00    +0.000 A 
ENDBRANCH  17  18
BRANCH  17  25
ATOM     25  C   UNL     1       2.131   5.033  19.289  0.00  0.00    +0.000 A 
ATOM     26  C   UNL     1       1.105   4.097  19.070  0.00  0.00    +0.000 A 
ATOM     27  C   UNL     1       0.741   3.172  20.055  0.00  0.00    +0.000 A 
ATOM     28  C   UNL     1       1.435   3.135  21.255  0.00  0.00    +0.000 A 
ATOM     29  F   UNL     1       1.100   2.231  22.187  0.00  0.00    +0.000 F 
ATOM     30  C   UNL     1       2.482   4.013  21.495  0.00  0.00    +0.000 A 
ATOM     31  C   UNL     1       2.827   4.955  20.518  0.00  0.00    +0.000 A 
ENDBRANCH  17  25
ENDBRANCH   4  17
TORSDOF 5
ENDMDL
MODEL 5
REMARK VINA RESULT:      -9.2      1.206      1.815
REMARK  Name = 
REMARK  5 active torsions:
REMARK  status: ('A' for Active; 'I' for Inactive)
REMARK    1  A    between atoms: C_2  and  C_10
REMARK    2  A    between atoms: N_3  and  C_4
REMARK    3  A    between atoms: N_13  and  C_14
REMARK    4  A    between atoms: C_14  and  C_15
REMARK    5  A    between atoms: C_14  and  C_22
REMARK                            x       y       z     vdW  Elec       q    Type
REMARK                         _______ _______ _______ _____ _____    ______ ____
ROOT
ATOM      1  C   UNL     1       6.675   5.331  16.571  0.00  0.00    +0.000 C 
ATOM      2  C   UNL     1       6.399   4.889  18.009  0.00  0.00    +0.000 C 
ATOM      3  C   UNL     1       4.905   4.903  18.352  0.00  0.00    +0.000 C 
ATOM      4  N   UNL     1       4.246   6.194  18.082  0.00  0.00    +0.000 NA
ATOM      5  C   UNL     1       4.515   6.654  16.705  0.00  0.00    +0.000 C 
ATOM      6  C   UNL     1       5.999   6.678  16.328  0.00  0.00    +0.000 C 
ENDROOT
BRANCH   1   8
ATOM      7  O   UNL     1       5.935   3.126  15.924  0.00  0.00    +0.000 OA
ATOM      8  C   UNL     1       6.268   4.249  15.552  0.00  0.00    +0.000 C 
ATOM      9  N   UNL     1       6.398   4.648  14.234  0.00  0.00    +0.000 N 
ATOM     10  H   UNL     1       6.862   5.529  14.056  0.00  0.00    +0.000 HD
BRANCH   9  11
ATOM     11  C   UNL     1       6.127   3.846  13.094  0.00  0.00    +0.000 A 
ATOM     12  C   UNL     1       4.838   3.631  12.599  0.00  0.00    +0.000 A 
ATOM     13  C   UNL     1       4.621   2.798  11.497  0.00  0.00    +0.000 A 
ATOM     14  C   UNL     1       5.695   2.170  10.875  0.00  0.00    +0.000 A 
ATOM     15  C   UNL     1       6.989   2.393  11.343  0.00  0.00    +0.000 A 
ATOM     16  C   UNL     1       7.204   3.235  12.441  0.00  0.00    +0.000 A 
ENDBRANCH   9  11
ENDBRANCH   1   8
BRANCH   4  17
ATOM     17  C   UNL     1       2.761   6.174  18.368  0.00  0.00    +0.000 C 
BRANCH  17  18
ATOM     18  C   UNL     1       2.344   5.018  19.306  0.00  0.00    +0.000 A 
ATOM     19  C   UNL     1       1.414   4.045  18.890  0.00  0.00    +0.000 A 
ATOM     20  C   UNL     1       0.916   3.099  19.787  0.00  0.00    +0.000 A 
ATOM     21  C   UNL     1       1.350   3.114  21.104  0.00  0.00    +0.000 A 
ATOM     22  F   UNL     1       0.839   2.234  21.975  0.00  0.00    +0.000 F 
ATOM     23  C   UNL     1       2.298   4.033  21.534  0.00  0.00    +0.000 A 
ATOM     24  C   UNL     1       2.808   4.971  20.635  0.00  0.00    +0.000 A 
ENDBRANCH  17  18
BRANCH  17  25
ATOM     25  C   UNL     1       2.141   7.537  18.774  0.00  0.00    +0.000 A 
ATOM     26  C   UNL     1       1.760   7.849  20.091  0.00  0.00    +0.000 A 
ATOM     27  C   UNL     1       1.171   9.080  20.406  0.00  0.00    +0.000 A 
ATOM     28  C   UNL     1       1.004  10.037  19.416  0.00  0.00    +0.000 A 
ATOM     29  F   UNL     1       0.462  11.224  19.727  0.00  0.00    +0.000 F 
ATOM     30  C   UNL     1       1.405   9.785  18.113  0.00  0.00    +0.000 A 
ATOM     31  C   UNL     1       1.970   8.544  17.794  0.00  0.00    +0.000 A 
ENDBRANCH  17  25
ENDBRANCH   4  17
TORSDOF 5
ENDMDL
MODEL 6
REMARK VINA RESULT:      -9.2      3.664      7.910
REMARK  Name = 
REMARK  5 active torsions:
REMARK  status: ('A' for Active; 'I' for Inactive)
REMARK    1  A    between atoms: C_2  and  C_10
REMARK    2  A    between atoms: N_3  and  C_4
REMARK    3  A    between atoms: N_13  and  C_14
REMARK    4  A    between atoms: C_14  and  C_15
REMARK    5  A    between atoms: C_14  and  C_22
REMARK                            x       y       z     vdW  Elec       q    Type
REMARK                         _______ _______ _______ _____ _____    ______ ____
ROOT
ATOM      1  C   UNL     1       1.192  10.165  19.422  0.00  0.00    +0.000 C 
ATOM      2  C   UNL     1       2.066   9.991  18.178  0.00  0.00    +0.000 C 
ATOM      3  C   UNL     1       2.122   8.537  17.697  0.00  0.00    +0.000 C 
ATOM      4  N   UNL     1       2.531   7.581  18.741  0.00  0.00    +0.000 NA
ATOM      5  C   UNL     1       1.715   7.742  19.962  0.00  0.00    +0.000 C 
ATOM      6  C   UNL     1       1.652   9.177  20.492  0.00  0.00    +0.000 C 
ENDROOT
BRANCH   1   8
ATOM      7  O   UNL     1      -1.042   9.305  19.732  0.00  0.00    +0.000 OA
ATOM      8  C   UNL     1      -0.307  10.051  19.088  0.00  0.00    +0.000 C 
ATOM      9  N   UNL     1      -0.689  10.786  17.981  0.00  0.00    +0.000 N 
ATOM     10  H   UNL     1       0.043  11.207  17.424  0.00  0.00    +0.000 HD
BRANCH   9  11
ATOM     11  C   UNL     1      -1.997  10.839  17.430  0.00  0.00    +0.000 A 
ATOM     12  C   UNL     1      -2.342  10.234  16.219  0.00  0.00    +0.000 A 
ATOM     13  C   UNL     1      -3.634  10.351  15.699  0.00  0.00    +0.000 A 
ATOM     14  C   UNL     1      -4.601  11.074  16.389  0.00  0.00    +0.000 A 
ATOM     15  C   UNL     1      -4.279  11.664  17.611  0.00  0.00    +0.000 A 
ATOM     16  C   UNL     1      -2.986  11.538  18.133  0.00  0.00    +0.000 A 
ENDBRANCH   9  11
ENDBRANCH   1   8
BRANCH   4  17
ATOM     17  C   UNL     1       2.522   6.145  18.268  0.00  0.00    +0.000 C 
BRANCH  17  18
ATOM     18  C   UNL     1       3.792   5.764  17.474  0.00  0.00    +0.000 A 
ATOM     19  C   UNL     1       4.731   6.743  17.094  0.00  0.00    +0.000 A 
ATOM     20  C   UNL     1       5.790   6.429  16.242  0.00  0.00    +0.000 A 
ATOM     21  C   UNL     1       5.924   5.131  15.770  0.00  0.00    +0.000 A 
ATOM     22  F   UNL     1       6.915   4.839  14.918  0.00  0.00    +0.000 F 
ATOM     23  C   UNL     1       5.040   4.134  16.161  0.00  0.00    +0.000 A 
ATOM     24  C   UNL     1       3.987   4.444  17.025  0.00  0.00    +0.000 A 
ENDBRANCH  17  18
BRANCH  17  25
ATOM     25  C   UNL     1       2.140   5.091  19.341  0.00  0.00    +0.000 A 
ATOM     26  C   UNL     1       2.727   5.042  20.617  0.00  0.00    +0.000 A 
ATOM     27  C   UNL     1       2.378   4.051  21.542  0.00  0.00    +0.000 A 
ATOM     28  C   UNL     1       1.396   3.125  21.222  0.00  0.00    +0.000 A 
ATOM     29  F   UNL     1       1.047   2.192  22.120  0.00  0.00    +0.000 F 
ATOM     30  C   UNL     1       0.763   3.164  19.989  0.00  0.00    +0.000 A 
ATOM     31  C   UNL     1       1.132   4.140  19.055  0.00  0.00    +0.000 A 
ENDBRANCH  17  25
ENDBRANCH   4  17
TORSDOF 5
ENDMDL
MODEL 7
REMARK VINA RESULT:      -9.2      3.629      7.893
REMARK  Name = 
REMARK  5 active torsions:
REMARK  status: ('A' for Active; 'I' for Inactive)
REMARK    1  A    between atoms: C_2  and  C_10
REMARK    2  A    between atoms: N_3  and  C_4
REMARK    3  A    between atoms: N_13  and  C_14
REMARK    4  A    between atoms: C_14  and  C_15
REMARK    5  A    between atoms: C_14  and  C_22
REMARK                            x       y       z     vdW  Elec       q    Type
REMARK                         _______ _______ _______ _____ _____    ______ ____
ROOT
ATOM      1  C   UNL     1       1.264  10.128  19.527  0.00  0.00    +0.000 C 
ATOM      2  C   UNL     1       2.133   9.980  18.277  0.00  0.00    +0.000 C 
ATOM      3  C   UNL     1       2.167   8.541  17.750  0.00  0.00    +0.000 C 
ATOM      4  N   UNL     1       2.565   7.547  18.764  0.00  0.00    +0.000 NA
ATOM      5  C   UNL     1       1.753   7.682  19.991  0.00  0.00    +0.000 C 
ATOM      6  C   UNL     1       1.712   9.100  20.565  0.00  0.00    +0.000 C 
ENDROOT
BRANCH   1   8
ATOM      7  O   UNL     1      -0.993   9.336  19.854  0.00  0.00    +0.000 OA
ATOM      8  C   UNL     1      -0.238  10.045  19.192  0.00  0.00    +0.000 C 
ATOM      9  N   UNL     1      -0.598  10.763  18.067  0.00  0.00    +0.000 N 
ATOM     10  H   UNL     1       0.146  11.150  17.502  0.00  0.00    +0.000 HD
BRANCH   9  11
ATOM     11  C   UNL     1      -1.903  10.836  17.512  0.00  0.00    +0.000 A 
ATOM     12  C   UNL     1      -2.930  11.601  18.071  0.00  0.00    +0.000 A 
ATOM     13  C   UNL     1      -4.211  11.606  17.510  0.00  0.00    +0.000 A 
ATOM     14  C   UNL     1      -4.478  10.846  16.376  0.00  0.00    +0.000 A 
ATOM     15  C   UNL     1      -3.458  10.096  15.793  0.00  0.00    +0.000 A 
ATOM     16  C   UNL     1      -2.174  10.099  16.352  0.00  0.00    +0.000 A 
ENDBRANCH   9  11
ENDBRANCH   1   8
BRANCH   4  17
ATOM     17  C   UNL     1       2.535   6.127  18.246  0.00  0.00    +0.000 C 
BRANCH  17  18
ATOM     18  C   UNL     1       3.812   5.744  17.464  0.00  0.00    +0.000 A 
ATOM     19  C   UNL     1       4.764   6.718  17.106  0.00  0.00    +0.000 A 
ATOM     20  C   UNL     1       5.831   6.404  16.264  0.00  0.00    +0.000 A 
ATOM     21  C   UNL     1       5.959   5.110  15.780  0.00  0.00    +0.000 A 
ATOM     22  F   UNL     1       6.958   4.818  14.937  0.00  0.00    +0.000 F 
ATOM     23  C   UNL     1       5.062   4.116  16.149  0.00  0.00    +0.000 A 
ATOM     24  C   UNL     1       4.001   4.426  17.002  0.00  0.00    +0.000 A 
ENDBRANCH  17  18
BRANCH  17  25
ATOM     25  C   UNL     1       2.111   5.049  19.278  0.00  0.00    +0.000 A 
ATOM     26  C   UNL     1       1.119   4.086  19.026  0.00  0.00    +0.000 A 
ATOM     27  C   UNL     1       0.744   3.154  20.001  0.00  0.00    +0.000 A 
ATOM     28  C   UNL     1       1.394   3.139  21.226  0.00  0.00    +0.000 A 
ATOM     29  F   UNL     1       1.049   2.228  22.148  0.00  0.00    +0.000 F 
ATOM     30  C   UNL     1       2.408   4.044  21.500  0.00  0.00    +0.000 A 
ATOM     31  C   UNL     1       2.764   4.993  20.533  0.00  0.00    +0.000 A 
ENDBRANCH  17  25
ENDBRANCH   4  17
TORSDOF 5
ENDMDL
MODEL 8
REMARK VINA RESULT:      -9.1      1.151      1.780
REMARK  Name = 
REMARK  5 active torsions:
REMARK  status: ('A' for Active; 'I' for Inactive)
REMARK    1  A    between atoms: C_2  and  C_10
REMARK    2  A    between atoms: N_3  and  C_4
REMARK    3  A    between atoms: N_13  and  C_14
REMARK    4  A    between atoms: C_14  and  C_15
REMARK    5  A    between atoms: C_14  and  C_22
REMARK                            x       y       z     vdW  Elec       q    Type
REMARK                         _______ _______ _______ _____ _____    ______ ____
ROOT
ATOM      1  C   UNL     1       6.627   5.301  16.813  0.00  0.00    +0.000 C 
ATOM      2  C   UNL     1       6.268   4.830  18.224  0.00  0.00    +0.000 C 
ATOM      3  C   UNL     1       4.761   4.892  18.499  0.00  0.00    +0.000 C 
ATOM      4  N   UNL     1       4.165   6.215  18.240  0.00  0.00    +0.000 NA
ATOM      5  C   UNL     1       4.514   6.703  16.890  0.00  0.00    +0.000 C 
ATOM      6  C   UNL     1       6.013   6.680  16.581  0.00  0.00    +0.000 C 
ENDROOT
BRANCH   1   8
ATOM      7  O   UNL     1       5.881   3.131  16.066  0.00  0.00    +0.000 OA
ATOM      8  C   UNL     1       6.227   4.266  15.745  0.00  0.00    +0.000 C 
ATOM      9  N   UNL     1       6.377   4.717  14.447  0.00  0.00    +0.000 N 
ATOM     10  H   UNL     1       6.849   5.602  14.312  0.00  0.00    +0.000 HD
BRANCH   9  11
ATOM     11  C   UNL     1       6.116   3.966  13.271  0.00  0.00    +0.000 A 
ATOM     12  C   UNL     1       4.829   3.742  12.776  0.00  0.00    +0.000 A 
ATOM     13  C   UNL     1       4.623   2.958  11.636  0.00  0.00    +0.000 A 
ATOM     14  C   UNL     1       5.706   2.390  10.975  0.00  0.00    +0.000 A 
ATOM     15  C   UNL     1       6.998   2.623  11.443  0.00  0.00    +0.000 A 
ATOM     16  C   UNL     1       7.203   3.416  12.579  0.00  0.00    +0.000 A 
ENDBRANCH   9  11
ENDBRANCH   1   8
BRANCH   4  17
ATOM     17  C   UNL     1       2.669   6.245  18.457  0.00  0.00    +0.000 C 
BRANCH  17  18
ATOM     18  C   UNL     1       2.179   5.142  19.423  0.00  0.00    +0.000 A 
ATOM     19  C   UNL     1       2.610   5.106  20.764  0.00  0.00    +0.000 A 
ATOM     20  C   UNL     1       2.299   4.025  21.588  0.00  0.00    +0.000 A 
ATOM     21  C   UNL     1       1.548   2.974  21.082  0.00  0.00    +0.000 A 
ATOM     22  F   UNL     1       1.287   1.916  21.861  0.00  0.00    +0.000 F 
ATOM     23  C   UNL     1       1.071   3.000  19.778  0.00  0.00    +0.000 A 
ATOM     24  C   UNL     1       1.370   4.088  18.955  0.00  0.00    +0.000 A 
ENDBRANCH  17  18
BRANCH  17  25
ATOM     25  C   UNL     1       2.069   7.640  18.777  0.00  0.00    +0.000 A 
ATOM     26  C   UNL     1       1.865   8.634  17.805  0.00  0.00    +0.000 A 
ATOM     27  C   UNL     1       1.354   9.891  18.145  0.00  0.00    +0.000 A 
ATOM     28  C   UNL     1       0.988  10.155  19.457  0.00  0.00    +0.000 A 
ATOM     29  F   UNL     1       0.475  11.353  19.774  0.00  0.00    +0.000 F 
ATOM     30  C   UNL     1       1.133   9.187  20.440  0.00  0.00    +0.000 A 
ATOM     31  C   UNL     1       1.669   7.938  20.102  0.00  0.00    +0.000 A 
ENDBRANCH  17  25
ENDBRANCH   4  17
TORSDOF 5
ENDMDL
MODEL 9
REMARK VINA RESULT:      -9.0      2.559      4.742
REMARK  Name = 
REMARK  5 active torsions:
REMARK  status: ('A' for Active; 'I' for Inactive)
REMARK    1  A    between atoms: C_2  and  C_10
REMARK    2  A    between atoms: N_3  and  C_4
REMARK    3  A    between atoms: N_13  and  C_14
REMARK    4  A    between atoms: C_14  and  C_15
REMARK    5  A    between atoms: C_14  and  C_22
REMARK                            x       y       z     vdW  Elec       q    Type
REMARK                         _______ _______ _______ _____ _____    ______ ____
ROOT
ATOM      1  C   UNL     1       7.700   5.894  18.033  0.00  0.00    +0.000 C 
ATOM      2  C   UNL     1       7.002   5.136  16.901  0.00  0.00    +0.000 C 
ATOM      3  C   UNL     1       5.476   5.260  16.964  0.00  0.00    +0.000 C 
ATOM      4  N   UNL     1       4.901   4.871  18.264  0.00  0.00    +0.000 NA
ATOM      5  C   UNL     1       5.572   5.574  19.377  0.00  0.00    +0.000 C 
ATOM      6  C   UNL     1       7.099   5.455  19.366  0.00  0.00    +0.000 C 
ENDROOT
BRANCH   1   8
ATOM      7  O   UNL     1       6.968   7.906  16.917  0.00  0.00    +0.000 OA
ATOM      8  C   UNL     1       7.655   7.418  17.813  0.00  0.00    +0.000 C 
ATOM      9  N   UNL     1       8.501   8.127  18.646  0.00  0.00    +0.000 N 
ATOM     10  H   UNL     1       9.153   7.597  19.209  0.00  0.00    +0.000 HD
BRANCH   9  11
ATOM     11  C   UNL     1       8.686   9.534  18.638  0.00  0.00    +0.000 A 
ATOM     12  C   UNL     1       8.203  10.364  17.622  0.00  0.00    +0.000 A 
ATOM     13  C   UNL     1       8.449  11.740  17.640  0.00  0.00    +0.000 A 
ATOM     14  C   UNL     1       9.180  12.305  18.680  0.00  0.00    +0.000 A 
ATOM     15  C   UNL     1       9.648  11.494  19.712  0.00  0.00    +0.000 A 
ATOM     16  C   UNL     1       9.394  10.117  19.696  0.00  0.00    +0.000 A 
ENDBRANCH   9  11
ENDBRANCH   1   8
BRANCH   4  17
ATOM     17  C   UNL     1       3.402   5.056  18.331  0.00  0.00    +0.000 C 
BRANCH  17  18
ATOM     18  C   UNL     1       2.722   4.107  19.343  0.00  0.00    +0.000 A 
ATOM     19  C   UNL     1       1.318   4.038  19.444  0.00  0.00    +0.000 A 
ATOM     20  C   UNL     1       0.707   3.307  20.463  0.00  0.00    +0.000 A 
ATOM     21  C   UNL     1       1.495   2.632  21.385  0.00  0.00    +0.000 A 
ATOM     22  F   UNL     1       0.909   1.967  22.389  0.00  0.00    +0.000 F 
ATOM     23  C   UNL     1       2.880   2.646  21.287  0.00  0.00    +0.000 A 
ATOM     24  C   UNL     1       3.493   3.366  20.259  0.00  0.00    +0.000 A 
ENDBRANCH  17  18
BRANCH  17  25
ATOM     25  C   UNL     1       2.916   6.525  18.457  0.00  0.00    +0.000 A 
ATOM     26  C   UNL     1       3.025   7.465  17.418  0.00  0.00    +0.000 A 
ATOM     27  C   UNL     1       2.605   8.790  17.588  0.00  0.00    +0.000 A 
ATOM     28  C   UNL     1       2.022   9.179  18.784  0.00  0.00    +0.000 A 
ATOM     29  F   UNL     1       1.599  10.443  18.935  0.00  0.00    +0.000 F 
ATOM     30  C   UNL     1       1.857   8.272  19.820  0.00  0.00    +0.000 A 
ATOM     31  C   UNL     1       2.301   6.954  19.657  0.00  0.00    +0.000 A 
ENDBRANCH  17  25
ENDBRANCH   4  17
TORSDOF 5
ENDMDL
