MODEL 1
REMARK VINA RESULT:      -6.9      0.000      0.000
REMARK  Name = 
REMARK  15 active torsions:
REMARK  status: ('A' for Active; 'I' for Inactive)
REMARK    1  A    between atoms: C_1  and  C_2
REMARK    2  A    between atoms: C_2  and  O_3
REMARK    3  A    between atoms: C_2  and  C_4
REMARK    4  A    between atoms: C_4  and  N_5
REMARK    5  A    between atoms: N_5  and  C_6
REMARK    6  A    between atoms: C_6  and  C_7
REMARK    7  A    between atoms: C_6  and  C_18
REMARK    8  A    between atoms: C_7  and  C_8
REMARK    9  A    between atoms: C_8  and  C_9
REMARK   10  A    between atoms: C_9  and  N_10
REMARK   11  A    between atoms: C_11  and  O_13
REMARK   12  A    between atoms: O_13  and  C_14
REMARK   13  A    between atoms: C_14  and  C_15
REMARK   14  A    between atoms: C_14  and  C_16
REMARK   15  A    between atoms: C_14  and  C_17
REMARK                            x       y       z     vdW  Elec       q    Type
REMARK                         _______ _______ _______ _____ _____    ______ ____
ROOT
ATOM      1  C   UNL     1       5.325   4.916  15.702  0.00  0.00    +0.000 C 
ENDROOT
BRANCH   1   2
ATOM      2  C   UNL     1       6.043   4.553  14.390  0.00  0.00    +0.000 A 
ATOM      3  C   UNL     1       7.196   5.230  13.945  0.00  0.00    +0.000 A 
ATOM      4  C   UNL     1       7.739   4.984  12.682  0.00  0.00    +0.000 A 
ATOM      5  C   UNL     1       7.147   4.051  11.836  0.00  0.00    +0.000 A 
ATOM      6  C   UNL     1       6.037   3.335  12.271  0.00  0.00    +0.000 A 
ATOM      7  C   UNL     1       5.506   3.563  13.544  0.00  0.00    +0.000 A 
ENDBRANCH   1   2
BRANCH   1   8
ATOM      8  N   UNL     1       5.936   4.239  16.869  0.00  0.00    +0.000 NA
ATOM      9  H   UNL     1       5.428   4.581  17.687  0.00  0.00    +0.000 HD
BRANCH   8  10
ATOM     10  C   UNL     1       7.360   4.562  17.077  0.00  0.00    +0.000 C 
BRANCH  10  12
ATOM     11  C   UNL     1       7.968   6.469  18.699  0.00  0.00    +0.000 C 
ATOM     12  C   UNL     1       7.640   4.989  18.539  0.00  0.00    +0.000 C 
BRANCH  12  13
ATOM     13  O   UNL     1       6.501   4.695  19.352  0.00  0.00    +0.000 OA
ATOM     14  H   UNL     1       5.810   5.325  19.072  0.00  0.00    +0.000 HD
ENDBRANCH  12  13
ENDBRANCH  10  12
ENDBRANCH   8  10
ENDBRANCH   1   8
BRANCH   1  15
ATOM     15  C   UNL     1       5.205   6.455  15.896  0.00  0.00    +0.000 C 
BRANCH  15  16
ATOM     16  C   UNL     1       4.844   6.955  17.302  0.00  0.00    +0.000 C 
BRANCH  16  17
ATOM     17  C   UNL     1       3.453   6.558  17.784  0.00  0.00    +0.000 C 
BRANCH  17  18
ATOM     18  N   UNL     1       3.498   5.508  18.762  0.00  0.00    +0.000 N 
ATOM     19  C   UNL     1       3.035   4.264  18.485  0.00  0.00    +0.000 C 
ATOM     20  O   UNL     1       2.629   3.906  17.390  0.00  0.00    +0.000 OA
ATOM     21  H   UNL     1       3.769   5.701  19.714  0.00  0.00    +0.000 HD
BRANCH  19  22
ATOM     22  O   UNL     1       3.091   3.506  19.607  0.00  0.00    +0.000 OA
BRANCH  22  23
ATOM     23  C   UNL     1       1.852   3.117  20.247  0.00  0.00    +0.000 C 
ATOM     24  C   UNL     1       1.202   1.938  19.515  0.00  0.00    +0.000 C 
ATOM     25  C   UNL     1       2.244   2.655  21.658  0.00  0.00    +0.000 C 
ATOM     26  C   UNL     1       0.908   4.321  20.381  0.00  0.00    +0.000 C 
ENDBRANCH  22  23
ENDBRANCH  19  22
ENDBRANCH  17  18
ENDBRANCH  16  17
ENDBRANCH  15  16
ENDBRANCH   1  15
TORSDOF 11
ENDMDL
MODEL 2
REMARK VINA RESULT:      -6.9      1.258      1.884
REMARK  Name = 
REMARK  15 active torsions:
REMARK  status: ('A' for Active; 'I' for Inactive)
REMARK    1  A    between atoms: C_1  and  C_2
REMARK    2  A    between atoms: C_2  and  O_3
REMARK    3  A    between atoms: C_2  and  C_4
REMARK    4  A    between atoms: C_4  and  N_5
REMARK    5  A    between atoms: N_5  and  C_6
REMARK    6  A    between atoms: C_6  and  C_7
REMARK    7  A    between atoms: C_6  and  C_18
REMARK    8  A    between atoms: C_7  and  C_8
REMARK    9  A    between atoms: C_8  and  C_9
REMARK   10  A    between atoms: C_9  and  N_10
REMARK   11  A    between atoms: C_11  and  O_13
REMARK   12  A    between atoms: O_13  and  C_14
REMARK   13  A    between atoms: C_14  and  C_15
REMARK   14  A    between atoms: C_14  and  C_16
REMARK   15  A    between atoms: C_14  and  C_17
REMARK                            x       y       z     vdW  Elec       q    Type
REMARK                         _______ _______ _______ _____ _____    ______ ____
ROOT
ATOM      1  C   UNL     1       6.319   4.733  15.857  0.00  0.00    +0.000 C 
ENDROOT
BRANCH   1   2
ATOM      2  C   UNL     1       6.474   4.541  14.338  0.00  0.00    +0.000 A 
ATOM      3  C   UNL     1       5.681   3.635  13.605  0.00  0.00    +0.000 A 
ATOM      4  C   UNL     1       5.943   3.369  12.259  0.00  0.00    +0.000 A 
ATOM      5  C   UNL     1       6.997   4.005  11.612  0.00  0.00    +0.000 A 
ATOM      6  C   UNL     1       7.764   4.940  12.300  0.00  0.00    +0.000 A 
ATOM      7  C   UNL     1       7.489   5.225  13.641  0.00  0.00    +0.000 A 
ENDBRANCH   1   2
BRANCH   1   8
ATOM      8  N   UNL     1       7.594   5.143  16.492  0.00  0.00    +0.000 NA
ATOM      9  H   UNL     1       8.334   4.809  15.872  0.00  0.00    +0.000 HD
BRANCH   8  10
ATOM     10  C   UNL     1       7.830   4.537  17.815  0.00  0.00    +0.000 C 
BRANCH  10  12
ATOM     11  C   UNL     1       7.901   7.042  18.413  0.00  0.00    +0.000 C 
ATOM     12  C   UNL     1       7.880   5.609  18.932  0.00  0.00    +0.000 C 
BRANCH  12  13
ATOM     13  O   UNL     1       6.747   5.463  19.790  0.00  0.00    +0.000 OA
ATOM     14  H   UNL     1       7.020   4.828  20.480  0.00  0.00    +0.000 HD
ENDBRANCH  12  13
ENDBRANCH  10  12
ENDBRANCH   8  10
ENDBRANCH   1   8
BRANCH   1  15
ATOM     15  C   UNL     1       5.141   5.685  16.210  0.00  0.00    +0.000 C 
BRANCH  15  16
ATOM     16  C   UNL     1       4.062   5.140  17.156  0.00  0.00    +0.000 C 
BRANCH  16  17
ATOM     17  C   UNL     1       3.555   3.744  16.811  0.00  0.00    +0.000 C 
BRANCH  17  18
ATOM     18  N   UNL     1       3.053   3.050  17.964  0.00  0.00    +0.000 N 
ATOM     19  C   UNL     1       1.753   3.147  18.335  0.00  0.00    +0.000 C 
ATOM     20  O   UNL     1       0.895   3.741  17.701  0.00  0.00    +0.000 OA
ATOM     21  H   UNL     1       3.680   2.569  18.589  0.00  0.00    +0.000 HD
BRANCH  19  22
ATOM     22  O   UNL     1       1.574   2.493  19.509  0.00  0.00    +0.000 OA
BRANCH  22  23
ATOM     23  C   UNL     1       2.150   3.056  20.714  0.00  0.00    +0.000 C 
ATOM     24  C   UNL     1       2.059   4.586  20.703  0.00  0.00    +0.000 C 
ATOM     25  C   UNL     1       1.286   2.527  21.868  0.00  0.00    +0.000 C 
ATOM     26  C   UNL     1       3.585   2.551  20.917  0.00  0.00    +0.000 C 
ENDBRANCH  22  23
ENDBRANCH  19  22
ENDBRANCH  17  18
ENDBRANCH  16  17
ENDBRANCH  15  16
ENDBRANCH   1  15
TORSDOF 11
ENDMDL
MODEL 3
REMARK VINA RESULT:      -6.8      1.267      1.925
REMARK  Name = 
REMARK  15 active torsions:
REMARK  status: ('A' for Active; 'I' for Inactive)
REMARK    1  A    between atoms: C_1  and  C_2
REMARK    2  A    between atoms: C_2  and  O_3
REMARK    3  A    between atoms: C_2  and  C_4
REMARK    4  A    between atoms: C_4  and  N_5
REMARK    5  A    between atoms: N_5  and  C_6
REMARK    6  A    between atoms: C_6  and  C_7
REMARK    7  A    between atoms: C_6  and  C_18
REMARK    8  A    between atoms: C_7  and  C_8
REMARK    9  A    between atoms: C_8  and  C_9
REMARK   10  A    between atoms: C_9  and  N_10
REMARK   11  A    between atoms: C_11  and  O_13
REMARK   12  A    between atoms: O_13  and  C_14
REMARK   13  A    between atoms: C_14  and  C_15
REMARK   14  A    between atoms: C_14  and  C_16
REMARK   15  A    between atoms: C_14  and  C_17
REMARK                            x       y       z     vdW  Elec       q    Type
REMARK                         _______ _______ _______ _____ _____    ______ ____
ROOT
ATOM      1  C   UNL     1       6.403   4.213  15.900  0.00  0.00    +0.000 C 
ENDROOT
BRANCH   1   2
ATOM      2  C   UNL     1       6.606   4.343  14.380  0.00  0.00    +0.000 A 
ATOM      3  C   UNL     1       5.952   3.504  13.454  0.00  0.00    +0.000 A 
ATOM      4  C   UNL     1       6.268   3.542  12.094  0.00  0.00    +0.000 A 
ATOM      5  C   UNL     1       7.238   4.422  11.626  0.00  0.00    +0.000 A 
ATOM      6  C   UNL     1       7.863   5.294  12.511  0.00  0.00    +0.000 A 
ATOM      7  C   UNL     1       7.532   5.274  13.870  0.00  0.00    +0.000 A 
ENDBRANCH   1   2
BRANCH   1   8
ATOM      8  N   UNL     1       7.509   4.844  16.658  0.00  0.00    +0.000 NA
ATOM      9  H   UNL     1       8.370   4.459  16.268  0.00  0.00    +0.000 HD
BRANCH   8  10
ATOM     10  C   UNL     1       7.507   4.531  18.099  0.00  0.00    +0.000 C 
BRANCH  10  12
ATOM     11  C   UNL     1       7.919   7.061  18.364  0.00  0.00    +0.000 C 
ATOM     12  C   UNL     1       8.159   5.666  18.928  0.00  0.00    +0.000 C 
BRANCH  12  13
ATOM     13  O   UNL     1       7.655   5.633  20.266  0.00  0.00    +0.000 OA
ATOM     14  H   UNL     1       8.165   6.307  20.755  0.00  0.00    +0.000 HD
ENDBRANCH  12  13
ENDBRANCH  10  12
ENDBRANCH   8  10
ENDBRANCH   1   8
BRANCH   1  15
ATOM     15  C   UNL     1       5.003   4.718  16.350  0.00  0.00    +0.000 C 
BRANCH  15  16
ATOM     16  C   UNL     1       4.778   6.236  16.359  0.00  0.00    +0.000 C 
BRANCH  16  17
ATOM     17  C   UNL     1       4.544   6.840  17.740  0.00  0.00    +0.000 C 
BRANCH  17  18
ATOM     18  N   UNL     1       4.158   5.848  18.705  0.00  0.00    +0.000 N 
ATOM     19  C   UNL     1       3.016   5.971  19.426  0.00  0.00    +0.000 C 
ATOM     20  O   UNL     1       2.193   6.858  19.270  0.00  0.00    +0.000 OA
ATOM     21  H   UNL     1       4.784   5.097  18.951  0.00  0.00    +0.000 HD
BRANCH  19  22
ATOM     22  O   UNL     1       2.952   4.967  20.334  0.00  0.00    +0.000 OA
BRANCH  22  23
ATOM     23  C   UNL     1       2.314   3.723  19.953  0.00  0.00    +0.000 C 
ATOM     24  C   UNL     1       1.270   3.302  20.993  0.00  0.00    +0.000 C 
ATOM     25  C   UNL     1       1.590   4.021  18.632  0.00  0.00    +0.000 C 
ATOM     26  C   UNL     1       3.362   2.632  19.692  0.00  0.00    +0.000 C 
ENDBRANCH  22  23
ENDBRANCH  19  22
ENDBRANCH  17  18
ENDBRANCH  16  17
ENDBRANCH  15  16
ENDBRANCH   1  15
TORSDOF 11
ENDMDL
MODEL 4
REMARK VINA RESULT:      -6.7      1.243      1.334
REMARK  Name = 
REMARK  15 active torsions:
REMARK  status: ('A' for Active; 'I' for Inactive)
REMARK    1  A    between atoms: C_1  and  C_2
REMARK    2  A    between atoms: C_2  and  O_3
REMARK    3  A    between atoms: C_2  and  C_4
REMARK    4  A    between atoms: C_4  and  N_5
REMARK    5  A    between atoms: N_5  and  C_6
REMARK    6  A    between atoms: C_6  and  C_7
REMARK    7  A    between atoms: C_6  and  C_18
REMARK    8  A    between atoms: C_7  and  C_8
REMARK    9  A    between atoms: C_8  and  C_9
REMARK   10  A    between atoms: C_9  and  N_10
REMARK   11  A    between atoms: C_11  and  O_13
REMARK   12  A    between atoms: O_13  and  C_14
REMARK   13  A    between atoms: C_14  and  C_15
REMARK   14  A    between atoms: C_14  and  C_16
REMARK   15  A    between atoms: C_14  and  C_17
REMARK                            x       y       z     vdW  Elec       q    Type
REMARK                         _______ _______ _______ _____ _____    ______ ____
ROOT
ATOM      1  C   UNL     1       6.409   4.640  15.856  0.00  0.00    +0.000 C 
ENDROOT
BRANCH   1   2
ATOM      2  C   UNL     1       6.753   4.481  14.365  0.00  0.00    +0.000 A 
ATOM      3  C   UNL     1       7.648   5.342  13.698  0.00  0.00    +0.000 A 
ATOM      4  C   UNL     1       7.825   5.271  12.314  0.00  0.00    +0.000 A 
ATOM      5  C   UNL     1       7.118   4.337  11.565  0.00  0.00    +0.000 A 
ATOM      6  C   UNL     1       6.265   3.444  12.206  0.00  0.00    +0.000 A 
ATOM      7  C   UNL     1       6.103   3.497  13.594  0.00  0.00    +0.000 A 
ENDBRANCH   1   2
BRANCH   1   8
ATOM      8  N   UNL     1       7.628   4.740  16.693  0.00  0.00    +0.000 NA
ATOM      9  H   UNL     1       8.226   3.962  16.410  0.00  0.00    +0.000 HD
BRANCH   8  10
ATOM     10  C   UNL     1       7.380   4.593  18.139  0.00  0.00    +0.000 C 
BRANCH  10  12
ATOM     11  C   UNL     1       7.947   7.084  18.473  0.00  0.00    +0.000 C 
ATOM     12  C   UNL     1       8.153   5.655  18.961  0.00  0.00    +0.000 C 
BRANCH  12  13
ATOM     13  O   UNL     1       7.750   5.589  20.331  0.00  0.00    +0.000 OA
ATOM     14  H   UNL     1       7.900   6.484  20.691  0.00  0.00    +0.000 HD
ENDBRANCH  12  13
ENDBRANCH  10  12
ENDBRANCH   8  10
ENDBRANCH   1   8
BRANCH   1  15
ATOM     15  C   UNL     1       5.412   5.807  16.107  0.00  0.00    +0.000 C 
BRANCH  15  16
ATOM     16  C   UNL     1       4.083   5.455  16.789  0.00  0.00    +0.000 C 
BRANCH  16  17
ATOM     17  C   UNL     1       3.585   6.492  17.791  0.00  0.00    +0.000 C 
BRANCH  17  18
ATOM     18  N   UNL     1       2.845   5.893  18.866  0.00  0.00    +0.000 N 
ATOM     19  C   UNL     1       3.472   5.243  19.878  0.00  0.00    +0.000 C 
ATOM     20  O   UNL     1       4.684   5.180  20.013  0.00  0.00    +0.000 OA
ATOM     21  H   UNL     1       1.839   5.842  18.834  0.00  0.00    +0.000 HD
BRANCH  19  22
ATOM     22  O   UNL     1       2.544   4.680  20.690  0.00  0.00    +0.000 OA
BRANCH  22  23
ATOM     23  C   UNL     1       2.111   3.325  20.417  0.00  0.00    +0.000 C 
ATOM     24  C   UNL     1       3.209   2.531  19.702  0.00  0.00    +0.000 C 
ATOM     25  C   UNL     1       1.868   2.687  21.793  0.00  0.00    +0.000 C 
ATOM     26  C   UNL     1       0.783   3.324  19.646  0.00  0.00    +0.000 C 
ENDBRANCH  22  23
ENDBRANCH  19  22
ENDBRANCH  17  18
ENDBRANCH  16  17
ENDBRANCH  15  16
ENDBRANCH   1  15
TORSDOF 11
ENDMDL
MODEL 5
REMARK VINA RESULT:      -6.5      1.987      6.598
REMARK  Name = 
REMARK  15 active torsions:
REMARK  status: ('A' for Active; 'I' for Inactive)
REMARK    1  A    between atoms: C_1  and  C_2
REMARK    2  A    between atoms: C_2  and  O_3
REMARK    3  A    between atoms: C_2  and  C_4
REMARK    4  A    between atoms: C_4  and  N_5
REMARK    5  A    between atoms: N_5  and  C_6
REMARK    6  A    between atoms: C_6  and  C_7
REMARK    7  A    between atoms: C_6  and  C_18
REMARK    8  A    between atoms: C_7  and  C_8
REMARK    9  A    between atoms: C_8  and  C_9
REMARK   10  A    between atoms: C_9  and  N_10
REMARK   11  A    between atoms: C_11  and  O_13
REMARK   12  A    between atoms: O_13  and  C_14
REMARK   13  A    between atoms: C_14  and  C_15
REMARK   14  A    between atoms: C_14  and  C_16
REMARK   15  A    between atoms: C_14  and  C_17
REMARK                            x       y       z     vdW  Elec       q    Type
REMARK                         _______ _______ _______ _____ _____    ______ ____
ROOT
ATOM      1  C   UNL     1       3.832   5.506  18.677  0.00  0.00    +0.000 C 
ENDROOT
BRANCH   1   2
ATOM      2  C   UNL     1       2.804   4.473  19.171  0.00  0.00    +0.000 A 
ATOM      3  C   UNL     1       2.224   3.514  18.316  0.00  0.00    +0.000 A 
ATOM      4  C   UNL     1       1.184   2.690  18.752  0.00  0.00    +0.000 A 
ATOM      5  C   UNL     1       0.704   2.798  20.053  0.00  0.00    +0.000 A 
ATOM      6  C   UNL     1       1.293   3.703  20.931  0.00  0.00    +0.000 A 
ATOM      7  C   UNL     1       2.349   4.513  20.503  0.00  0.00    +0.000 A 
ENDBRANCH   1   2
BRANCH   1   8
ATOM      8  N   UNL     1       5.156   5.312  19.314  0.00  0.00    +0.000 NA
ATOM      9  H   UNL     1       5.618   6.222  19.280  0.00  0.00    +0.000 HD
BRANCH   8  10
ATOM     10  C   UNL     1       6.030   4.356  18.610  0.00  0.00    +0.000 C 
BRANCH  10  12
ATOM     11  C   UNL     1       8.073   5.769  19.296  0.00  0.00    +0.000 C 
ATOM     12  C   UNL     1       7.364   5.014  18.177  0.00  0.00    +0.000 C 
BRANCH  12  13
ATOM     13  O   UNL     1       8.255   4.013  17.681  0.00  0.00    +0.000 OA
ATOM     14  H   UNL     1       7.698   3.398  17.166  0.00  0.00    +0.000 HD
ENDBRANCH  12  13
ENDBRANCH  10  12
ENDBRANCH   8  10
ENDBRANCH   1   8
BRANCH   1  15
ATOM     15  C   UNL     1       3.916   5.554  17.125  0.00  0.00    +0.000 C 
BRANCH  15  16
ATOM     16  C   UNL     1       4.509   6.822  16.496  0.00  0.00    +0.000 C 
BRANCH  16  17
ATOM     17  C   UNL     1       5.644   6.575  15.507  0.00  0.00    +0.000 C 
BRANCH  17  18
ATOM     18  N   UNL     1       5.583   5.260  14.933  0.00  0.00    +0.000 N 
ATOM     19  C   UNL     1       6.659   4.707  14.320  0.00  0.00    +0.000 C 
ATOM     20  O   UNL     1       7.767   5.218  14.275  0.00  0.00    +0.000 OA
ATOM     21  H   UNL     1       4.707   4.765  14.870  0.00  0.00    +0.000 HD
BRANCH  19  22
ATOM     22  O   UNL     1       6.299   3.521  13.772  0.00  0.00    +0.000 OA
BRANCH  22  23
ATOM     23  C   UNL     1       6.161   3.432  12.333  0.00  0.00    +0.000 C 
ATOM     24  C   UNL     1       4.718   3.716  11.902  0.00  0.00    +0.000 C 
ATOM     25  C   UNL     1       7.063   4.537  11.764  0.00  0.00    +0.000 C 
ATOM     26  C   UNL     1       6.676   2.080  11.820  0.00  0.00    +0.000 C 
ENDBRANCH  22  23
ENDBRANCH  19  22
ENDBRANCH  17  18
ENDBRANCH  16  17
ENDBRANCH  15  16
ENDBRANCH   1  15
TORSDOF 11
ENDMDL
MODEL 6
REMARK VINA RESULT:      -6.5      2.447      7.311
REMARK  Name = 
REMARK  15 active torsions:
REMARK  status: ('A' for Active; 'I' for Inactive)
REMARK    1  A    between atoms: C_1  and  C_2
REMARK    2  A    between atoms: C_2  and  O_3
REMARK    3  A    between atoms: C_2  and  C_4
REMARK    4  A    between atoms: C_4  and  N_5
REMARK    5  A    between atoms: N_5  and  C_6
REMARK    6  A    between atoms: C_6  and  C_7
REMARK    7  A    between atoms: C_6  and  C_18
REMARK    8  A    between atoms: C_7  and  C_8
REMARK    9  A    between atoms: C_8  and  C_9
REMARK   10  A    between atoms: C_9  and  N_10
REMARK   11  A    between atoms: C_11  and  O_13
REMARK   12  A    between atoms: O_13  and  C_14
REMARK   13  A    between atoms: C_14  and  C_15
REMARK   14  A    between atoms: C_14  and  C_16
REMARK   15  A    between atoms: C_14  and  C_17
REMARK                            x       y       z     vdW  Elec       q    Type
REMARK                         _______ _______ _______ _____ _____    ______ ____
ROOT
ATOM      1  C   UNL     1       3.571   6.072  19.312  0.00  0.00    +0.000 C 
ENDROOT
BRANCH   1   2
ATOM      2  C   UNL     1       2.612   7.264  19.141  0.00  0.00    +0.000 A 
ATOM      3  C   UNL     1       2.507   7.984  17.934  0.00  0.00    +0.000 A 
ATOM      4  C   UNL     1       1.745   9.152  17.852  0.00  0.00    +0.000 A 
ATOM      5  C   UNL     1       1.064   9.623  18.970  0.00  0.00    +0.000 A 
ATOM      6  C   UNL     1       1.113   8.904  20.160  0.00  0.00    +0.000 A 
ATOM      7  C   UNL     1       1.857   7.723  20.238  0.00  0.00    +0.000 A 
ENDBRANCH   1   2
BRANCH   1   8
ATOM      8  N   UNL     1       3.066   5.099  20.309  0.00  0.00    +0.000 NA
ATOM      9  H   UNL     1       3.820   4.978  20.987  0.00  0.00    +0.000 HD
BRANCH   8  10
ATOM     10  C   UNL     1       2.767   3.767  19.752  0.00  0.00    +0.000 C 
BRANCH  10  12
ATOM     11  C   UNL     1       0.810   2.434  18.737  0.00  0.00    +0.000 C 
ATOM     12  C   UNL     1       1.245   3.475  19.761  0.00  0.00    +0.000 C 
BRANCH  12  13
ATOM     13  O   UNL     1       0.851   3.018  21.056  0.00  0.00    +0.000 OA
ATOM     14  H   UNL     1       0.633   3.823  21.563  0.00  0.00    +0.000 HD
ENDBRANCH  12  13
ENDBRANCH  10  12
ENDBRANCH   8  10
ENDBRANCH   1   8
BRANCH   1  15
ATOM     15  C   UNL     1       3.927   5.407  17.952  0.00  0.00    +0.000 C 
BRANCH  15  16
ATOM     16  C   UNL     1       5.273   5.788  17.319  0.00  0.00    +0.000 C 
BRANCH  16  17
ATOM     17  C   UNL     1       5.223   6.047  15.817  0.00  0.00    +0.000 C 
BRANCH  17  18
ATOM     18  N   UNL     1       5.365   4.838  15.055  0.00  0.00    +0.000 N 
ATOM     19  C   UNL     1       6.551   4.491  14.496  0.00  0.00    +0.000 C 
ATOM     20  O   UNL     1       7.594   5.105  14.652  0.00  0.00    +0.000 OA
ATOM     21  H   UNL     1       4.560   4.279  14.821  0.00  0.00    +0.000 HD
BRANCH  19  22
ATOM     22  O   UNL     1       6.380   3.376  13.744  0.00  0.00    +0.000 OA
BRANCH  22  23
ATOM     23  C   UNL     1       6.275   3.515  12.306  0.00  0.00    +0.000 C 
ATOM     24  C   UNL     1       7.147   4.670  11.802  0.00  0.00    +0.000 C 
ATOM     25  C   UNL     1       6.824   2.204  11.725  0.00  0.00    +0.000 C 
ATOM     26  C   UNL     1       4.807   3.653  11.879  0.00  0.00    +0.000 C 
ENDBRANCH  22  23
ENDBRANCH  19  22
ENDBRANCH  17  18
ENDBRANCH  16  17
ENDBRANCH  15  16
ENDBRANCH   1  15
TORSDOF 11
ENDMDL
MODEL 7
REMARK VINA RESULT:      -6.4      2.352      6.965
REMARK  Name = 
REMARK  15 active torsions:
REMARK  status: ('A' for Active; 'I' for Inactive)
REMARK    1  A    between atoms: C_1  and  C_2
REMARK    2  A    between atoms: C_2  and  O_3
REMARK    3  A    between atoms: C_2  and  C_4
REMARK    4  A    between atoms: C_4  and  N_5
REMARK    5  A    between atoms: N_5  and  C_6
REMARK    6  A    between atoms: C_6  and  C_7
REMARK    7  A    between atoms: C_6  and  C_18
REMARK    8  A    between atoms: C_7  and  C_8
REMARK    9  A    between atoms: C_8  and  C_9
REMARK   10  A    between atoms: C_9  and  N_10
REMARK   11  A    between atoms: C_11  and  O_13
REMARK   12  A    between atoms: O_13  and  C_14
REMARK   13  A    between atoms: C_14  and  C_15
REMARK   14  A    between atoms: C_14  and  C_16
REMARK   15  A    between atoms: C_14  and  C_17
REMARK                            x       y       z     vdW  Elec       q    Type
REMARK                         _______ _______ _______ _____ _____    ______ ____
ROOT
ATOM      1  C   UNL     1       2.708   6.191  19.922  0.00  0.00    +0.000 C 
ENDROOT
BRANCH   1   2
ATOM      2  C   UNL     1       2.077   7.525  19.486  0.00  0.00    +0.000 A 
ATOM      3  C   UNL     1       2.227   8.043  18.184  0.00  0.00    +0.000 A 
ATOM      4  C   UNL     1       1.775   9.324  17.858  0.00  0.00    +0.000 A 
ATOM      5  C   UNL     1       1.158  10.114  18.822  0.00  0.00    +0.000 A 
ATOM      6  C   UNL     1       0.955   9.607  20.101  0.00  0.00    +0.000 A 
ATOM      7  C   UNL     1       1.385   8.316  20.423  0.00  0.00    +0.000 A 
ENDBRANCH   1   2
BRANCH   1   8
ATOM      8  N   UNL     1       1.680   5.205  20.331  0.00  0.00    +0.000 NA
ATOM      9  H   UNL     1       1.048   5.704  20.958  0.00  0.00    +0.000 HD
BRANCH   8  10
ATOM     10  C   UNL     1       2.215   4.054  21.082  0.00  0.00    +0.000 C 
BRANCH  10  12
ATOM     11  C   UNL     1       0.941   2.827  19.208  0.00  0.00    +0.000 C 
ATOM     12  C   UNL     1       1.958   2.719  20.338  0.00  0.00    +0.000 C 
BRANCH  12  13
ATOM     13  O   UNL     1       3.184   2.231  19.789  0.00  0.00    +0.000 OA
ATOM     14  H   UNL     1       3.577   1.670  20.484  0.00  0.00    +0.000 HD
ENDBRANCH  12  13
ENDBRANCH  10  12
ENDBRANCH   8  10
ENDBRANCH   1   8
BRANCH   1  15
ATOM     15  C   UNL     1       3.686   5.627  18.851  0.00  0.00    +0.000 C 
BRANCH  15  16
ATOM     16  C   UNL     1       5.183   5.666  19.185  0.00  0.00    +0.000 C 
BRANCH  16  17
ATOM     17  C   UNL     1       5.923   4.351  18.959  0.00  0.00    +0.000 C 
BRANCH  17  18
ATOM     18  N   UNL     1       5.810   3.893  17.603  0.00  0.00    +0.000 N 
ATOM     19  C   UNL     1       6.824   4.054  16.717  0.00  0.00    +0.000 C 
ATOM     20  O   UNL     1       7.922   4.507  16.998  0.00  0.00    +0.000 OA
ATOM     21  H   UNL     1       4.933   3.547  17.247  0.00  0.00    +0.000 HD
BRANCH  19  22
ATOM     22  O   UNL     1       6.416   3.641  15.492  0.00  0.00    +0.000 OA
BRANCH  22  23
ATOM     23  C   UNL     1       6.157   4.636  14.472  0.00  0.00    +0.000 C 
ATOM     24  C   UNL     1       7.459   5.082  13.798  0.00  0.00    +0.000 C 
ATOM     25  C   UNL     1       5.284   3.933  13.423  0.00  0.00    +0.000 C 
ATOM     26  C   UNL     1       5.359   5.813  15.052  0.00  0.00    +0.000 C 
ENDBRANCH  22  23
ENDBRANCH  19  22
ENDBRANCH  17  18
ENDBRANCH  16  17
ENDBRANCH  15  16
ENDBRANCH   1  15
TORSDOF 11
ENDMDL
MODEL 8
REMARK VINA RESULT:      -6.4      4.251      8.020
REMARK  Name = 
REMARK  15 active torsions:
REMARK  status: ('A' for Active; 'I' for Inactive)
REMARK    1  A    between atoms: C_1  and  C_2
REMARK    2  A    between atoms: C_2  and  O_3
REMARK    3  A    between atoms: C_2  and  C_4
REMARK    4  A    between atoms: C_4  and  N_5
REMARK    5  A    between atoms: N_5  and  C_6
REMARK    6  A    between atoms: C_6  and  C_7
REMARK    7  A    between atoms: C_6  and  C_18
REMARK    8  A    between atoms: C_7  and  C_8
REMARK    9  A    between atoms: C_8  and  C_9
REMARK   10  A    between atoms: C_9  and  N_10
REMARK   11  A    between atoms: C_11  and  O_13
REMARK   12  A    between atoms: O_13  and  C_14
REMARK   13  A    between atoms: C_14  and  C_15
REMARK   14  A    between atoms: C_14  and  C_16
REMARK   15  A    between atoms: C_14  and  C_17
REMARK                            x       y       z     vdW  Elec       q    Type
REMARK                         _______ _______ _______ _____ _____    ______ ____
ROOT
ATOM      1  C   UNL     1       6.038   5.508  16.998  0.00  0.00    +0.000 C 
ENDROOT
BRANCH   1   2
ATOM      2  C   UNL     1       4.617   5.170  17.482  0.00  0.00    +0.000 A 
ATOM      3  C   UNL     1       4.107   3.857  17.474  0.00  0.00    +0.000 A 
ATOM      4  C   UNL     1       2.767   3.598  17.774  0.00  0.00    +0.000 A 
ATOM      5  C   UNL     1       1.908   4.644  18.096  0.00  0.00    +0.000 A 
ATOM      6  C   UNL     1       2.399   5.944  18.158  0.00  0.00    +0.000 A 
ATOM      7  C   UNL     1       3.745   6.202  17.881  0.00  0.00    +0.000 A 
ENDBRANCH   1   2
BRANCH   1   8
ATOM      8  N   UNL     1       6.029   6.112  15.645  0.00  0.00    +0.000 NA
ATOM      9  H   UNL     1       5.330   6.856  15.676  0.00  0.00    +0.000 HD
BRANCH   8  10
ATOM     10  C   UNL     1       5.627   5.184  14.573  0.00  0.00    +0.000 C 
BRANCH  10  12
ATOM     11  C   UNL     1       6.556   3.814  12.598  0.00  0.00    +0.000 C 
ATOM     12  C   UNL     1       6.853   4.485  13.934  0.00  0.00    +0.000 C 
BRANCH  12  13
ATOM     13  O   UNL     1       7.897   5.440  13.731  0.00  0.00    +0.000 OA
ATOM     14  H   UNL     1       8.527   5.013  13.118  0.00  0.00    +0.000 HD
ENDBRANCH  12  13
ENDBRANCH  10  12
ENDBRANCH   8  10
ENDBRANCH   1   8
BRANCH   1  15
ATOM     15  C   UNL     1       6.821   6.366  18.032  0.00  0.00    +0.000 C 
BRANCH  15  16
ATOM     16  C   UNL     1       7.538   7.616  17.502  0.00  0.00    +0.000 C 
BRANCH  16  17
ATOM     17  C   UNL     1       8.421   8.327  18.522  0.00  0.00    +0.000 C 
BRANCH  17  18
ATOM     18  N   UNL     1       8.741   9.668  18.120  0.00  0.00    +0.000 N 
ATOM     19  C   UNL     1       9.151  10.597  19.019  0.00  0.00    +0.000 C 
ATOM     20  O   UNL     1       9.364  10.368  20.199  0.00  0.00    +0.000 OA
ATOM     21  H   UNL     1       8.556   9.982  17.179  0.00  0.00    +0.000 HD
BRANCH  19  22
ATOM     22  O   UNL     1       9.273  11.795  18.397  0.00  0.00    +0.000 OA
BRANCH  22  23
ATOM     23  C   UNL     1      10.526  12.513  18.510  0.00  0.00    +0.000 C 
ATOM     24  C   UNL     1      11.718  11.551  18.446  0.00  0.00    +0.000 C 
ATOM     25  C   UNL     1      10.583  13.437  17.284  0.00  0.00    +0.000 C 
ATOM     26  C   UNL     1      10.540  13.387  19.772  0.00  0.00    +0.000 C 
ENDBRANCH  22  23
ENDBRANCH  19  22
ENDBRANCH  17  18
ENDBRANCH  16  17
ENDBRANCH  15  16
ENDBRANCH   1  15
TORSDOF 11
ENDMDL
MODEL 9
REMARK VINA RESULT:      -6.3      2.452      6.816
REMARK  Name = 
REMARK  15 active torsions:
REMARK  status: ('A' for Active; 'I' for Inactive)
REMARK    1  A    between atoms: C_1  and  C_2
REMARK    2  A    between atoms: C_2  and  O_3
REMARK    3  A    between atoms: C_2  and  C_4
REMARK    4  A    between atoms: C_4  and  N_5
REMARK    5  A    between atoms: N_5  and  C_6
REMARK    6  A    between atoms: C_6  and  C_7
REMARK    7  A    between atoms: C_6  and  C_18
REMARK    8  A    between atoms: C_7  and  C_8
REMARK    9  A    between atoms: C_8  and  C_9
REMARK   10  A    between atoms: C_9  and  N_10
REMARK   11  A    between atoms: C_11  and  O_13
REMARK   12  A    between atoms: O_13  and  C_14
REMARK   13  A    between atoms: C_14  and  C_15
REMARK   14  A    between atoms: C_14  and  C_16
REMARK   15  A    between atoms: C_14  and  C_17
REMARK                            x       y       z     vdW  Elec       q    Type
REMARK                         _______ _______ _______ _____ _____    ______ ____
ROOT
ATOM      1  C   UNL     1       2.870   5.947  19.148  0.00  0.00    +0.000 C 
ENDROOT
BRANCH   1   2
ATOM      2  C   UNL     1       2.212   7.335  19.057  0.00  0.00    +0.000 A 
ATOM      3  C   UNL     1       2.258   8.120  17.887  0.00  0.00    +0.000 A 
ATOM      4  C   UNL     1       1.787   9.435  17.878  0.00  0.00    +0.000 A 
ATOM      5  C   UNL     1       1.254   9.995  19.035  0.00  0.00    +0.000 A 
ATOM      6  C   UNL     1       1.153   9.225  20.189  0.00  0.00    +0.000 A 
ATOM      7  C   UNL     1       1.603   7.901  20.194  0.00  0.00    +0.000 A 
ENDBRANCH   1   2
BRANCH   1   8
ATOM      8  N   UNL     1       2.053   4.907  18.480  0.00  0.00    +0.000 NA
ATOM      9  H   UNL     1       1.101   5.275  18.451  0.00  0.00    +0.000 HD
BRANCH   8  10
ATOM     10  C   UNL     1       1.999   3.625  19.207  0.00  0.00    +0.000 C 
BRANCH  10  12
ATOM     11  C   UNL     1       3.481   1.775  18.196  0.00  0.00    +0.000 C 
ATOM     12  C   UNL     1       2.100   2.418  18.240  0.00  0.00    +0.000 C 
BRANCH  12  13
ATOM     13  O   UNL     1       1.155   1.416  18.624  0.00  0.00    +0.000 OA
ATOM     14  H   UNL     1       1.577   0.921  19.352  0.00  0.00    +0.000 HD
ENDBRANCH  12  13
ENDBRANCH  10  12
ENDBRANCH   8  10
ENDBRANCH   1   8
BRANCH   1  15
ATOM     15  C   UNL     1       4.343   5.963  18.649  0.00  0.00    +0.000 C 
BRANCH  15  16
ATOM     16  C   UNL     1       5.373   5.195  19.488  0.00  0.00    +0.000 C 
BRANCH  16  17
ATOM     17  C   UNL     1       6.828   5.528  19.176  0.00  0.00    +0.000 C 
BRANCH  17  18
ATOM     18  N   UNL     1       7.190   5.166  17.834  0.00  0.00    +0.000 N 
ATOM     19  C   UNL     1       7.339   6.103  16.865  0.00  0.00    +0.000 C 
ATOM     20  O   UNL     1       7.268   7.307  17.053  0.00  0.00    +0.000 OA
ATOM     21  H   UNL     1       7.229   4.198  17.554  0.00  0.00    +0.000 HD
BRANCH  19  22
ATOM     22  O   UNL     1       7.568   5.486  15.680  0.00  0.00    +0.000 OA
BRANCH  22  23
ATOM     23  C   UNL     1       6.449   4.893  14.977  0.00  0.00    +0.000 C 
ATOM     24  C   UNL     1       5.957   3.631  15.693  0.00  0.00    +0.000 C 
ATOM     25  C   UNL     1       5.330   5.945  15.024  0.00  0.00    +0.000 C 
ATOM     26  C   UNL     1       6.806   4.637  13.506  0.00  0.00    +0.000 C 
ENDBRANCH  22  23
ENDBRANCH  19  22
ENDBRANCH  17  18
ENDBRANCH  16  17
ENDBRANCH  15  16
ENDBRANCH   1  15
TORSDOF 11
ENDMDL
