MODEL 1
REMARK VINA RESULT:      -8.2      0.000      0.000
REMARK  Name = 
REMARK  5 active torsions:
REMARK  status: ('A' for Active; 'I' for Inactive)
REMARK    1  A    between atoms: C_1  and  C_2
REMARK    2  A    between atoms: C_8  and  N_9
REMARK    3  A    between atoms: N_12  and  C_13
REMARK    4  A    between atoms: C_13  and  C_14
REMARK    5  A    between atoms: C_16  and  O_17
REMARK                            x       y       z     vdW  Elec       q    Type
REMARK                         _______ _______ _______ _____ _____    ______ ____
ROOT
ATOM      1  N   UNL     1       1.869   6.550  19.837  0.00  0.00    +0.000 N 
ATOM      2  C   UNL     1       1.801   5.442  20.806  0.00  0.00    +0.000 C 
ATOM      3  C   UNL     1       1.351   4.140  20.085  0.00  0.00    +0.000 C 
ATOM      4  N   UNL     1       2.108   3.787  18.858  0.00  0.00    +0.000 NA
ATOM      5  C   UNL     1       2.130   4.983  17.977  0.00  0.00    +0.000 C 
ATOM      6  C   UNL     1       2.691   6.259  18.653  0.00  0.00    +0.000 C 
ENDROOT
BRANCH   1  14
ATOM      7  C   UNL     1       1.820   8.787  17.833  0.00  0.00    +0.000 C 
ATOM      8  C   UNL     1       1.464   8.918  19.292  0.00  0.00    +0.000 A 
ATOM      9  C   UNL     1       0.996  10.181  19.712  0.00  0.00    +0.000 A 
ATOM     10  C   UNL     1       0.554  10.392  21.014  0.00  0.00    +0.000 A 
ATOM     11  C   UNL     1       0.611   9.347  21.920  0.00  0.00    +0.000 A 
ATOM     12 CL   UNL     1       0.049   9.582  23.531  0.00  0.00    +0.000 Cl
ATOM     13  C   UNL     1       1.096   8.098  21.530  0.00  0.00    +0.000 A 
ATOM     14  C   UNL     1       1.520   7.838  20.210  0.00  0.00    +0.000 A 
ENDBRANCH   1  14
BRANCH   4  15
ATOM     15  C   UNL     1       3.475   3.328  19.219  0.00  0.00    +0.000 C 
BRANCH  15  16
ATOM     16  C   UNL     1       4.591   3.760  18.276  0.00  0.00    +0.000 A 
ATOM     17  N   UNL     1       5.722   4.239  18.833  0.00  0.00    +0.000 NA
ATOM     18  C   UNL     1       6.696   4.626  18.012  0.00  0.00    +0.000 A 
ATOM     19  C   UNL     1       6.559   4.548  16.639  0.00  0.00    +0.000 A 
ATOM     20  S   UNL     1       7.626   4.978  15.369  0.00  0.00    +0.000 S 
ATOM     21  C   UNL     1       6.509   4.488  14.171  0.00  0.00    +0.000 A 
ATOM     22  C   UNL     1       5.343   4.006  14.723  0.00  0.00    +0.000 A 
ATOM     23  C   UNL     1       5.362   4.042  16.148  0.00  0.00    +0.000 A 
ATOM     24  N   UNL     1       4.345   3.642  16.955  0.00  0.00    +0.000 NA
BRANCH  18  25
ATOM     25  O   UNL     1       7.806   5.119  18.636  0.00  0.00    +0.000 OA
ATOM     26  H   UNL     1       8.249   4.296  18.904  0.00  0.00    +0.000 HD
ENDBRANCH  18  25
ENDBRANCH  15  16
ENDBRANCH   4  15
TORSDOF 4
ENDMDL
MODEL 2
REMARK VINA RESULT:      -8.0      5.739      9.762
REMARK  Name = 
REMARK  5 active torsions:
REMARK  status: ('A' for Active; 'I' for Inactive)
REMARK    1  A    between atoms: C_1  and  C_2
REMARK    2  A    between atoms: C_8  and  N_9
REMARK    3  A    between atoms: N_12  and  C_13
REMARK    4  A    between atoms: C_13  and  C_14
REMARK    5  A    between atoms: C_16  and  O_17
REMARK                            x       y       z     vdW  Elec       q    Type
REMARK                         _______ _______ _______ _____ _____    ______ ____
ROOT
ATOM      1  N   UNL     1       1.765   8.078  19.523  0.00  0.00    +0.000 N 
ATOM      2  C   UNL     1       1.457   9.262  18.701  0.00  0.00    +0.000 C 
ATOM      3  C   UNL     1       0.029   9.776  19.033  0.00  0.00    +0.000 C 
ATOM      4  N   UNL     1      -0.264   9.983  20.473  0.00  0.00    +0.000 NA
ATOM      5  C   UNL     1       0.108   8.740  21.197  0.00  0.00    +0.000 C 
ATOM      6  C   UNL     1       1.570   8.286  20.966  0.00  0.00    +0.000 C 
ENDROOT
BRANCH   1  14
ATOM      7  C   UNL     1       1.440   5.271  20.543  0.00  0.00    +0.000 C 
ATOM      8  C   UNL     1       2.385   5.695  19.449  0.00  0.00    +0.000 A 
ATOM      9  C   UNL     1       3.108   4.665  18.811  0.00  0.00    +0.000 A 
ATOM     10  C   UNL     1       3.942   4.930  17.728  0.00  0.00    +0.000 A 
ATOM     11  C   UNL     1       4.088   6.237  17.297  0.00  0.00    +0.000 A 
ATOM     12 CL   UNL     1       5.099   6.582  15.947  0.00  0.00    +0.000 Cl
ATOM     13  C   UNL     1       3.402   7.272  17.934  0.00  0.00    +0.000 A 
ATOM     14  C   UNL     1       2.523   7.037  19.011  0.00  0.00    +0.000 A 
ENDBRANCH   1  14
BRANCH   4  15
ATOM     15  C   UNL     1       0.474  11.171  20.976  0.00  0.00    +0.000 C 
BRANCH  15  16
ATOM     16  C   UNL     1      -0.324  12.125  21.855  0.00  0.00    +0.000 A 
ATOM     17  N   UNL     1       0.212  13.340  22.097  0.00  0.00    +0.000 NA
ATOM     18  C   UNL     1      -0.478  14.174  22.872  0.00  0.00    +0.000 A 
ATOM     19  C   UNL     1      -1.696  13.814  23.417  0.00  0.00    +0.000 A 
ATOM     20  S   UNL     1      -2.774  14.668  24.439  0.00  0.00    +0.000 S 
ATOM     21  C   UNL     1      -3.879  13.363  24.480  0.00  0.00    +0.000 A 
ATOM     22  C   UNL     1      -3.439  12.294  23.732  0.00  0.00    +0.000 A 
ATOM     23  C   UNL     1      -2.176  12.545  23.117  0.00  0.00    +0.000 A 
ATOM     24  N   UNL     1      -1.498  11.667  22.335  0.00  0.00    +0.000 NA
BRANCH  18  25
ATOM     25  O   UNL     1       0.126  15.378  23.094  0.00  0.00    +0.000 OA
ATOM     26  H   UNL     1       1.061  15.142  22.970  0.00  0.00    +0.000 HD
ENDBRANCH  18  25
ENDBRANCH  15  16
ENDBRANCH   4  15
TORSDOF 4
ENDMDL
MODEL 3
REMARK VINA RESULT:      -8.0      1.040      1.063
REMARK  Name = 
REMARK  5 active torsions:
REMARK  status: ('A' for Active; 'I' for Inactive)
REMARK    1  A    between atoms: C_1  and  C_2
REMARK    2  A    between atoms: C_8  and  N_9
REMARK    3  A    between atoms: N_12  and  C_13
REMARK    4  A    between atoms: C_13  and  C_14
REMARK    5  A    between atoms: C_16  and  O_17
REMARK                            x       y       z     vdW  Elec       q    Type
REMARK                         _______ _______ _______ _____ _____    ______ ____
ROOT
ATOM      1  N   UNL     1       2.075   7.143  19.747  0.00  0.00    +0.000 N 
ATOM      2  C   UNL     1       2.360   6.046  20.688  0.00  0.00    +0.000 C 
ATOM      3  C   UNL     1       2.123   4.678  19.990  0.00  0.00    +0.000 C 
ATOM      4  N   UNL     1       2.792   4.499  18.677  0.00  0.00    +0.000 NA
ATOM      5  C   UNL     1       2.453   5.671  17.830  0.00  0.00    +0.000 C 
ATOM      6  C   UNL     1       2.798   7.038  18.470  0.00  0.00    +0.000 C 
ENDROOT
BRANCH   1  14
ATOM      7  C   UNL     1       1.489   9.392  17.844  0.00  0.00    +0.000 C 
ATOM      8  C   UNL     1       1.188   9.401  19.320  0.00  0.00    +0.000 A 
ATOM      9  C   UNL     1       0.505  10.533  19.814  0.00  0.00    +0.000 A 
ATOM     10  C   UNL     1       0.096  10.609  21.142  0.00  0.00    +0.000 A 
ATOM     11  C   UNL     1       0.402   9.566  21.999  0.00  0.00    +0.000 A 
ATOM     12 CL   UNL     1      -0.113   9.632  23.641  0.00  0.00    +0.000 Cl
ATOM     13  C   UNL     1       1.101   8.451  21.535  0.00  0.00    +0.000 A 
ATOM     14  C   UNL     1       1.501   8.324  20.189  0.00  0.00    +0.000 A 
ENDBRANCH   1  14
BRANCH   4  15
ATOM     15  C   UNL     1       4.258   4.349  18.870  0.00  0.00    +0.000 C 
BRANCH  15  16
ATOM     16  C   UNL     1       5.120   4.612  17.642  0.00  0.00    +0.000 A 
ATOM     17  N   UNL     1       6.055   5.579  17.737  0.00  0.00    +0.000 NA
ATOM     18  C   UNL     1       6.805   5.819  16.663  0.00  0.00    +0.000 A 
ATOM     19  C   UNL     1       6.633   5.111  15.488  0.00  0.00    +0.000 A 
ATOM     20  S   UNL     1       7.433   5.215  13.977  0.00  0.00    +0.000 S 
ATOM     21  C   UNL     1       6.482   3.961  13.308  0.00  0.00    +0.000 A 
ATOM     22  C   UNL     1       5.569   3.470  14.215  0.00  0.00    +0.000 A 
ATOM     23  C   UNL     1       5.647   4.131  15.476  0.00  0.00    +0.000 A 
ATOM     24  N   UNL     1       4.862   3.863  16.550  0.00  0.00    +0.000 NA
BRANCH  18  25
ATOM     25  O   UNL     1       7.719   6.821  16.816  0.00  0.00    +0.000 OA
ATOM     26  H   UNL     1       7.189   7.484  17.291  0.00  0.00    +0.000 HD
ENDBRANCH  18  25
ENDBRANCH  15  16
ENDBRANCH   4  15
TORSDOF 4
ENDMDL
MODEL 4
REMARK VINA RESULT:      -8.0      4.586      8.338
REMARK  Name = 
REMARK  5 active torsions:
REMARK  status: ('A' for Active; 'I' for Inactive)
REMARK    1  A    between atoms: C_1  and  C_2
REMARK    2  A    between atoms: C_8  and  N_9
REMARK    3  A    between atoms: N_12  and  C_13
REMARK    4  A    between atoms: C_13  and  C_14
REMARK    5  A    between atoms: C_16  and  O_17
REMARK                            x       y       z     vdW  Elec       q    Type
REMARK                         _______ _______ _______ _____ _____    ______ ____
ROOT
ATOM      1  N   UNL     1       4.212   6.045  17.913  0.00  0.00    +0.000 N 
ATOM      2  C   UNL     1       3.863   7.473  17.803  0.00  0.00    +0.000 C 
ATOM      3  C   UNL     1       2.326   7.653  17.947  0.00  0.00    +0.000 C 
ATOM      4  N   UNL     1       1.709   6.999  19.128  0.00  0.00    +0.000 NA
ATOM      5  C   UNL     1       2.151   5.580  19.146  0.00  0.00    +0.000 C 
ATOM      6  C   UNL     1       3.688   5.395  19.124  0.00  0.00    +0.000 C 
ENDROOT
BRANCH   1  14
ATOM      7  C   UNL     1       6.923   5.557  19.110  0.00  0.00    +0.000 C 
ATOM      8  C   UNL     1       6.529   5.242  17.690  0.00  0.00    +0.000 A 
ATOM      9  C   UNL     1       7.502   4.593  16.899  0.00  0.00    +0.000 A 
ATOM     10  C   UNL     1       7.217   4.174  15.603  0.00  0.00    +0.000 A 
ATOM     11  C   UNL     1       5.965   4.434  15.072  0.00  0.00    +0.000 A 
ATOM     12 CL   UNL     1       5.587   3.906  13.477  0.00  0.00    +0.000 Cl
ATOM     13  C   UNL     1       5.000   5.100  15.830  0.00  0.00    +0.000 A 
ATOM     14  C   UNL     1       5.241   5.508  17.158  0.00  0.00    +0.000 A 
ENDBRANCH   1  14
BRANCH   4  15
ATOM     15  C   UNL     1       2.090   7.724  20.368  0.00  0.00    +0.000 C 
BRANCH  15  16
ATOM     16  C   UNL     1       1.128   8.813  20.822  0.00  0.00    +0.000 A 
ATOM     17  N   UNL     1       0.818   8.859  22.135  0.00  0.00    +0.000 NA
ATOM     18  C   UNL     1      -0.030   9.804  22.535  0.00  0.00    +0.000 A 
ATOM     19  C   UNL     1      -0.582  10.705  21.644  0.00  0.00    +0.000 A 
ATOM     20  S   UNL     1      -1.688  11.993  21.876  0.00  0.00    +0.000 S 
ATOM     21  C   UNL     1      -1.669  12.401  20.216  0.00  0.00    +0.000 A 
ATOM     22  C   UNL     1      -0.839  11.574  19.493  0.00  0.00    +0.000 A 
ATOM     23  C   UNL     1      -0.210  10.589  20.310  0.00  0.00    +0.000 A 
ATOM     24  N   UNL     1       0.649   9.635  19.866  0.00  0.00    +0.000 NA
BRANCH  18  25
ATOM     25  O   UNL     1      -0.318   9.786  23.869  0.00  0.00    +0.000 OA
ATOM     26  H   UNL     1       0.526   9.470  24.236  0.00  0.00    +0.000 HD
ENDBRANCH  18  25
ENDBRANCH  15  16
ENDBRANCH   4  15
TORSDOF 4
ENDMDL
MODEL 5
REMARK VINA RESULT:      -7.9      5.808      9.821
REMARK  Name = 
REMARK  5 active torsions:
REMARK  status: ('A' for Active; 'I' for Inactive)
REMARK    1  A    between atoms: C_1  and  C_2
REMARK    2  A    between atoms: C_8  and  N_9
REMARK    3  A    between atoms: N_12  and  C_13
REMARK    4  A    between atoms: C_13  and  C_14
REMARK    5  A    between atoms: C_16  and  O_17
REMARK                            x       y       z     vdW  Elec       q    Type
REMARK                         _______ _______ _______ _____ _____    ______ ____
ROOT
ATOM      1  N   UNL     1       1.765   8.029  19.579  0.00  0.00    +0.000 N 
ATOM      2  C   UNL     1       1.474   9.252  18.809  0.00  0.00    +0.000 C 
ATOM      3  C   UNL     1       0.041   9.755  19.140  0.00  0.00    +0.000 C 
ATOM      4  N   UNL     1      -0.275   9.894  20.584  0.00  0.00    +0.000 NA
ATOM      5  C   UNL     1       0.081   8.616  21.254  0.00  0.00    +0.000 C 
ATOM      6  C   UNL     1       1.546   8.169  21.026  0.00  0.00    +0.000 C 
ENDROOT
BRANCH   1  14
ATOM      7  C   UNL     1       1.475   5.191  20.517  0.00  0.00    +0.000 C 
ATOM      8  C   UNL     1       2.408   5.656  19.429  0.00  0.00    +0.000 A 
ATOM      9  C   UNL     1       3.135   4.652  18.755  0.00  0.00    +0.000 A 
ATOM     10  C   UNL     1       3.957   4.957  17.675  0.00  0.00    +0.000 A 
ATOM     11  C   UNL     1       4.087   6.278  17.281  0.00  0.00    +0.000 A 
ATOM     12 CL   UNL     1       5.084   6.673  15.933  0.00  0.00    +0.000 Cl
ATOM     13  C   UNL     1       3.397   7.287  17.953  0.00  0.00    +0.000 A 
ATOM     14  C   UNL     1       2.529   7.012  19.029  0.00  0.00    +0.000 A 
ENDBRANCH   1  14
BRANCH   4  15
ATOM     15  C   UNL     1       0.458  11.054  21.156  0.00  0.00    +0.000 C 
BRANCH  15  16
ATOM     16  C   UNL     1      -0.375  12.020  21.989  0.00  0.00    +0.000 A 
ATOM     17  N   UNL     1      -1.507  11.542  22.545  0.00  0.00    +0.000 NA
ATOM     18  C   UNL     1      -2.242  12.386  23.266  0.00  0.00    +0.000 A 
ATOM     19  C   UNL     1      -1.869  13.705  23.439  0.00  0.00    +0.000 A 
ATOM     20  S   UNL     1      -2.617  14.990  24.290  0.00  0.00    +0.000 S 
ATOM     21  C   UNL     1      -1.376  16.087  23.863  0.00  0.00    +0.000 A 
ATOM     22  C   UNL     1      -0.409  15.491  23.085  0.00  0.00    +0.000 A 
ATOM     23  C   UNL     1      -0.689  14.116  22.832  0.00  0.00    +0.000 A 
ATOM     24  N   UNL     1       0.084  13.285  22.086  0.00  0.00    +0.000 NA
BRANCH  18  25
ATOM     25  O   UNL     1      -3.384  11.847  23.786  0.00  0.00    +0.000 OA
ATOM     26  H   UNL     1      -3.329  10.937  23.450  0.00  0.00    +0.000 HD
ENDBRANCH  18  25
ENDBRANCH  15  16
ENDBRANCH   4  15
TORSDOF 4
ENDMDL
MODEL 6
REMARK VINA RESULT:      -7.8      3.222      5.090
REMARK  Name = 
REMARK  5 active torsions:
REMARK  status: ('A' for Active; 'I' for Inactive)
REMARK    1  A    between atoms: C_1  and  C_2
REMARK    2  A    between atoms: C_8  and  N_9
REMARK    3  A    between atoms: N_12  and  C_13
REMARK    4  A    between atoms: C_13  and  C_14
REMARK    5  A    between atoms: C_16  and  O_17
REMARK                            x       y       z     vdW  Elec       q    Type
REMARK                         _______ _______ _______ _____ _____    ______ ____
ROOT
ATOM      1  N   UNL     1      -0.255  10.527  22.065  0.00  0.00    +0.000 N 
ATOM      2  C   UNL     1      -0.447  10.023  20.694  0.00  0.00    +0.000 C 
ATOM      3  C   UNL     1       0.901   9.485  20.136  0.00  0.00    +0.000 C 
ATOM      4  N   UNL     1       1.621   8.523  21.008  0.00  0.00    +0.000 NA
ATOM      5  C   UNL     1       1.730   9.129  22.361  0.00  0.00    +0.000 C 
ATOM      6  C   UNL     1       0.376   9.559  22.975  0.00  0.00    +0.000 C 
ENDROOT
BRANCH   1  14
ATOM      7  C   UNL     1       0.587  13.307  21.300  0.00  0.00    +0.000 C 
ATOM      8  C   UNL     1      -0.601  12.964  22.161  0.00  0.00    +0.000 A 
ATOM      9  C   UNL     1      -1.417  14.044  22.563  0.00  0.00    +0.000 A 
ATOM     10  C   UNL     1      -2.588  13.835  23.284  0.00  0.00    +0.000 A 
ATOM     11  C   UNL     1      -2.937  12.544  23.641  0.00  0.00    +0.000 A 
ATOM     12 CL   UNL     1      -4.393  12.263  24.516  0.00  0.00    +0.000 Cl
ATOM     13  C   UNL     1      -2.128  11.466  23.276  0.00  0.00    +0.000 A 
ATOM     14  C   UNL     1      -0.953  11.636  22.516  0.00  0.00    +0.000 A 
ENDBRANCH   1  14
BRANCH   4  15
ATOM     15  C   UNL     1       0.904   7.222  21.030  0.00  0.00    +0.000 C 
BRANCH  15  16
ATOM     16  C   UNL     1       1.590   6.074  20.299  0.00  0.00    +0.000 A 
ATOM     17  N   UNL     1       1.327   4.822  20.726  0.00  0.00    +0.000 NA
ATOM     18  C   UNL     1       1.931   3.817  20.096  0.00  0.00    +0.000 A 
ATOM     19  C   UNL     1       2.802   4.040  19.046  0.00  0.00    +0.000 A 
ATOM     20  S   UNL     1       3.710   2.956  18.079  0.00  0.00    +0.000 S 
ATOM     21  C   UNL     1       4.382   4.230  17.158  0.00  0.00    +0.000 A 
ATOM     22  C   UNL     1       3.927   5.461  17.575  0.00  0.00    +0.000 A 
ATOM     23  C   UNL     1       3.017   5.360  18.669  0.00  0.00    +0.000 A 
ATOM     24  N   UNL     1       2.421   6.410  19.291  0.00  0.00    +0.000 NA
BRANCH  18  25
ATOM     25  O   UNL     1       1.639   2.577  20.587  0.00  0.00    +0.000 OA
ATOM     26  H   UNL     1       0.679   2.542  20.441  0.00  0.00    +0.000 HD
ENDBRANCH  18  25
ENDBRANCH  15  16
ENDBRANCH   4  15
TORSDOF 4
ENDMDL
MODEL 7
REMARK VINA RESULT:      -7.8      4.515      8.442
REMARK  Name = 
REMARK  5 active torsions:
REMARK  status: ('A' for Active; 'I' for Inactive)
REMARK    1  A    between atoms: C_1  and  C_2
REMARK    2  A    between atoms: C_8  and  N_9
REMARK    3  A    between atoms: N_12  and  C_13
REMARK    4  A    between atoms: C_13  and  C_14
REMARK    5  A    between atoms: C_16  and  O_17
REMARK                            x       y       z     vdW  Elec       q    Type
REMARK                         _______ _______ _______ _____ _____    ______ ____
ROOT
ATOM      1  N   UNL     1       4.202   5.996  18.014  0.00  0.00    +0.000 N 
ATOM      2  C   UNL     1       3.709   7.363  17.770  0.00  0.00    +0.000 C 
ATOM      3  C   UNL     1       2.166   7.407  17.949  0.00  0.00    +0.000 C 
ATOM      4  N   UNL     1       1.646   6.824  19.211  0.00  0.00    +0.000 NA
ATOM      5  C   UNL     1       2.228   5.464  19.358  0.00  0.00    +0.000 C 
ATOM      6  C   UNL     1       3.775   5.428  19.301  0.00  0.00    +0.000 C 
ENDROOT
BRANCH   1  14
ATOM      7  C   UNL     1       6.884   5.532  19.282  0.00  0.00    +0.000 C 
ATOM      8  C   UNL     1       6.537   5.231  17.847  0.00  0.00    +0.000 A 
ATOM      9  C   UNL     1       7.542   4.607  17.077  0.00  0.00    +0.000 A 
ATOM     10  C   UNL     1       7.301   4.202  15.768  0.00  0.00    +0.000 A 
ATOM     11  C   UNL     1       6.062   4.450  15.204  0.00  0.00    +0.000 A 
ATOM     12 CL   UNL     1       5.739   3.938  13.592  0.00  0.00    +0.000 Cl
ATOM     13  C   UNL     1       5.065   5.090  15.942  0.00  0.00    +0.000 A 
ATOM     14  C   UNL     1       5.261   5.484  17.282  0.00  0.00    +0.000 A 
ENDBRANCH   1  14
BRANCH   4  15
ATOM     15  C   UNL     1       1.983   7.708  20.356  0.00  0.00    +0.000 C 
BRANCH  15  16
ATOM     16  C   UNL     1       1.083   8.923  20.544  0.00  0.00    +0.000 A 
ATOM     17  N   UNL     1       0.926   9.747  19.488  0.00  0.00    +0.000 NA
ATOM     18  C   UNL     1       0.148  10.815  19.650  0.00  0.00    +0.000 A 
ATOM     19  C   UNL     1      -0.476  11.079  20.856  0.00  0.00    +0.000 A 
ATOM     20  S   UNL     1      -1.504  12.362  21.341  0.00  0.00    +0.000 S 
ATOM     21  C   UNL     1      -1.671  11.723  22.918  0.00  0.00    +0.000 A 
ATOM     22  C   UNL     1      -0.958  10.556  23.078  0.00  0.00    +0.000 A 
ATOM     23  C   UNL     1      -0.261  10.179  21.892  0.00  0.00    +0.000 A 
ATOM     24  N   UNL     1       0.529   9.083  21.764  0.00  0.00    +0.000 NA
BRANCH  18  25
ATOM     25  O   UNL     1       0.045  11.620  18.552  0.00  0.00    +0.000 OA
ATOM     26  H   UNL     1      -0.830  12.019  18.697  0.00  0.00    +0.000 HD
ENDBRANCH  18  25
ENDBRANCH  15  16
ENDBRANCH   4  15
TORSDOF 4
ENDMDL
MODEL 8
REMARK VINA RESULT:      -7.8      3.534      5.953
REMARK  Name = 
REMARK  5 active torsions:
REMARK  status: ('A' for Active; 'I' for Inactive)
REMARK    1  A    between atoms: C_1  and  C_2
REMARK    2  A    between atoms: C_8  and  N_9
REMARK    3  A    between atoms: N_12  and  C_13
REMARK    4  A    between atoms: C_13  and  C_14
REMARK    5  A    between atoms: C_16  and  O_17
REMARK                            x       y       z     vdW  Elec       q    Type
REMARK                         _______ _______ _______ _____ _____    ______ ____
ROOT
ATOM      1  N   UNL     1      -0.762  11.164  22.455  0.00  0.00    +0.000 N 
ATOM      2  C   UNL     1      -0.499  11.091  21.007  0.00  0.00    +0.000 C 
ATOM      3  C   UNL     1       0.952  10.592  20.759  0.00  0.00    +0.000 C 
ATOM      4  N   UNL     1       1.339   9.353  21.479  0.00  0.00    +0.000 NA
ATOM      5  C   UNL     1       1.005   9.536  22.915  0.00  0.00    +0.000 C 
ATOM      6  C   UNL     1      -0.472   9.917  23.179  0.00  0.00    +0.000 C 
ENDROOT
BRANCH   1  14
ATOM      7  C   UNL     1       0.047  14.050  22.260  0.00  0.00    +0.000 C 
ATOM      8  C   UNL     1      -1.225  13.544  22.890  0.00  0.00    +0.000 A 
ATOM      9  C   UNL     1      -2.132  14.524  23.347  0.00  0.00    +0.000 A 
ATOM     10  C   UNL     1      -3.375  14.174  23.864  0.00  0.00    +0.000 A 
ATOM     11  C   UNL     1      -3.709  12.834  23.961  0.00  0.00    +0.000 A 
ATOM     12 CL   UNL     1      -5.251  12.381  24.579  0.00  0.00    +0.000 Cl
ATOM     13  C   UNL     1      -2.814  11.850  23.540  0.00  0.00    +0.000 A 
ATOM     14  C   UNL     1      -1.560  12.168  22.980  0.00  0.00    +0.000 A 
ENDBRANCH   1  14
BRANCH   4  15
ATOM     15  C   UNL     1       0.644   8.181  20.884  0.00  0.00    +0.000 C 
BRANCH  15  16
ATOM     16  C   UNL     1       1.543   7.044  20.416  0.00  0.00    +0.000 A 
ATOM     17  N   UNL     1       2.376   7.295  19.386  0.00  0.00    +0.000 NA
ATOM     18  C   UNL     1       3.157   6.301  18.968  0.00  0.00    +0.000 A 
ATOM     19  C   UNL     1       3.116   5.052  19.559  0.00  0.00    +0.000 A 
ATOM     20  S   UNL     1       3.983   3.613  19.224  0.00  0.00    +0.000 S 
ATOM     21  C   UNL     1       3.193   2.762  20.479  0.00  0.00    +0.000 A 
ATOM     22  C   UNL     1       2.283   3.554  21.143  0.00  0.00    +0.000 A 
ATOM     23  C   UNL     1       2.230   4.878  20.615  0.00  0.00    +0.000 A 
ATOM     24  N   UNL     1       1.416   5.867  21.064  0.00  0.00    +0.000 NA
BRANCH  18  25
ATOM     25  O   UNL     1       3.962   6.612  17.911  0.00  0.00    +0.000 OA
ATOM     26  H   UNL     1       4.820   6.282  18.229  0.00  0.00    +0.000 HD
ENDBRANCH  18  25
ENDBRANCH  15  16
ENDBRANCH   4  15
TORSDOF 4
ENDMDL
MODEL 9
REMARK VINA RESULT:      -7.7      3.069      5.224
REMARK  Name = 
REMARK  5 active torsions:
REMARK  status: ('A' for Active; 'I' for Inactive)
REMARK    1  A    between atoms: C_1  and  C_2
REMARK    2  A    between atoms: C_8  and  N_9
REMARK    3  A    between atoms: N_12  and  C_13
REMARK    4  A    between atoms: C_13  and  C_14
REMARK    5  A    between atoms: C_16  and  O_17
REMARK                            x       y       z     vdW  Elec       q    Type
REMARK                         _______ _______ _______ _____ _____    ______ ____
ROOT
ATOM      1  N   UNL     1      -0.490  10.577  21.900  0.00  0.00    +0.000 N 
ATOM      2  C   UNL     1      -0.518  10.012  20.539  0.00  0.00    +0.000 C 
ATOM      3  C   UNL     1       0.902   9.518  20.145  0.00  0.00    +0.000 C 
ATOM      4  N   UNL     1       1.569   8.626  21.126  0.00  0.00    +0.000 NA
ATOM      5  C   UNL     1       1.512   9.287  22.455  0.00  0.00    +0.000 C 
ATOM      6  C   UNL     1       0.084   9.675  22.909  0.00  0.00    +0.000 C 
ENDROOT
BRANCH   1  14
ATOM      7  C   UNL     1      -0.308  13.146  20.355  0.00  0.00    +0.000 C 
ATOM      8  C   UNL     1      -1.238  12.892  21.513  0.00  0.00    +0.000 A 
ATOM      9  C   UNL     1      -2.144  13.927  21.829  0.00  0.00    +0.000 A 
ATOM     10  C   UNL     1      -3.108  13.767  22.820  0.00  0.00    +0.000 A 
ATOM     11  C   UNL     1      -3.151  12.579  23.530  0.00  0.00    +0.000 A 
ATOM     12 CL   UNL     1      -4.349  12.354  24.745  0.00  0.00    +0.000 Cl
ATOM     13  C   UNL     1      -2.246  11.555  23.249  0.00  0.00    +0.000 A 
ATOM     14  C   UNL     1      -1.278  11.668  22.230  0.00  0.00    +0.000 A 
ENDBRANCH   1  14
BRANCH   4  15
ATOM     15  C   UNL     1       0.911   7.293  21.130  0.00  0.00    +0.000 C 
BRANCH  15  16
ATOM     16  C   UNL     1       1.655   6.183  20.399  0.00  0.00    +0.000 A 
ATOM     17  N   UNL     1       2.758   6.529  19.703  0.00  0.00    +0.000 NA
ATOM     18  C   UNL     1       3.406   5.564  19.055  0.00  0.00    +0.000 A 
ATOM     19  C   UNL     1       2.969   4.253  19.085  0.00  0.00    +0.000 A 
ATOM     20  S   UNL     1       3.590   2.836  18.348  0.00  0.00    +0.000 S 
ATOM     21  C   UNL     1       2.351   1.863  19.014  0.00  0.00    +0.000 A 
ATOM     22  C   UNL     1       1.477   2.599  19.783  0.00  0.00    +0.000 A 
ATOM     23  C   UNL     1       1.825   3.982  19.825  0.00  0.00    +0.000 A 
ATOM     24  N   UNL     1       1.136   4.942  20.494  0.00  0.00    +0.000 NA
BRANCH  18  25
ATOM     25  O   UNL     1       4.502   5.981  18.356  0.00  0.00    +0.000 OA
ATOM     26  H   UNL     1       4.648   6.859  18.747  0.00  0.00    +0.000 HD
ENDBRANCH  18  25
ENDBRANCH  15  16
ENDBRANCH   4  15
TORSDOF 4
ENDMDL
