MODEL 1
REMARK VINA RESULT:      -8.0      0.000      0.000
REMARK  Name = 
REMARK  6 active torsions:
REMARK  status: ('A' for Active; 'I' for Inactive)
REMARK    1  A    between atoms: C_1  and  N_2
REMARK    2  A    between atoms: C_5  and  C_6
REMARK    3  A    between atoms: C_10  and  C_11
REMARK    4  A    between atoms: N_13  and  N_14
REMARK    5  A    between atoms: C_15  and  C_16
REMARK    6  A    between atoms: C_21  and  C_22
REMARK                            x       y       z     vdW  Elec       q    Type
REMARK                         _______ _______ _______ _____ _____    ______ ____
ROOT
ATOM      1  C   UNL     1       2.767   5.715  20.090  0.00  0.00    +0.000 C 
ATOM      2  O   UNL     1       2.330   5.054  21.028  0.00  0.00    +0.000 OA
ATOM      3  N   UNL     1       2.431   7.054  19.874  0.00  0.00    +0.000 N 
ATOM      4  H   UNL     1       2.848   7.555  19.097  0.00  0.00    +0.000 HD
ENDROOT
BRANCH   1  10
ATOM      5  C   UNL     1       7.034   3.991  15.890  0.00  0.00    +0.000 C 
ATOM      6  N   UNL     1       6.869   4.346  17.283  0.00  0.00    +0.000 N 
ATOM      7  C   UNL     1       5.622   4.501  17.772  0.00  0.00    +0.000 A 
ATOM      8  N   UNL     1       4.548   3.904  17.323  0.00  0.00    +0.000 NA
ATOM      9  C   UNL     1       3.423   4.219  18.105  0.00  0.00    +0.000 A 
ATOM     10  C   UNL     1       3.683   5.143  19.112  0.00  0.00    +0.000 A 
ATOM     11  S   UNL     1       5.353   5.549  19.100  0.00  0.00    +0.000 S 
ATOM     12  H   UNL     1       7.580   4.971  17.646  0.00  0.00    +0.000 HD
BRANCH   9  13
ATOM     13  C   UNL     1       2.114   3.532  17.811  0.00  0.00    +0.000 C 
ATOM     14  F   UNL     1       1.612   2.908  18.916  0.00  0.00    +0.000 F 
ATOM     15  F   UNL     1       1.156   4.408  17.410  0.00  0.00    +0.000 F 
ATOM     16  F   UNL     1       2.223   2.569  16.860  0.00  0.00    +0.000 F 
ENDBRANCH   9  13
ENDBRANCH   1  10
BRANCH   3  17
ATOM     17  N   UNL     1       1.614   7.719  20.740  0.00  0.00    +0.000 NA
ATOM     18  C   UNL     1       1.068   8.806  20.284  0.00  0.00    +0.000 C 
BRANCH  18  19
ATOM     19  C   UNL     1       0.201   9.639  21.152  0.00  0.00    +0.000 A 
ATOM     20  C   UNL     1       0.145   9.283  22.510  0.00  0.00    +0.000 A 
ATOM     21  C   UNL     1      -0.595  10.038  23.418  0.00  0.00    +0.000 A 
ATOM     22  C   UNL     1      -1.291  11.157  22.978  0.00  0.00    +0.000 A 
ATOM     23  C   UNL     1      -1.255  11.510  21.627  0.00  0.00    +0.000 A 
ATOM     24  C   UNL     1      -0.517  10.753  20.688  0.00  0.00    +0.000 A 
BRANCH  24  25
ATOM     25  C   UNL     1      -0.609  11.164  19.241  0.00  0.00    +0.000 C 
ATOM     26  F   UNL     1       0.569  11.506  18.655  0.00  0.00    +0.000 F 
ATOM     27  F   UNL     1      -1.125  10.174  18.458  0.00  0.00    +0.000 F 
ATOM     28  F   UNL     1      -1.428  12.238  19.060  0.00  0.00    +0.000 F 
ENDBRANCH  24  25
ENDBRANCH  18  19
ENDBRANCH   3  17
TORSDOF 5
ENDMDL
MODEL 2
REMARK VINA RESULT:      -8.0      0.202      1.064
REMARK  Name = 
REMARK  6 active torsions:
REMARK  status: ('A' for Active; 'I' for Inactive)
REMARK    1  A    between atoms: C_1  and  N_2
REMARK    2  A    between atoms: C_5  and  C_6
REMARK    3  A    between atoms: C_10  and  C_11
REMARK    4  A    between atoms: N_13  and  N_14
REMARK    5  A    between atoms: C_15  and  C_16
REMARK    6  A    between atoms: C_21  and  C_22
REMARK                            x       y       z     vdW  Elec       q    Type
REMARK                         _______ _______ _______ _____ _____    ______ ____
ROOT
ATOM      1  C   UNL     1       2.684   5.818  20.033  0.00  0.00    +0.000 C 
ATOM      2  O   UNL     1       2.168   5.143  20.920  0.00  0.00    +0.000 OA
ATOM      3  N   UNL     1       2.434   7.182  19.864  0.00  0.00    +0.000 N 
ATOM      4  H   UNL     1       2.915   7.691  19.130  0.00  0.00    +0.000 HD
ENDROOT
BRANCH   1  10
ATOM      5  C   UNL     1       7.031   4.037  15.940  0.00  0.00    +0.000 C 
ATOM      6  N   UNL     1       6.828   4.355  17.337  0.00  0.00    +0.000 N 
ATOM      7  C   UNL     1       5.571   4.551  17.784  0.00  0.00    +0.000 A 
ATOM      8  N   UNL     1       4.491   4.018  17.276  0.00  0.00    +0.000 NA
ATOM      9  C   UNL     1       3.351   4.357  18.025  0.00  0.00    +0.000 A 
ATOM     10  C   UNL     1       3.612   5.237  19.072  0.00  0.00    +0.000 A 
ATOM     11  S   UNL     1       5.298   5.567  19.136  0.00  0.00    +0.000 S 
ATOM     12  H   UNL     1       7.551   4.936  17.747  0.00  0.00    +0.000 HD
BRANCH   9  13
ATOM     13  C   UNL     1       2.026   3.740  17.660  0.00  0.00    +0.000 C 
ATOM     14  F   UNL     1       2.146   2.864  16.619  0.00  0.00    +0.000 F 
ATOM     15  F   UNL     1       1.495   3.025  18.687  0.00  0.00    +0.000 F 
ATOM     16  F   UNL     1       1.104   4.655  17.269  0.00  0.00    +0.000 F 
ENDBRANCH   9  13
ENDBRANCH   1  10
BRANCH   3  17
ATOM     17  N   UNL     1       1.617   7.856  20.724  0.00  0.00    +0.000 NA
ATOM     18  C   UNL     1       1.023   8.904  20.237  0.00  0.00    +0.000 C 
BRANCH  18  19
ATOM     19  C   UNL     1       0.149   9.743  21.092  0.00  0.00    +0.000 A 
ATOM     20  C   UNL     1       0.017   9.347  22.434  0.00  0.00    +0.000 A 
ATOM     21  C   UNL     1      -0.735  10.102  23.332  0.00  0.00    +0.000 A 
ATOM     22  C   UNL     1      -1.366  11.262  22.899  0.00  0.00    +0.000 A 
ATOM     23  C   UNL     1      -1.255  11.655  21.563  0.00  0.00    +0.000 A 
ATOM     24  C   UNL     1      -0.504  10.899  20.634  0.00  0.00    +0.000 A 
BRANCH  24  25
ATOM     25  C   UNL     1      -0.513  11.358  19.198  0.00  0.00    +0.000 C 
ATOM     26  F   UNL     1      -0.938  10.436  18.294  0.00  0.00    +0.000 F 
ATOM     27  F   UNL     1      -1.318  12.441  19.011  0.00  0.00    +0.000 F 
ATOM     28  F   UNL     1       0.723  11.742  18.771  0.00  0.00    +0.000 F 
ENDBRANCH  24  25
ENDBRANCH  18  19
ENDBRANCH   3  17
TORSDOF 5
ENDMDL
MODEL 3
REMARK VINA RESULT:      -7.9      0.692      1.019
REMARK  Name = 
REMARK  6 active torsions:
REMARK  status: ('A' for Active; 'I' for Inactive)
REMARK    1  A    between atoms: C_1  and  N_2
REMARK    2  A    between atoms: C_5  and  C_6
REMARK    3  A    between atoms: C_10  and  C_11
REMARK    4  A    between atoms: N_13  and  N_14
REMARK    5  A    between atoms: C_15  and  C_16
REMARK    6  A    between atoms: C_21  and  C_22
REMARK                            x       y       z     vdW  Elec       q    Type
REMARK                         _______ _______ _______ _____ _____    ______ ____
ROOT
ATOM      1  C   UNL     1       2.865   5.755  19.639  0.00  0.00    +0.000 C 
ATOM      2  O   UNL     1       2.597   5.134  20.664  0.00  0.00    +0.000 OA
ATOM      3  N   UNL     1       2.464   7.074  19.414  0.00  0.00    +0.000 N 
ATOM      4  H   UNL     1       2.742   7.543  18.559  0.00  0.00    +0.000 HD
ENDROOT
BRANCH   1  10
ATOM      5  C   UNL     1       6.290   3.923  14.767  0.00  0.00    +0.000 C 
ATOM      6  N   UNL     1       6.380   4.572  16.057  0.00  0.00    +0.000 N 
ATOM      7  C   UNL     1       5.291   4.594  16.852  0.00  0.00    +0.000 A 
ATOM      8  N   UNL     1       4.332   3.705  16.854  0.00  0.00    +0.000 NA
ATOM      9  C   UNL     1       3.386   3.974  17.859  0.00  0.00    +0.000 A 
ATOM     10  C   UNL     1       3.634   5.152  18.558  0.00  0.00    +0.000 A 
ATOM     11  S   UNL     1       5.090   5.863  17.985  0.00  0.00    +0.000 S 
ATOM     12  H   UNL     1       6.971   5.395  16.075  0.00  0.00    +0.000 HD
BRANCH   9  13
ATOM     13  C   UNL     1       2.268   2.991  18.092  0.00  0.00    +0.000 C 
ATOM     14  F   UNL     1       2.296   1.970  17.186  0.00  0.00    +0.000 F 
ATOM     15  F   UNL     1       2.349   2.405  19.315  0.00  0.00    +0.000 F 
ATOM     16  F   UNL     1       1.037   3.552  17.979  0.00  0.00    +0.000 F 
ENDBRANCH   9  13
ENDBRANCH   1  10
BRANCH   3  17
ATOM     17  N   UNL     1       1.774   7.767  20.365  0.00  0.00    +0.000 NA
ATOM     18  C   UNL     1       1.070   8.771  19.936  0.00  0.00    +0.000 C 
BRANCH  18  19
ATOM     19  C   UNL     1       0.318   9.628  20.884  0.00  0.00    +0.000 A 
ATOM     20  C   UNL     1       0.189   9.147  22.198  0.00  0.00    +0.000 A 
ATOM     21  C   UNL     1      -0.451   9.904  23.178  0.00  0.00    +0.000 A 
ATOM     22  C   UNL     1      -0.970  11.152  22.856  0.00  0.00    +0.000 A 
ATOM     23  C   UNL     1      -0.861  11.632  21.549  0.00  0.00    +0.000 A 
ATOM     24  C   UNL     1      -0.224  10.876  20.537  0.00  0.00    +0.000 A 
BRANCH  24  25
ATOM     25  C   UNL     1      -0.232  11.442  19.140  0.00  0.00    +0.000 C 
ATOM     26  F   UNL     1       0.993  11.677  18.599  0.00  0.00    +0.000 F 
ATOM     27  F   UNL     1      -0.863  10.619  18.256  0.00  0.00    +0.000 F 
ATOM     28  F   UNL     1      -0.893  12.632  19.069  0.00  0.00    +0.000 F 
ENDBRANCH  24  25
ENDBRANCH  18  19
ENDBRANCH   3  17
TORSDOF 5
ENDMDL
MODEL 4
REMARK VINA RESULT:      -7.8      2.093      2.411
REMARK  Name = 
REMARK  6 active torsions:
REMARK  status: ('A' for Active; 'I' for Inactive)
REMARK    1  A    between atoms: C_1  and  N_2
REMARK    2  A    between atoms: C_5  and  C_6
REMARK    3  A    between atoms: C_10  and  C_11
REMARK    4  A    between atoms: N_13  and  N_14
REMARK    5  A    between atoms: C_15  and  C_16
REMARK    6  A    between atoms: C_21  and  C_22
REMARK                            x       y       z     vdW  Elec       q    Type
REMARK                         _______ _______ _______ _____ _____    ______ ____
ROOT
ATOM      1  C   UNL     1       2.758   6.973  18.687  0.00  0.00    +0.000 C 
ATOM      2  O   UNL     1       2.510   6.661  19.848  0.00  0.00    +0.000 OA
ATOM      3  N   UNL     1       2.277   8.140  18.088  0.00  0.00    +0.000 N 
ATOM      4  H   UNL     1       2.542   8.358  17.133  0.00  0.00    +0.000 HD
ENDROOT
BRANCH   1  10
ATOM      5  C   UNL     1       6.465   4.063  14.612  0.00  0.00    +0.000 C 
ATOM      6  N   UNL     1       6.481   4.996  15.717  0.00  0.00    +0.000 N 
ATOM      7  C   UNL     1       5.344   5.201  16.413  0.00  0.00    +0.000 A 
ATOM      8  N   UNL     1       4.376   4.333  16.560  0.00  0.00    +0.000 NA
ATOM      9  C   UNL     1       3.371   4.827  17.411  0.00  0.00    +0.000 A 
ATOM     10  C   UNL     1       3.588   6.137  17.830  0.00  0.00    +0.000 A 
ATOM     11  S   UNL     1       5.086   6.699  17.202  0.00  0.00    +0.000 S 
ATOM     12  H   UNL     1       7.080   5.803  15.581  0.00  0.00    +0.000 HD
BRANCH   9  13
ATOM     13  C   UNL     1       2.228   3.923  17.794  0.00  0.00    +0.000 C 
ATOM     14  F   UNL     1       1.022   4.454  17.439  0.00  0.00    +0.000 F 
ATOM     15  F   UNL     1       2.301   2.716  17.172  0.00  0.00    +0.000 F 
ATOM     16  F   UNL     1       2.155   3.699  19.131  0.00  0.00    +0.000 F 
ENDBRANCH   9  13
ENDBRANCH   1  10
BRANCH   3  17
ATOM     17  N   UNL     1       1.523   9.030  18.795  0.00  0.00    +0.000 NA
ATOM     18  C   UNL     1       0.538   9.578  18.148  0.00  0.00    +0.000 C 
BRANCH  18  19
ATOM     19  C   UNL     1      -0.319  10.598  18.800  0.00  0.00    +0.000 A 
ATOM     20  C   UNL     1       0.264  11.332  19.847  0.00  0.00    +0.000 A 
ATOM     21  C   UNL     1      -0.440  12.352  20.484  0.00  0.00    +0.000 A 
ATOM     22  C   UNL     1      -1.737  12.650  20.083  0.00  0.00    +0.000 A 
ATOM     23  C   UNL     1      -2.331  11.917  19.054  0.00  0.00    +0.000 A 
ATOM     24  C   UNL     1      -1.637  10.871  18.400  0.00  0.00    +0.000 A 
BRANCH  24  25
ATOM     25  C   UNL     1      -2.392  10.083  17.361  0.00  0.00    +0.000 C 
ATOM     26  F   UNL     1      -1.622   9.440  16.443  0.00  0.00    +0.000 F 
ATOM     27  F   UNL     1      -3.171   9.113  17.918  0.00  0.00    +0.000 F 
ATOM     28  F   UNL     1      -3.242  10.864  16.636  0.00  0.00    +0.000 F 
ENDBRANCH  24  25
ENDBRANCH  18  19
ENDBRANCH   3  17
TORSDOF 5
ENDMDL
MODEL 5
REMARK VINA RESULT:      -7.7      1.151      1.550
REMARK  Name = 
REMARK  6 active torsions:
REMARK  status: ('A' for Active; 'I' for Inactive)
REMARK    1  A    between atoms: C_1  and  N_2
REMARK    2  A    between atoms: C_5  and  C_6
REMARK    3  A    between atoms: C_10  and  C_11
REMARK    4  A    between atoms: N_13  and  N_14
REMARK    5  A    between atoms: C_15  and  C_16
REMARK    6  A    between atoms: C_21  and  C_22
REMARK                            x       y       z     vdW  Elec       q    Type
REMARK                         _______ _______ _______ _____ _____    ______ ____
ROOT
ATOM      1  C   UNL     1       2.494   5.544  19.040  0.00  0.00    +0.000 C 
ATOM      2  O   UNL     1       1.620   4.828  19.522  0.00  0.00    +0.000 OA
ATOM      3  N   UNL     1       2.658   6.889  19.383  0.00  0.00    +0.000 N 
ATOM      4  H   UNL     1       3.418   7.420  18.972  0.00  0.00    +0.000 HD
ENDROOT
BRANCH   1  10
ATOM      5  C   UNL     1       6.346   4.015  14.389  0.00  0.00    +0.000 C 
ATOM      6  N   UNL     1       6.155   4.973  15.456  0.00  0.00    +0.000 N 
ATOM      7  C   UNL     1       5.168   4.764  16.349  0.00  0.00    +0.000 A 
ATOM      8  N   UNL     1       4.686   3.597  16.692  0.00  0.00    +0.000 NA
ATOM      9  C   UNL     1       3.722   3.720  17.709  0.00  0.00    +0.000 A 
ATOM     10  C   UNL     1       3.442   5.038  18.057  0.00  0.00    +0.000 A 
ATOM     11  S   UNL     1       4.445   6.097  17.147  0.00  0.00    +0.000 S 
ATOM     12  H   UNL     1       6.334   5.936  15.195  0.00  0.00    +0.000 HD
BRANCH   9  13
ATOM     13  C   UNL     1       3.138   2.471  18.316  0.00  0.00    +0.000 C 
ATOM     14  F   UNL     1       3.730   1.344  17.822  0.00  0.00    +0.000 F 
ATOM     15  F   UNL     1       3.318   2.425  19.663  0.00  0.00    +0.000 F 
ATOM     16  F   UNL     1       1.811   2.330  18.068  0.00  0.00    +0.000 F 
ENDBRANCH   9  13
ENDBRANCH   1  10
BRANCH   3  17
ATOM     17  N   UNL     1       1.862   7.473  20.324  0.00  0.00    +0.000 NA
ATOM     18  C   UNL     1       1.350   8.622  19.999  0.00  0.00    +0.000 C 
BRANCH  18  19
ATOM     19  C   UNL     1       0.509   9.375  20.960  0.00  0.00    +0.000 A 
ATOM     20  C   UNL     1       0.579   8.972  22.305  0.00  0.00    +0.000 A 
ATOM     21  C   UNL     1      -0.129   9.652  23.294  0.00  0.00    +0.000 A 
ATOM     22  C   UNL     1      -0.918  10.744  22.950  0.00  0.00    +0.000 A 
ATOM     23  C   UNL     1      -1.007  11.143  21.614  0.00  0.00    +0.000 A 
ATOM     24  C   UNL     1      -0.303  10.461  20.594  0.00  0.00    +0.000 A 
BRANCH  24  25
ATOM     25  C   UNL     1      -0.530  10.913  19.175  0.00  0.00    +0.000 C 
ATOM     26  F   UNL     1      -0.998   9.959  18.326  0.00  0.00    +0.000 F 
ATOM     27  F   UNL     1      -1.431  11.933  19.099  0.00  0.00    +0.000 F 
ATOM     28  F   UNL     1       0.609  11.386  18.595  0.00  0.00    +0.000 F 
ENDBRANCH  24  25
ENDBRANCH  18  19
ENDBRANCH   3  17
TORSDOF 5
ENDMDL
MODEL 6
REMARK VINA RESULT:      -7.7      3.282      8.272
REMARK  Name = 
REMARK  6 active torsions:
REMARK  status: ('A' for Active; 'I' for Inactive)
REMARK    1  A    between atoms: C_1  and  N_2
REMARK    2  A    between atoms: C_5  and  C_6
REMARK    3  A    between atoms: C_10  and  C_11
REMARK    4  A    between atoms: N_13  and  N_14
REMARK    5  A    between atoms: C_15  and  C_16
REMARK    6  A    between atoms: C_21  and  C_22
REMARK                            x       y       z     vdW  Elec       q    Type
REMARK                         _______ _______ _______ _____ _____    ______ ____
ROOT
ATOM      1  C   UNL     1       1.161   9.375  18.971  0.00  0.00    +0.000 C 
ATOM      2  O   UNL     1       0.629   9.230  17.873  0.00  0.00    +0.000 OA
ATOM      3  N   UNL     1       2.038   8.440  19.527  0.00  0.00    +0.000 N 
ATOM      4  H   UNL     1       2.469   8.631  20.425  0.00  0.00    +0.000 HD
ENDROOT
BRANCH   1  10
ATOM      5  C   UNL     1       0.736  14.741  22.108  0.00  0.00    +0.000 C 
ATOM      6  N   UNL     1       0.543  14.156  20.800  0.00  0.00    +0.000 N 
ATOM      7  C   UNL     1       0.632  12.817  20.665  0.00  0.00    +0.000 A 
ATOM      8  N   UNL     1       0.374  11.939  21.600  0.00  0.00    +0.000 NA
ATOM      9  C   UNL     1       0.483  10.625  21.112  0.00  0.00    +0.000 A 
ATOM     10  C   UNL     1       0.915  10.553  19.791  0.00  0.00    +0.000 A 
ATOM     11  S   UNL     1       1.110  12.142  19.165  0.00  0.00    +0.000 S 
ATOM     12  H   UNL     1       0.899  14.713  20.031  0.00  0.00    +0.000 HD
BRANCH   9  13
ATOM     13  C   UNL     1       0.108   9.478  22.014  0.00  0.00    +0.000 C 
ATOM     14  F   UNL     1       1.210   8.840  22.505  0.00  0.00    +0.000 F 
ATOM     15  F   UNL     1      -0.597   9.892  23.101  0.00  0.00    +0.000 F 
ATOM     16  F   UNL     1      -0.622   8.524  21.383  0.00  0.00    +0.000 F 
ENDBRANCH   9  13
ENDBRANCH   1  10
BRANCH   3  17
ATOM     17  N   UNL     1       2.385   7.313  18.842  0.00  0.00    +0.000 NA
ATOM     18  C   UNL     1       2.377   6.208  19.527  0.00  0.00    +0.000 C 
BRANCH  18  19
ATOM     19  C   UNL     1       2.785   4.927  18.901  0.00  0.00    +0.000 A 
ATOM     20  C   UNL     1       3.472   5.017  17.678  0.00  0.00    +0.000 A 
ATOM     21  C   UNL     1       3.948   3.874  17.039  0.00  0.00    +0.000 A 
ATOM     22  C   UNL     1       3.741   2.625  17.614  0.00  0.00    +0.000 A 
ATOM     23  C   UNL     1       3.045   2.524  18.821  0.00  0.00    +0.000 A 
ATOM     24  C   UNL     1       2.546   3.671  19.481  0.00  0.00    +0.000 A 
BRANCH  24  25
ATOM     25  C   UNL     1       1.735   3.452  20.733  0.00  0.00    +0.000 C 
ATOM     26  F   UNL     1       2.278   3.954  21.874  0.00  0.00    +0.000 F 
ATOM     27  F   UNL     1       0.497   4.015  20.647  0.00  0.00    +0.000 F 
ATOM     28  F   UNL     1       1.521   2.130  20.984  0.00  0.00    +0.000 F 
ENDBRANCH  24  25
ENDBRANCH  18  19
ENDBRANCH   3  17
TORSDOF 5
ENDMDL
MODEL 7
REMARK VINA RESULT:      -7.7      2.085      2.472
REMARK  Name = 
REMARK  6 active torsions:
REMARK  status: ('A' for Active; 'I' for Inactive)
REMARK    1  A    between atoms: C_1  and  N_2
REMARK    2  A    between atoms: C_5  and  C_6
REMARK    3  A    between atoms: C_10  and  C_11
REMARK    4  A    between atoms: N_13  and  N_14
REMARK    5  A    between atoms: C_15  and  C_16
REMARK    6  A    between atoms: C_21  and  C_22
REMARK                            x       y       z     vdW  Elec       q    Type
REMARK                         _______ _______ _______ _____ _____    ______ ____
ROOT
ATOM      1  C   UNL     1       2.768   6.951  18.706  0.00  0.00    +0.000 C 
ATOM      2  O   UNL     1       2.524   6.622  19.863  0.00  0.00    +0.000 OA
ATOM      3  N   UNL     1       2.268   8.116  18.118  0.00  0.00    +0.000 N 
ATOM      4  H   UNL     1       2.530   8.349  17.166  0.00  0.00    +0.000 HD
ENDROOT
BRANCH   1  10
ATOM      5  C   UNL     1       6.530   4.145  14.609  0.00  0.00    +0.000 C 
ATOM      6  N   UNL     1       6.529   5.058  15.730  0.00  0.00    +0.000 N 
ATOM      7  C   UNL     1       5.385   5.241  16.420  0.00  0.00    +0.000 A 
ATOM      8  N   UNL     1       4.423   4.363  16.545  0.00  0.00    +0.000 NA
ATOM      9  C   UNL     1       3.408   4.833  17.397  0.00  0.00    +0.000 A 
ATOM     10  C   UNL     1       3.610   6.137  17.840  0.00  0.00    +0.000 A 
ATOM     11  S   UNL     1       5.108   6.723  17.234  0.00  0.00    +0.000 S 
ATOM     12  H   UNL     1       7.122   5.872  15.613  0.00  0.00    +0.000 HD
BRANCH   9  13
ATOM     13  C   UNL     1       2.270   3.913  17.755  0.00  0.00    +0.000 C 
ATOM     14  F   UNL     1       2.362   2.718  17.100  0.00  0.00    +0.000 F 
ATOM     15  F   UNL     1       2.256   3.609  19.080  0.00  0.00    +0.000 F 
ATOM     16  F   UNL     1       1.055   4.421  17.431  0.00  0.00    +0.000 F 
ENDBRANCH   9  13
ENDBRANCH   1  10
BRANCH   3  17
ATOM     17  N   UNL     1       1.500   8.987  18.834  0.00  0.00    +0.000 NA
ATOM     18  C   UNL     1       0.627   9.666  18.152  0.00  0.00    +0.000 C 
BRANCH  18  19
ATOM     19  C   UNL     1      -0.229  10.679  18.815  0.00  0.00    +0.000 A 
ATOM     20  C   UNL     1       0.367  11.428  19.844  0.00  0.00    +0.000 A 
ATOM     21  C   UNL     1      -0.337  12.443  20.491  0.00  0.00    +0.000 A 
ATOM     22  C   UNL     1      -1.646  12.720  20.117  0.00  0.00    +0.000 A 
ATOM     23  C   UNL     1      -2.253  11.971  19.106  0.00  0.00    +0.000 A 
ATOM     24  C   UNL     1      -1.560  10.931  18.444  0.00  0.00    +0.000 A 
BRANCH  24  25
ATOM     25  C   UNL     1      -2.327  10.124  17.428  0.00  0.00    +0.000 C 
ATOM     26  F   UNL     1      -3.146   9.167  17.940  0.00  0.00    +0.000 F 
ATOM     27  F   UNL     1      -3.132  10.906  16.653  0.00  0.00    +0.000 F 
ATOM     28  F   UNL     1      -1.505   9.470  16.560  0.00  0.00    +0.000 F 
ENDBRANCH  24  25
ENDBRANCH  18  19
ENDBRANCH   3  17
TORSDOF 5
ENDMDL
MODEL 8
REMARK VINA RESULT:      -7.7      2.781      8.546
REMARK  Name = 
REMARK  6 active torsions:
REMARK  status: ('A' for Active; 'I' for Inactive)
REMARK    1  A    between atoms: C_1  and  N_2
REMARK    2  A    between atoms: C_5  and  C_6
REMARK    3  A    between atoms: C_10  and  C_11
REMARK    4  A    between atoms: N_13  and  N_14
REMARK    5  A    between atoms: C_15  and  C_16
REMARK    6  A    between atoms: C_21  and  C_22
REMARK                            x       y       z     vdW  Elec       q    Type
REMARK                         _______ _______ _______ _____ _____    ______ ____
ROOT
ATOM      1  C   UNL     1       1.428   9.846  18.558  0.00  0.00    +0.000 C 
ATOM      2  O   UNL     1       1.841  10.443  17.567  0.00  0.00    +0.000 OA
ATOM      3  N   UNL     1       1.830   8.551  18.895  0.00  0.00    +0.000 N 
ATOM      4  H   UNL     1       1.475   8.122  19.743  0.00  0.00    +0.000 HD
ENDROOT
BRANCH   1  10
ATOM      5  C   UNL     1      -2.315  12.010  23.043  0.00  0.00    +0.000 C 
ATOM      6  N   UNL     1      -0.957  12.071  22.551  0.00  0.00    +0.000 N 
ATOM      7  C   UNL     1      -0.667  11.495  21.366  0.00  0.00    +0.000 A 
ATOM      8  N   UNL     1      -1.505  11.330  20.376  0.00  0.00    +0.000 NA
ATOM      9  C   UNL     1      -0.866  10.774  19.253  0.00  0.00    +0.000 A 
ATOM     10  C   UNL     1       0.470  10.452  19.472  0.00  0.00    +0.000 A 
ATOM     11  S   UNL     1       0.918  10.919  21.065  0.00  0.00    +0.000 S 
ATOM     12  H   UNL     1      -0.244  12.012  23.270  0.00  0.00    +0.000 HD
BRANCH   9  13
ATOM     13  C   UNL     1      -1.645  10.618  17.973  0.00  0.00    +0.000 C 
ATOM     14  F   UNL     1      -2.966  10.368  18.212  0.00  0.00    +0.000 F 
ATOM     15  F   UNL     1      -1.613  11.745  17.214  0.00  0.00    +0.000 F 
ATOM     16  F   UNL     1      -1.207   9.587  17.207  0.00  0.00    +0.000 F 
ENDBRANCH   9  13
ENDBRANCH   1  10
BRANCH   3  17
ATOM     17  N   UNL     1       2.755   7.887  18.144  0.00  0.00    +0.000 NA
ATOM     18  C   UNL     1       2.742   6.592  18.243  0.00  0.00    +0.000 C 
BRANCH  18  19
ATOM     19  C   UNL     1       3.734   5.768  17.511  0.00  0.00    +0.000 A 
ATOM     20  C   UNL     1       4.855   6.443  16.997  0.00  0.00    +0.000 A 
ATOM     21  C   UNL     1       5.871   5.749  16.344  0.00  0.00    +0.000 A 
ATOM     22  C   UNL     1       5.780   4.370  16.195  0.00  0.00    +0.000 A 
ATOM     23  C   UNL     1       4.663   3.691  16.689  0.00  0.00    +0.000 A 
ATOM     24  C   UNL     1       3.616   4.378  17.346  0.00  0.00    +0.000 A 
BRANCH  24  25
ATOM     25  C   UNL     1       2.414   3.570  17.767  0.00  0.00    +0.000 C 
ATOM     26  F   UNL     1       2.248   3.428  19.109  0.00  0.00    +0.000 F 
ATOM     27  F   UNL     1       1.248   4.113  17.317  0.00  0.00    +0.000 F 
ATOM     28  F   UNL     1       2.445   2.302  17.269  0.00  0.00    +0.000 F 
ENDBRANCH  24  25
ENDBRANCH  18  19
ENDBRANCH   3  17
TORSDOF 5
ENDMDL
MODEL 9
REMARK VINA RESULT:      -7.6      2.804      8.546
REMARK  Name = 
REMARK  6 active torsions:
REMARK  status: ('A' for Active; 'I' for Inactive)
REMARK    1  A    between atoms: C_1  and  N_2
REMARK    2  A    between atoms: C_5  and  C_6
REMARK    3  A    between atoms: C_10  and  C_11
REMARK    4  A    between atoms: N_13  and  N_14
REMARK    5  A    between atoms: C_15  and  C_16
REMARK    6  A    between atoms: C_21  and  C_22
REMARK                            x       y       z     vdW  Elec       q    Type
REMARK                         _______ _______ _______ _____ _____    ______ ____
ROOT
ATOM      1  C   UNL     1       1.452   9.884  18.523  0.00  0.00    +0.000 C 
ATOM      2  O   UNL     1       1.901  10.494  17.557  0.00  0.00    +0.000 OA
ATOM      3  N   UNL     1       1.810   8.570  18.834  0.00  0.00    +0.000 N 
ATOM      4  H   UNL     1       1.427   8.130  19.664  0.00  0.00    +0.000 HD
ENDROOT
BRANCH   1  10
ATOM      5  C   UNL     1      -2.278  12.084  23.003  0.00  0.00    +0.000 C 
ATOM      6  N   UNL     1      -0.926  12.157  22.493  0.00  0.00    +0.000 N 
ATOM      7  C   UNL     1      -0.640  11.560  21.318  0.00  0.00    +0.000 A 
ATOM      8  N   UNL     1      -1.486  11.358  20.342  0.00  0.00    +0.000 NA
ATOM      9  C   UNL     1      -0.850  10.787  19.224  0.00  0.00    +0.000 A 
ATOM     10  C   UNL     1       0.494  10.494  19.435  0.00  0.00    +0.000 A 
ATOM     11  S   UNL     1       0.951  11.004  21.011  0.00  0.00    +0.000 S 
ATOM     12  H   UNL     1      -0.204  12.127  23.204  0.00  0.00    +0.000 HD
BRANCH   9  13
ATOM     13  C   UNL     1      -1.641  10.588  17.957  0.00  0.00    +0.000 C 
ATOM     14  F   UNL     1      -1.140   9.566  17.204  0.00  0.00    +0.000 F 
ATOM     15  F   UNL     1      -2.937  10.262  18.209  0.00  0.00    +0.000 F 
ATOM     16  F   UNL     1      -1.635  11.680  17.151  0.00  0.00    +0.000 F 
ENDBRANCH   9  13
ENDBRANCH   1  10
BRANCH   3  17
ATOM     17  N   UNL     1       2.731   7.899  18.084  0.00  0.00    +0.000 NA
ATOM     18  C   UNL     1       2.767   6.610  18.249  0.00  0.00    +0.000 C 
BRANCH  18  19
ATOM     19  C   UNL     1       3.761   5.783  17.523  0.00  0.00    +0.000 A 
ATOM     20  C   UNL     1       4.903   6.448  17.047  0.00  0.00    +0.000 A 
ATOM     21  C   UNL     1       5.922   5.748  16.403  0.00  0.00    +0.000 A 
ATOM     22  C   UNL     1       5.810   4.374  16.226  0.00  0.00    +0.000 A 
ATOM     23  C   UNL     1       4.671   3.706  16.682  0.00  0.00    +0.000 A 
ATOM     24  C   UNL     1       3.622   4.399  17.330  0.00  0.00    +0.000 A 
BRANCH  24  25
ATOM     25  C   UNL     1       2.398   3.605  17.709  0.00  0.00    +0.000 C 
ATOM     26  F   UNL     1       1.211   4.141  17.319  0.00  0.00    +0.000 F 
ATOM     27  F   UNL     1       2.416   2.350  17.178  0.00  0.00    +0.000 F 
ATOM     28  F   UNL     1       2.292   3.432  19.057  0.00  0.00    +0.000 F 
ENDBRANCH  24  25
ENDBRANCH  18  19
ENDBRANCH   3  17
TORSDOF 5
ENDMDL
