MODEL 1
REMARK VINA RESULT:      -7.1      0.000      0.000
REMARK  Name = 
REMARK  11 active torsions:
REMARK  status: ('A' for Active; 'I' for Inactive)
REMARK    1  A    between atoms: C_1  and  C_2
REMARK    2  A    between atoms: C_2  and  O_3
REMARK    3  A    between atoms: O_3  and  C_4
REMARK    4  A    between atoms: C_4  and  C_6
REMARK    5  A    between atoms: C_7  and  N_8
REMARK    6  A    between atoms: C_9  and  C_11
REMARK    7  A    between atoms: C_16  and  C_17
REMARK    8  A    between atoms: C_17  and  O_19
REMARK    9  A    between atoms: C_21  and  C_22
REMARK   10  A    between atoms: C_23  and  C_24
REMARK   11  A    between atoms: C_24  and  C_25
REMARK                            x       y       z     vdW  Elec       q    Type
REMARK                         _______ _______ _______ _____ _____    ______ ____
ROOT
ATOM      1  N   UNL     1       4.994   3.737  17.404  0.00  0.00    +0.000 N 
ATOM      2  C   UNL     1       4.091   4.588  17.993  0.00  0.00    +0.000 C 
ATOM      3  O   UNL     1       3.608   5.611  17.492  0.00  0.00    +0.000 OA
ATOM      4  H   UNL     1       5.143   2.822  17.828  0.00  0.00    +0.000 HD
ENDROOT
BRANCH   1   6
ATOM      5  C   UNL     1       6.710   4.551  15.810  0.00  0.00    +0.000 A 
ATOM      6  C   UNL     1       5.542   3.876  16.134  0.00  0.00    +0.000 A 
ATOM      7  S   UNL     1       4.738   3.283  14.780  0.00  0.00    +0.000 S 
ATOM      8  C   UNL     1       5.933   3.857  13.700  0.00  0.00    +0.000 A 
ATOM      9  C   UNL     1       5.740   3.534  12.252  0.00  0.00    +0.000 C 
ATOM     10  C   UNL     1       6.940   4.563  14.354  0.00  0.00    +0.000 A 
BRANCH   5  11
ATOM     11  C   UNL     1       7.530   5.154  16.870  0.00  0.00    +0.000 C 
ATOM     12  O   UNL     1       8.070   4.489  17.751  0.00  0.00    +0.000 OA
BRANCH  11  13
ATOM     13  O   UNL     1       7.566   6.513  16.824  0.00  0.00    +0.000 OA
BRANCH  13  15
ATOM     14  C   UNL     1       8.017   8.639  17.804  0.00  0.00    +0.000 C 
ATOM     15  C   UNL     1       7.762   7.168  18.082  0.00  0.00    +0.000 C 
ENDBRANCH  13  15
ENDBRANCH  11  13
ENDBRANCH   5  11
BRANCH  10  16
ATOM     16  C   UNL     1       8.136   5.268  13.735  0.00  0.00    +0.000 C 
ATOM     17  C   UNL     1       8.047   5.756  12.303  0.00  0.00    +0.000 C 
ENDBRANCH  10  16
ENDBRANCH   1   6
BRANCH   2  18
ATOM     18  C   UNL     1       3.728   4.280  19.442  0.00  0.00    +0.000 C 
ATOM     19  C   UNL     1       2.626   5.130  20.088  0.00  0.00    +0.000 C 
ATOM     20  C   UNL     1       1.256   4.526  20.034  0.00  0.00    +0.000 C 
ATOM     21  C   UNL     1       1.009   3.290  19.582  0.00  0.00    +0.000 C 
ATOM     22  C   UNL     1       2.082   2.354  19.113  0.00  0.00    +0.000 C 
ATOM     23  C   UNL     1       3.497   2.763  19.555  0.00  0.00    +0.000 C 
BRANCH  23  24
ATOM     24  C   UNL     1       3.825   2.282  20.958  0.00  0.00    +0.000 C 
ATOM     25  O   UNL     1       3.065   2.312  21.911  0.00  0.00    +0.000 OA
BRANCH  24  26
ATOM     26  O   UNL     1       5.074   1.763  21.062  0.00  0.00    +0.000 OA
ATOM     27  H   UNL     1       5.177   1.068  21.741  0.00  0.00    +0.000 HD
ENDBRANCH  24  26
ENDBRANCH  23  24
ENDBRANCH   2  18
TORSDOF 8
ENDMDL
MODEL 2
REMARK VINA RESULT:      -6.7      4.358      6.955
REMARK  Name = 
REMARK  11 active torsions:
REMARK  status: ('A' for Active; 'I' for Inactive)
REMARK    1  A    between atoms: C_1  and  C_2
REMARK    2  A    between atoms: C_2  and  O_3
REMARK    3  A    between atoms: O_3  and  C_4
REMARK    4  A    between atoms: C_4  and  C_6
REMARK    5  A    between atoms: C_7  and  N_8
REMARK    6  A    between atoms: C_9  and  C_11
REMARK    7  A    between atoms: C_16  and  C_17
REMARK    8  A    between atoms: C_17  and  O_19
REMARK    9  A    between atoms: C_21  and  C_22
REMARK   10  A    between atoms: C_23  and  C_24
REMARK   11  A    between atoms: C_24  and  C_25
REMARK                            x       y       z     vdW  Elec       q    Type
REMARK                         _______ _______ _______ _____ _____    ______ ____
ROOT
ATOM      1  N   UNL     1       2.287   7.022  20.429  0.00  0.00    +0.000 N 
ATOM      2  C   UNL     1       1.739   5.763  20.447  0.00  0.00    +0.000 C 
ATOM      3  O   UNL     1       0.537   5.484  20.541  0.00  0.00    +0.000 OA
ATOM      4  H   UNL     1       3.255   7.123  20.126  0.00  0.00    +0.000 HD
ENDROOT
BRANCH   1   6
ATOM      5  C   UNL     1       1.369   9.132  19.506  0.00  0.00    +0.000 A 
ATOM      6  C   UNL     1       1.590   8.220  20.528  0.00  0.00    +0.000 A 
ATOM      7  S   UNL     1       0.996   8.751  22.011  0.00  0.00    +0.000 S 
ATOM      8  C   UNL     1       0.375  10.201  21.352  0.00  0.00    +0.000 A 
ATOM      9  C   UNL     1      -0.366  11.101  22.291  0.00  0.00    +0.000 C 
ATOM     10  C   UNL     1       0.662  10.330  19.995  0.00  0.00    +0.000 A 
BRANCH   5  11
ATOM     11  C   UNL     1       1.841   8.842  18.145  0.00  0.00    +0.000 C 
ATOM     12  O   UNL     1       1.113   8.925  17.159  0.00  0.00    +0.000 OA
BRANCH  11  13
ATOM     13  O   UNL     1       3.126   8.400  18.097  0.00  0.00    +0.000 OA
BRANCH  13  15
ATOM     14  C   UNL     1       4.838   6.942  17.305  0.00  0.00    +0.000 C 
ATOM     15  C   UNL     1       3.385   7.356  17.152  0.00  0.00    +0.000 C 
ENDBRANCH  13  15
ENDBRANCH  11  13
ENDBRANCH   5  11
BRANCH  10  16
ATOM     16  C   UNL     1       0.328  11.496  19.079  0.00  0.00    +0.000 C 
ATOM     17  C   UNL     1      -1.066  11.601  18.493  0.00  0.00    +0.000 C 
ENDBRANCH  10  16
ENDBRANCH   1   6
BRANCH   2  18
ATOM     18  C   UNL     1       2.728   4.602  20.440  0.00  0.00    +0.000 C 
ATOM     19  C   UNL     1       2.420   3.408  21.352  0.00  0.00    +0.000 C 
ATOM     20  C   UNL     1       1.701   2.277  20.682  0.00  0.00    +0.000 C 
ATOM     21  C   UNL     1       1.452   2.232  19.368  0.00  0.00    +0.000 C 
ATOM     22  C   UNL     1       1.900   3.293  18.408  0.00  0.00    +0.000 C 
ATOM     23  C   UNL     1       2.990   4.219  18.972  0.00  0.00    +0.000 C 
BRANCH  23  24
ATOM     24  C   UNL     1       4.383   3.630  18.822  0.00  0.00    +0.000 C 
ATOM     25  O   UNL     1       5.337   3.880  19.539  0.00  0.00    +0.000 OA
BRANCH  24  26
ATOM     26  O   UNL     1       4.475   2.740  17.803  0.00  0.00    +0.000 OA
ATOM     27  H   UNL     1       3.962   1.917  17.926  0.00  0.00    +0.000 HD
ENDBRANCH  24  26
ENDBRANCH  23  24
ENDBRANCH   2  18
TORSDOF 8
ENDMDL
MODEL 3
REMARK VINA RESULT:      -6.7      3.986      6.395
REMARK  Name = 
REMARK  11 active torsions:
REMARK  status: ('A' for Active; 'I' for Inactive)
REMARK    1  A    between atoms: C_1  and  C_2
REMARK    2  A    between atoms: C_2  and  O_3
REMARK    3  A    between atoms: O_3  and  C_4
REMARK    4  A    between atoms: C_4  and  C_6
REMARK    5  A    between atoms: C_7  and  N_8
REMARK    6  A    between atoms: C_9  and  C_11
REMARK    7  A    between atoms: C_16  and  C_17
REMARK    8  A    between atoms: C_17  and  O_19
REMARK    9  A    between atoms: C_21  and  C_22
REMARK   10  A    between atoms: C_23  and  C_24
REMARK   11  A    between atoms: C_24  and  C_25
REMARK                            x       y       z     vdW  Elec       q    Type
REMARK                         _______ _______ _______ _____ _____    ______ ____
ROOT
ATOM      1  N   UNL     1       2.701   7.058  19.524  0.00  0.00    +0.000 N 
ATOM      2  C   UNL     1       2.006   8.175  19.128  0.00  0.00    +0.000 C 
ATOM      3  O   UNL     1       1.629   8.440  17.980  0.00  0.00    +0.000 OA
ATOM      4  H   UNL     1       2.756   6.852  20.520  0.00  0.00    +0.000 HD
ENDROOT
BRANCH   1   6
ATOM      5  C   UNL     1       2.629   4.726  18.686  0.00  0.00    +0.000 A 
ATOM      6  C   UNL     1       3.123   6.022  18.699  0.00  0.00    +0.000 A 
ATOM      7  S   UNL     1       4.418   6.234  17.644  0.00  0.00    +0.000 S 
ATOM      8  C   UNL     1       4.351   4.620  17.085  0.00  0.00    +0.000 A 
ATOM      9  C   UNL     1       5.319   4.242  16.008  0.00  0.00    +0.000 C 
ATOM     10  C   UNL     1       3.372   3.874  17.739  0.00  0.00    +0.000 A 
BRANCH   5  11
ATOM     11  C   UNL     1       1.510   4.356  19.563  0.00  0.00    +0.000 C 
ATOM     12  O   UNL     1       0.480   3.836  19.140  0.00  0.00    +0.000 OA
BRANCH  11  13
ATOM     13  O   UNL     1       1.694   4.714  20.862  0.00  0.00    +0.000 OA
BRANCH  13  15
ATOM     14  C   UNL     1       1.577   2.518  21.783  0.00  0.00    +0.000 C 
ATOM     15  C   UNL     1       2.419   3.776  21.664  0.00  0.00    +0.000 C 
ENDBRANCH  13  15
ENDBRANCH  11  13
ENDBRANCH   5  11
BRANCH  10  16
ATOM     16  C   UNL     1       3.049   2.401  17.559  0.00  0.00    +0.000 C 
ATOM     17  C   UNL     1       3.587   1.398  18.560  0.00  0.00    +0.000 C 
ENDBRANCH  10  16
ENDBRANCH   1   6
BRANCH   2  18
ATOM     18  C   UNL     1       1.759   9.226  20.205  0.00  0.00    +0.000 C 
ATOM     19  C   UNL     1       1.162  10.567  19.758  0.00  0.00    +0.000 C 
ATOM     20  C   UNL     1      -0.327  10.663  19.886  0.00  0.00    +0.000 C 
ATOM     21  C   UNL     1      -1.083   9.720  20.462  0.00  0.00    +0.000 C 
ATOM     22  C   UNL     1      -0.521   8.476  21.080  0.00  0.00    +0.000 C 
ATOM     23  C   UNL     1       0.991   8.549  21.354  0.00  0.00    +0.000 C 
BRANCH  23  24
ATOM     24  C   UNL     1       1.306   9.232  22.674  0.00  0.00    +0.000 C 
ATOM     25  O   UNL     1       0.481   9.635  23.476  0.00  0.00    +0.000 OA
BRANCH  24  26
ATOM     26  O   UNL     1       2.637   9.330  22.916  0.00  0.00    +0.000 OA
ATOM     27  H   UNL     1       3.204   8.795  22.327  0.00  0.00    +0.000 HD
ENDBRANCH  24  26
ENDBRANCH  23  24
ENDBRANCH   2  18
TORSDOF 8
ENDMDL
MODEL 4
REMARK VINA RESULT:      -6.5      0.875      1.143
REMARK  Name = 
REMARK  11 active torsions:
REMARK  status: ('A' for Active; 'I' for Inactive)
REMARK    1  A    between atoms: C_1  and  C_2
REMARK    2  A    between atoms: C_2  and  O_3
REMARK    3  A    between atoms: O_3  and  C_4
REMARK    4  A    between atoms: C_4  and  C_6
REMARK    5  A    between atoms: C_7  and  N_8
REMARK    6  A    between atoms: C_9  and  C_11
REMARK    7  A    between atoms: C_16  and  C_17
REMARK    8  A    between atoms: C_17  and  O_19
REMARK    9  A    between atoms: C_21  and  C_22
REMARK   10  A    between atoms: C_23  and  C_24
REMARK   11  A    between atoms: C_24  and  C_25
REMARK                            x       y       z     vdW  Elec       q    Type
REMARK                         _______ _______ _______ _____ _____    ______ ____
ROOT
ATOM      1  N   UNL     1       5.083   3.735  17.074  0.00  0.00    +0.000 N 
ATOM      2  C   UNL     1       4.142   4.559  17.643  0.00  0.00    +0.000 C 
ATOM      3  O   UNL     1       3.656   5.579  17.141  0.00  0.00    +0.000 OA
ATOM      4  H   UNL     1       5.235   2.817  17.489  0.00  0.00    +0.000 HD
ENDROOT
BRANCH   1   6
ATOM      5  C   UNL     1       6.729   4.751  15.523  0.00  0.00    +0.000 A 
ATOM      6  C   UNL     1       5.672   3.905  15.827  0.00  0.00    +0.000 A 
ATOM      7  S   UNL     1       5.057   3.121  14.470  0.00  0.00    +0.000 S 
ATOM      8  C   UNL     1       6.200   3.838  13.419  0.00  0.00    +0.000 A 
ATOM      9  C   UNL     1       6.146   3.419  11.984  0.00  0.00    +0.000 C 
ATOM     10  C   UNL     1       7.037   4.734  14.081  0.00  0.00    +0.000 A 
BRANCH   5  11
ATOM     11  C   UNL     1       7.375   5.533  16.586  0.00  0.00    +0.000 C 
ATOM     12  O   UNL     1       7.511   6.752  16.522  0.00  0.00    +0.000 OA
BRANCH  11  13
ATOM     13  O   UNL     1       7.872   4.772  17.598  0.00  0.00    +0.000 OA
BRANCH  13  15
ATOM     14  C   UNL     1       6.847   5.536  19.610  0.00  0.00    +0.000 C 
ATOM     15  C   UNL     1       8.141   5.468  18.819  0.00  0.00    +0.000 C 
ENDBRANCH  13  15
ENDBRANCH  11  13
ENDBRANCH   5  11
BRANCH  10  16
ATOM     16  C   UNL     1       8.133   5.600  13.483  0.00  0.00    +0.000 C 
ATOM     17  C   UNL     1       8.009   6.060  12.045  0.00  0.00    +0.000 C 
ENDBRANCH  10  16
ENDBRANCH   1   6
BRANCH   2  18
ATOM     18  C   UNL     1       3.734   4.221  19.074  0.00  0.00    +0.000 C 
ATOM     19  C   UNL     1       2.490   4.920  19.635  0.00  0.00    +0.000 C 
ATOM     20  C   UNL     1       1.220   4.134  19.511  0.00  0.00    +0.000 C 
ATOM     21  C   UNL     1       1.171   2.871  19.070  0.00  0.00    +0.000 C 
ATOM     22  C   UNL     1       2.388   2.085  18.685  0.00  0.00    +0.000 C 
ATOM     23  C   UNL     1       3.705   2.687  19.202  0.00  0.00    +0.000 C 
BRANCH  23  24
ATOM     24  C   UNL     1       4.007   2.272  20.632  0.00  0.00    +0.000 C 
ATOM     25  O   UNL     1       3.248   2.394  21.579  0.00  0.00    +0.000 OA
BRANCH  24  26
ATOM     26  O   UNL     1       5.228   1.700  20.771  0.00  0.00    +0.000 OA
ATOM     27  H   UNL     1       5.777   2.067  21.492  0.00  0.00    +0.000 HD
ENDBRANCH  24  26
ENDBRANCH  23  24
ENDBRANCH   2  18
TORSDOF 8
ENDMDL
MODEL 5
REMARK VINA RESULT:      -6.4      4.567      7.223
REMARK  Name = 
REMARK  11 active torsions:
REMARK  status: ('A' for Active; 'I' for Inactive)
REMARK    1  A    between atoms: C_1  and  C_2
REMARK    2  A    between atoms: C_2  and  O_3
REMARK    3  A    between atoms: O_3  and  C_4
REMARK    4  A    between atoms: C_4  and  C_6
REMARK    5  A    between atoms: C_7  and  N_8
REMARK    6  A    between atoms: C_9  and  C_11
REMARK    7  A    between atoms: C_16  and  C_17
REMARK    8  A    between atoms: C_17  and  O_19
REMARK    9  A    between atoms: C_21  and  C_22
REMARK   10  A    between atoms: C_23  and  C_24
REMARK   11  A    between atoms: C_24  and  C_25
REMARK                            x       y       z     vdW  Elec       q    Type
REMARK                         _______ _______ _______ _____ _____    ______ ____
ROOT
ATOM      1  N   UNL     1       2.154   6.819  20.033  0.00  0.00    +0.000 N 
ATOM      2  C   UNL     1       3.035   5.957  19.425  0.00  0.00    +0.000 C 
ATOM      3  O   UNL     1       3.751   6.205  18.447  0.00  0.00    +0.000 OA
ATOM      4  H   UNL     1       1.794   6.571  20.953  0.00  0.00    +0.000 HD
ENDROOT
BRANCH   1   6
ATOM      5  C   UNL     1       1.007   9.005  20.258  0.00  0.00    +0.000 A 
ATOM      6  C   UNL     1       1.895   8.129  19.650  0.00  0.00    +0.000 A 
ATOM      7  S   UNL     1       2.607   8.780  18.270  0.00  0.00    +0.000 S 
ATOM      8  C   UNL     1       1.801  10.278  18.444  0.00  0.00    +0.000 A 
ATOM      9  C   UNL     1       2.132  11.338  17.441  0.00  0.00    +0.000 C 
ATOM     10  C   UNL     1       0.929  10.286  19.530  0.00  0.00    +0.000 A 
BRANCH   5  11
ATOM     11  C   UNL     1       0.277   8.594  21.465  0.00  0.00    +0.000 C 
ATOM     12  O   UNL     1      -0.608   7.743  21.446  0.00  0.00    +0.000 OA
BRANCH  11  13
ATOM     13  O   UNL     1       0.621   9.300  22.576  0.00  0.00    +0.000 OA
BRANCH  13  15
ATOM     14  C   UNL     1      -1.101  10.837  23.173  0.00  0.00    +0.000 C 
ATOM     15  C   UNL     1      -0.434   9.518  23.519  0.00  0.00    +0.000 C 
ENDBRANCH  13  15
ENDBRANCH  11  13
ENDBRANCH   5  11
BRANCH  10  16
ATOM     16  C   UNL     1       0.002  11.406  19.973  0.00  0.00    +0.000 C 
ATOM     17  C   UNL     1      -1.401  11.473  19.404  0.00  0.00    +0.000 C 
ENDBRANCH  10  16
ENDBRANCH   1   6
BRANCH   2  18
ATOM     18  C   UNL     1       3.056   4.531  19.964  0.00  0.00    +0.000 C 
ATOM     19  C   UNL     1       1.847   4.071  20.789  0.00  0.00    +0.000 C 
ATOM     20  C   UNL     1       0.800   3.336  20.008  0.00  0.00    +0.000 C 
ATOM     21  C   UNL     1       0.944   2.983  18.725  0.00  0.00    +0.000 C 
ATOM     22  C   UNL     1       2.187   3.250  17.932  0.00  0.00    +0.000 C 
ATOM     23  C   UNL     1       3.412   3.594  18.796  0.00  0.00    +0.000 C 
BRANCH  23  24
ATOM     24  C   UNL     1       4.122   2.354  19.312  0.00  0.00    +0.000 C 
ATOM     25  O   UNL     1       4.776   2.290  20.339  0.00  0.00    +0.000 OA
BRANCH  24  26
ATOM     26  O   UNL     1       3.934   1.268  18.521  0.00  0.00    +0.000 OA
ATOM     27  H   UNL     1       4.028   0.407  18.974  0.00  0.00    +0.000 HD
ENDBRANCH  24  26
ENDBRANCH  23  24
ENDBRANCH   2  18
TORSDOF 8
ENDMDL
MODEL 6
REMARK VINA RESULT:      -6.4      4.476      6.948
REMARK  Name = 
REMARK  11 active torsions:
REMARK  status: ('A' for Active; 'I' for Inactive)
REMARK    1  A    between atoms: C_1  and  C_2
REMARK    2  A    between atoms: C_2  and  O_3
REMARK    3  A    between atoms: O_3  and  C_4
REMARK    4  A    between atoms: C_4  and  C_6
REMARK    5  A    between atoms: C_7  and  N_8
REMARK    6  A    between atoms: C_9  and  C_11
REMARK    7  A    between atoms: C_16  and  C_17
REMARK    8  A    between atoms: C_17  and  O_19
REMARK    9  A    between atoms: C_21  and  C_22
REMARK   10  A    between atoms: C_23  and  C_24
REMARK   11  A    between atoms: C_24  and  C_25
REMARK                            x       y       z     vdW  Elec       q    Type
REMARK                         _______ _______ _______ _____ _____    ______ ____
ROOT
ATOM      1  N   UNL     1       2.300   7.276  19.270  0.00  0.00    +0.000 N 
ATOM      2  C   UNL     1       1.758   8.284  20.029  0.00  0.00    +0.000 C 
ATOM      3  O   UNL     1       1.335   8.187  21.188  0.00  0.00    +0.000 OA
ATOM      4  H   UNL     1       2.810   7.530  18.424  0.00  0.00    +0.000 HD
ENDROOT
BRANCH   1   6
ATOM      5  C   UNL     1       3.450   5.080  19.228  0.00  0.00    +0.000 A 
ATOM      6  C   UNL     1       2.462   5.953  19.661  0.00  0.00    +0.000 A 
ATOM      7  S   UNL     1       1.348   5.216  20.685  0.00  0.00    +0.000 S 
ATOM      8  C   UNL     1       2.155   3.710  20.637  0.00  0.00    +0.000 A 
ATOM      9  C   UNL     1       1.584   2.615  21.482  0.00  0.00    +0.000 C 
ATOM     10  C   UNL     1       3.262   3.730  19.790  0.00  0.00    +0.000 A 
BRANCH   5  11
ATOM     11  C   UNL     1       4.496   5.549  18.309  0.00  0.00    +0.000 C 
ATOM     12  O   UNL     1       4.270   5.823  17.133  0.00  0.00    +0.000 OA
BRANCH  11  13
ATOM     13  O   UNL     1       5.738   5.573  18.863  0.00  0.00    +0.000 OA
BRANCH  13  15
ATOM     14  C   UNL     1       7.575   4.627  17.674  0.00  0.00    +0.000 C 
ATOM     15  C   UNL     1       6.806   5.903  17.969  0.00  0.00    +0.000 C 
ENDBRANCH  13  15
ENDBRANCH  11  13
ENDBRANCH   5  11
BRANCH  10  16
ATOM     16  C   UNL     1       4.192   2.579  19.445  0.00  0.00    +0.000 C 
ATOM     17  C   UNL     1       3.719   1.511  18.479  0.00  0.00    +0.000 C 
ENDBRANCH  10  16
ENDBRANCH   1   6
BRANCH   2  18
ATOM     18  C   UNL     1       1.584   9.629  19.331  0.00  0.00    +0.000 C 
ATOM     19  C   UNL     1       0.991   9.618  17.916  0.00  0.00    +0.000 C 
ATOM     20  C   UNL     1      -0.488   9.844  17.855  0.00  0.00    +0.000 C 
ATOM     21  C   UNL     1      -1.234  10.163  18.920  0.00  0.00    +0.000 C 
ATOM     22  C   UNL     1      -0.665  10.368  20.292  0.00  0.00    +0.000 C 
ATOM     23  C   UNL     1       0.858  10.573  20.307  0.00  0.00    +0.000 C 
BRANCH  23  24
ATOM     24  C   UNL     1       1.250  12.016  20.035  0.00  0.00    +0.000 C 
ATOM     25  O   UNL     1       1.113  12.596  18.972  0.00  0.00    +0.000 OA
BRANCH  24  26
ATOM     26  O   UNL     1       1.754  12.643  21.126  0.00  0.00    +0.000 OA
ATOM     27  H   UNL     1       2.462  13.290  20.940  0.00  0.00    +0.000 HD
ENDBRANCH  24  26
ENDBRANCH  23  24
ENDBRANCH   2  18
TORSDOF 8
ENDMDL
MODEL 7
REMARK VINA RESULT:      -6.4      4.421      6.946
REMARK  Name = 
REMARK  11 active torsions:
REMARK  status: ('A' for Active; 'I' for Inactive)
REMARK    1  A    between atoms: C_1  and  C_2
REMARK    2  A    between atoms: C_2  and  O_3
REMARK    3  A    between atoms: O_3  and  C_4
REMARK    4  A    between atoms: C_4  and  C_6
REMARK    5  A    between atoms: C_7  and  N_8
REMARK    6  A    between atoms: C_9  and  C_11
REMARK    7  A    between atoms: C_16  and  C_17
REMARK    8  A    between atoms: C_17  and  O_19
REMARK    9  A    between atoms: C_21  and  C_22
REMARK   10  A    between atoms: C_23  and  C_24
REMARK   11  A    between atoms: C_24  and  C_25
REMARK                            x       y       z     vdW  Elec       q    Type
REMARK                         _______ _______ _______ _____ _____    ______ ____
ROOT
ATOM      1  N   UNL     1       2.232   7.198  18.698  0.00  0.00    +0.000 N 
ATOM      2  C   UNL     1       1.845   8.340  19.357  0.00  0.00    +0.000 C 
ATOM      3  O   UNL     1       1.663   8.462  20.574  0.00  0.00    +0.000 OA
ATOM      4  H   UNL     1       2.558   7.283  17.737  0.00  0.00    +0.000 HD
ENDROOT
BRANCH   1   6
ATOM      5  C   UNL     1       3.414   5.025  18.862  0.00  0.00    +0.000 A 
ATOM      6  C   UNL     1       2.480   5.961  19.281  0.00  0.00    +0.000 A 
ATOM      7  S   UNL     1       1.545   5.413  20.569  0.00  0.00    +0.000 S 
ATOM      8  C   UNL     1       2.372   3.920  20.660  0.00  0.00    +0.000 A 
ATOM      9  C   UNL     1       1.956   2.988  21.755  0.00  0.00    +0.000 C 
ATOM     10  C   UNL     1       3.341   3.792  19.667  0.00  0.00    +0.000 A 
BRANCH   5  11
ATOM     11  C   UNL     1       4.302   5.326  17.731  0.00  0.00    +0.000 C 
ATOM     12  O   UNL     1       4.170   4.805  16.627  0.00  0.00    +0.000 OA
BRANCH  11  13
ATOM     13  O   UNL     1       5.321   6.169  18.049  0.00  0.00    +0.000 OA
BRANCH  13  15
ATOM     14  C   UNL     1       7.367   4.954  17.896  0.00  0.00    +0.000 C 
ATOM     15  C   UNL     1       6.369   5.599  18.841  0.00  0.00    +0.000 C 
ENDBRANCH  13  15
ENDBRANCH  11  13
ENDBRANCH   5  11
BRANCH  10  16
ATOM     16  C   UNL     1       4.237   2.596  19.389  0.00  0.00    +0.000 C 
ATOM     17  C   UNL     1       3.698   1.444  18.566  0.00  0.00    +0.000 C 
ENDBRANCH  10  16
ENDBRANCH   1   6
BRANCH   2  18
ATOM     18  C   UNL     1       1.522   9.543  18.477  0.00  0.00    +0.000 C 
ATOM     19  C   UNL     1       0.388   9.387  17.456  0.00  0.00    +0.000 C 
ATOM     20  C   UNL     1      -0.949   9.875  17.926  0.00  0.00    +0.000 C 
ATOM     21  C   UNL     1      -1.137  10.518  19.085  0.00  0.00    +0.000 C 
ATOM     22  C   UNL     1      -0.024  10.857  20.029  0.00  0.00    +0.000 C 
ATOM     23  C   UNL     1       1.374  10.769  19.396  0.00  0.00    +0.000 C 
BRANCH  23  24
ATOM     24  C   UNL     1       1.751  12.037  18.649  0.00  0.00    +0.000 C 
ATOM     25  O   UNL     1       1.342  13.156  18.906  0.00  0.00    +0.000 OA
BRANCH  24  26
ATOM     26  O   UNL     1       2.644  11.820  17.652  0.00  0.00    +0.000 OA
ATOM     27  H   UNL     1       2.563  10.954  17.206  0.00  0.00    +0.000 HD
ENDBRANCH  24  26
ENDBRANCH  23  24
ENDBRANCH   2  18
TORSDOF 8
ENDMDL
MODEL 8
REMARK VINA RESULT:      -6.4      4.633      7.209
REMARK  Name = 
REMARK  11 active torsions:
REMARK  status: ('A' for Active; 'I' for Inactive)
REMARK    1  A    between atoms: C_1  and  C_2
REMARK    2  A    between atoms: C_2  and  O_3
REMARK    3  A    between atoms: O_3  and  C_4
REMARK    4  A    between atoms: C_4  and  C_6
REMARK    5  A    between atoms: C_7  and  N_8
REMARK    6  A    between atoms: C_9  and  C_11
REMARK    7  A    between atoms: C_16  and  C_17
REMARK    8  A    between atoms: C_17  and  O_19
REMARK    9  A    between atoms: C_21  and  C_22
REMARK   10  A    between atoms: C_23  and  C_24
REMARK   11  A    between atoms: C_24  and  C_25
REMARK                            x       y       z     vdW  Elec       q    Type
REMARK                         _______ _______ _______ _____ _____    ______ ____
ROOT
ATOM      1  N   UNL     1       2.125   7.591  18.709  0.00  0.00    +0.000 N 
ATOM      2  C   UNL     1       1.634   8.677  19.394  0.00  0.00    +0.000 C 
ATOM      3  O   UNL     1       1.418   8.744  20.610  0.00  0.00    +0.000 OA
ATOM      4  H   UNL     1       2.464   7.733  17.759  0.00  0.00    +0.000 HD
ENDROOT
BRANCH   1   6
ATOM      5  C   UNL     1       3.441   5.493  18.804  0.00  0.00    +0.000 A 
ATOM      6  C   UNL     1       2.458   6.359  19.259  0.00  0.00    +0.000 A 
ATOM      7  S   UNL     1       1.579   5.725  20.547  0.00  0.00    +0.000 S 
ATOM      8  C   UNL     1       2.498   4.284  20.590  0.00  0.00    +0.000 A 
ATOM      9  C   UNL     1       2.159   3.304  21.668  0.00  0.00    +0.000 C 
ATOM     10  C   UNL     1       3.458   4.239  19.581  0.00  0.00    +0.000 A 
BRANCH   5  11
ATOM     11  C   UNL     1       4.292   5.875  17.668  0.00  0.00    +0.000 C 
ATOM     12  O   UNL     1       4.905   6.938  17.628  0.00  0.00    +0.000 OA
BRANCH  11  13
ATOM     13  O   UNL     1       4.268   4.980  16.644  0.00  0.00    +0.000 OA
BRANCH  13  15
ATOM     14  C   UNL     1       6.021   3.785  15.556  0.00  0.00    +0.000 C 
ATOM     15  C   UNL     1       5.312   5.123  15.675  0.00  0.00    +0.000 C 
ENDBRANCH  13  15
ENDBRANCH  11  13
ENDBRANCH   5  11
BRANCH  10  16
ATOM     16  C   UNL     1       4.421   3.109  19.261  0.00  0.00    +0.000 C 
ATOM     17  C   UNL     1       3.881   1.820  18.675  0.00  0.00    +0.000 C 
ENDBRANCH  10  16
ENDBRANCH   1   6
BRANCH   2  18
ATOM     18  C   UNL     1       1.236   9.879  18.545  0.00  0.00    +0.000 C 
ATOM     19  C   UNL     1      -0.103   9.804  17.800  0.00  0.00    +0.000 C 
ATOM     20  C   UNL     1      -1.257  10.433  18.519  0.00  0.00    +0.000 C 
ATOM     21  C   UNL     1      -1.131  11.125  19.658  0.00  0.00    +0.000 C 
ATOM     22  C   UNL     1       0.187  11.383  20.325  0.00  0.00    +0.000 C 
ATOM     23  C   UNL     1       1.401  11.140  19.412  0.00  0.00    +0.000 C 
BRANCH  23  24
ATOM     24  C   UNL     1       1.716  12.343  18.539  0.00  0.00    +0.000 C 
ATOM     25  O   UNL     1       1.294  13.473  18.714  0.00  0.00    +0.000 OA
BRANCH  24  26
ATOM     26  O   UNL     1       2.570  12.054  17.526  0.00  0.00    +0.000 OA
ATOM     27  H   UNL     1       3.296  11.443  17.760  0.00  0.00    +0.000 HD
ENDBRANCH  24  26
ENDBRANCH  23  24
ENDBRANCH   2  18
TORSDOF 8
ENDMDL
MODEL 9
REMARK VINA RESULT:      -6.4      4.495      6.999
REMARK  Name = 
REMARK  11 active torsions:
REMARK  status: ('A' for Active; 'I' for Inactive)
REMARK    1  A    between atoms: C_1  and  C_2
REMARK    2  A    between atoms: C_2  and  O_3
REMARK    3  A    between atoms: O_3  and  C_4
REMARK    4  A    between atoms: C_4  and  C_6
REMARK    5  A    between atoms: C_7  and  N_8
REMARK    6  A    between atoms: C_9  and  C_11
REMARK    7  A    between atoms: C_16  and  C_17
REMARK    8  A    between atoms: C_17  and  O_19
REMARK    9  A    between atoms: C_21  and  C_22
REMARK   10  A    between atoms: C_23  and  C_24
REMARK   11  A    between atoms: C_24  and  C_25
REMARK                            x       y       z     vdW  Elec       q    Type
REMARK                         _______ _______ _______ _____ _____    ______ ____
ROOT
ATOM      1  N   UNL     1       2.272   7.284  19.271  0.00  0.00    +0.000 N 
ATOM      2  C   UNL     1       1.786   8.298  20.060  0.00  0.00    +0.000 C 
ATOM      3  O   UNL     1       1.411   8.202  21.235  0.00  0.00    +0.000 OA
ATOM      4  H   UNL     1       2.750   7.532  18.406  0.00  0.00    +0.000 HD
ENDROOT
BRANCH   1   6
ATOM      5  C   UNL     1       3.431   5.092  19.245  0.00  0.00    +0.000 A 
ATOM      6  C   UNL     1       2.422   5.954  19.647  0.00  0.00    +0.000 A 
ATOM      7  S   UNL     1       1.265   5.196  20.607  0.00  0.00    +0.000 S 
ATOM      8  C   UNL     1       2.080   3.694  20.570  0.00  0.00    +0.000 A 
ATOM      9  C   UNL     1       1.476   2.583  21.370  0.00  0.00    +0.000 C 
ATOM     10  C   UNL     1       3.223   3.732  19.775  0.00  0.00    +0.000 A 
BRANCH   5  11
ATOM     11  C   UNL     1       4.516   5.580  18.382  0.00  0.00    +0.000 C 
ATOM     12  O   UNL     1       5.669   5.720  18.782  0.00  0.00    +0.000 OA
BRANCH  11  13
ATOM     13  O   UNL     1       4.104   5.933  17.135  0.00  0.00    +0.000 OA
BRANCH  13  15
ATOM     14  C   UNL     1       5.385   4.878  15.424  0.00  0.00    +0.000 C 
ATOM     15  C   UNL     1       5.147   6.170  16.184  0.00  0.00    +0.000 C 
ENDBRANCH  13  15
ENDBRANCH  11  13
ENDBRANCH   5  11
BRANCH  10  16
ATOM     16  C   UNL     1       4.173   2.590  19.453  0.00  0.00    +0.000 C 
ATOM     17  C   UNL     1       3.719   1.496  18.507  0.00  0.00    +0.000 C 
ENDBRANCH  10  16
ENDBRANCH   1   6
BRANCH   2  18
ATOM     18  C   UNL     1       1.611   9.651  19.378  0.00  0.00    +0.000 C 
ATOM     19  C   UNL     1       1.045   9.654  17.952  0.00  0.00    +0.000 C 
ATOM     20  C   UNL     1      -0.436   9.868  17.867  0.00  0.00    +0.000 C 
ATOM     21  C   UNL     1      -1.203  10.164  18.923  0.00  0.00    +0.000 C 
ATOM     22  C   UNL     1      -0.663  10.354  20.308  0.00  0.00    +0.000 C 
ATOM     23  C   UNL     1       0.859  10.573  20.354  0.00  0.00    +0.000 C 
BRANCH  23  24
ATOM     24  C   UNL     1       1.241  12.023  20.110  0.00  0.00    +0.000 C 
ATOM     25  O   UNL     1       1.468  12.520  19.020  0.00  0.00    +0.000 OA
BRANCH  24  26
ATOM     26  O   UNL     1       1.277  12.761  21.247  0.00  0.00    +0.000 OA
ATOM     27  H   UNL     1       2.044  12.587  21.828  0.00  0.00    +0.000 HD
ENDBRANCH  24  26
ENDBRANCH  23  24
ENDBRANCH   2  18
TORSDOF 8
ENDMDL
