MODEL 1
REMARK VINA RESULT:      -8.7      0.000      0.000
REMARK  Name = 
REMARK  5 active torsions:
REMARK  status: ('A' for Active; 'I' for Inactive)
REMARK    1  A    between atoms: C_1  and  C_2
REMARK    2  A    between atoms: N_4  and  C_5
REMARK    3  A    between atoms: C_5  and  C_6
REMARK    4  A    between atoms: C_13  and  C_14
REMARK    5  A    between atoms: C_17  and  C_18
REMARK                            x       y       z     vdW  Elec       q    Type
REMARK                         _______ _______ _______ _____ _____    ______ ____
ROOT
ATOM      1  C   UNL     1       5.611   4.895  18.561  0.00  0.00    +0.000 A 
ATOM      2  N   UNL     1       4.633   5.729  18.745  0.00  0.00    +0.000 NA
ATOM      3  N   UNL     1       3.592   5.247  19.494  0.00  0.00    +0.000 N 
ATOM      4  C   UNL     1       2.429   5.892  19.909  0.00  0.00    +0.000 A 
ATOM      5  N   UNL     1       1.713   5.095  20.692  0.00  0.00    +0.000 NA
ATOM      6  C   UNL     1       2.399   3.913  20.762  0.00  0.00    +0.000 A 
ATOM      7  C   UNL     1       3.554   3.987  20.031  0.00  0.00    +0.000 A 
ATOM      8  C   UNL     1       4.604   3.069  19.792  0.00  0.00    +0.000 A 
ATOM      9  O   UNL     1       4.666   1.925  20.228  0.00  0.00    +0.000 OA
ATOM     10  N   UNL     1       5.606   3.592  19.015  0.00  0.00    +0.000 N 
ATOM     11  H   UNL     1       6.385   2.970  18.854  0.00  0.00    +0.000 HD
ENDROOT
BRANCH   1  17
ATOM     12  C   UNL     1       7.482   7.741  17.817  0.00  0.00    +0.000 C 
ATOM     13  C   UNL     1       6.798   6.614  17.048  0.00  0.00    +0.000 C 
ATOM     14  C   UNL     1       7.479   6.328  15.709  0.00  0.00    +0.000 C 
ATOM     15  N   UNL     1       7.161   4.923  15.394  0.00  0.00    +0.000 NA
ATOM     16  C   UNL     1       7.191   4.240  16.700  0.00  0.00    +0.000 C 
ATOM     17  C   UNL     1       6.869   5.275  17.784  0.00  0.00    +0.000 C 
BRANCH  15  18
ATOM     18  C   UNL     1       5.858   4.832  14.710  0.00  0.00    +0.000 C 
BRANCH  18  19
ATOM     19  C   UNL     1       5.859   4.047  13.413  0.00  0.00    +0.000 A 
ATOM     20  C   UNL     1       7.076   3.704  12.810  0.00  0.00    +0.000 A 
ATOM     21  C   UNL     1       7.127   2.911  11.664  0.00  0.00    +0.000 A 
ATOM     22  C   UNL     1       5.945   2.458  11.090  0.00  0.00    +0.000 A 
ATOM     23  C   UNL     1       4.721   2.805  11.663  0.00  0.00    +0.000 A 
ATOM     24  C   UNL     1       4.674   3.594  12.819  0.00  0.00    +0.000 A 
ENDBRANCH  18  19
ENDBRANCH  15  18
ENDBRANCH   1  17
BRANCH   4  25
ATOM     25  C   UNL     1       2.133   7.235  19.504  0.00  0.00    +0.000 C 
ATOM     26  C   UNL     1       1.513   8.022  20.404  0.00  0.00    +0.000 C 
ATOM     27  C   UNL     1       1.101   9.438  20.137  0.00  0.00    +0.000 C 
ATOM     28  O   UNL     1       1.697   9.967  18.951  0.00  0.00    +0.000 OA
ATOM     29  C   UNL     1       1.551   9.067  17.856  0.00  0.00    +0.000 C 
ATOM     30  C   UNL     1       2.360   7.800  18.120  0.00  0.00    +0.000 C 
ENDBRANCH   4  25
TORSDOF 4
ENDMDL
MODEL 2
REMARK VINA RESULT:      -8.1      0.247      1.281
REMARK  Name = 
REMARK  5 active torsions:
REMARK  status: ('A' for Active; 'I' for Inactive)
REMARK    1  A    between atoms: C_1  and  C_2
REMARK    2  A    between atoms: N_4  and  C_5
REMARK    3  A    between atoms: C_5  and  C_6
REMARK    4  A    between atoms: C_13  and  C_14
REMARK    5  A    between atoms: C_17  and  C_18
REMARK                            x       y       z     vdW  Elec       q    Type
REMARK                         _______ _______ _______ _____ _____    ______ ____
ROOT
ATOM      1  C   UNL     1       5.612   4.909  18.580  0.00  0.00    +0.000 A 
ATOM      2  N   UNL     1       4.602   5.703  18.776  0.00  0.00    +0.000 NA
ATOM      3  N   UNL     1       3.577   5.167  19.510  0.00  0.00    +0.000 N 
ATOM      4  C   UNL     1       2.389   5.760  19.931  0.00  0.00    +0.000 A 
ATOM      5  N   UNL     1       1.699   4.921  20.693  0.00  0.00    +0.000 NA
ATOM      6  C   UNL     1       2.427   3.764  20.742  0.00  0.00    +0.000 A 
ATOM      7  C   UNL     1       3.582   3.896  20.019  0.00  0.00    +0.000 A 
ATOM      8  C   UNL     1       4.667   3.022  19.767  0.00  0.00    +0.000 A 
ATOM      9  O   UNL     1       4.768   1.872  20.179  0.00  0.00    +0.000 OA
ATOM     10  N   UNL     1       5.652   3.598  19.007  0.00  0.00    +0.000 N 
ATOM     11  H   UNL     1       6.455   3.008  18.837  0.00  0.00    +0.000 HD
ENDROOT
BRANCH   1  17
ATOM     12  C   UNL     1       7.392   7.833  17.925  0.00  0.00    +0.000 C 
ATOM     13  C   UNL     1       6.747   6.708  17.121  0.00  0.00    +0.000 C 
ATOM     14  C   UNL     1       7.440   6.483  15.776  0.00  0.00    +0.000 C 
ATOM     15  N   UNL     1       7.167   5.078  15.420  0.00  0.00    +0.000 NA
ATOM     16  C   UNL     1       7.216   4.359  16.706  0.00  0.00    +0.000 C 
ATOM     17  C   UNL     1       6.859   5.351  17.819  0.00  0.00    +0.000 C 
BRANCH  15  18
ATOM     18  C   UNL     1       5.869   4.965  14.730  0.00  0.00    +0.000 C 
BRANCH  18  19
ATOM     19  C   UNL     1       5.865   4.087  13.493  0.00  0.00    +0.000 A 
ATOM     20  C   UNL     1       4.646   3.696  12.925  0.00  0.00    +0.000 A 
ATOM     21  C   UNL     1       4.595   2.961  11.741  0.00  0.00    +0.000 A 
ATOM     22  C   UNL     1       5.776   2.591  11.110  0.00  0.00    +0.000 A 
ATOM     23  C   UNL     1       7.001   2.954  11.670  0.00  0.00    +0.000 A 
ATOM     24  C   UNL     1       7.050   3.700  12.855  0.00  0.00    +0.000 A 
ENDBRANCH  18  19
ENDBRANCH  15  18
ENDBRANCH   1  17
BRANCH   4  25
ATOM     25  C   UNL     1       2.045   7.100  19.552  0.00  0.00    +0.000 C 
ATOM     26  C   UNL     1       2.420   7.501  18.323  0.00  0.00    +0.000 C 
ATOM     27  C   UNL     1       2.173   8.876  17.778  0.00  0.00    +0.000 C 
ATOM     28  O   UNL     1       1.238   9.616  18.565  0.00  0.00    +0.000 OA
ATOM     29  C   UNL     1       1.568   9.554  19.950  0.00  0.00    +0.000 C 
ATOM     30  C   UNL     1       1.397   8.125  20.456  0.00  0.00    +0.000 C 
ENDBRANCH   4  25
TORSDOF 4
ENDMDL
MODEL 3
REMARK VINA RESULT:      -7.8      7.793     12.166
REMARK  Name = 
REMARK  5 active torsions:
REMARK  status: ('A' for Active; 'I' for Inactive)
REMARK    1  A    between atoms: C_1  and  C_2
REMARK    2  A    between atoms: N_4  and  C_5
REMARK    3  A    between atoms: C_5  and  C_6
REMARK    4  A    between atoms: C_13  and  C_14
REMARK    5  A    between atoms: C_17  and  C_18
REMARK                            x       y       z     vdW  Elec       q    Type
REMARK                         _______ _______ _______ _____ _____    ______ ____
ROOT
ATOM      1  C   UNL     1      -1.567  11.566  18.569  0.00  0.00    +0.000 A 
ATOM      2  N   UNL     1      -2.664  11.952  19.145  0.00  0.00    +0.000 NA
ATOM      3  N   UNL     1      -3.794  11.836  18.379  0.00  0.00    +0.000 N 
ATOM      4  C   UNL     1      -5.118  12.115  18.711  0.00  0.00    +0.000 A 
ATOM      5  N   UNL     1      -5.924  11.789  17.707  0.00  0.00    +0.000 NA
ATOM      6  C   UNL     1      -5.116  11.324  16.706  0.00  0.00    +0.000 A 
ATOM      7  C   UNL     1      -3.805  11.349  17.100  0.00  0.00    +0.000 A 
ATOM      8  C   UNL     1      -2.600  10.968  16.462  0.00  0.00    +0.000 A 
ATOM      9  O   UNL     1      -2.504  10.519  15.326  0.00  0.00    +0.000 OA
ATOM     10  N   UNL     1      -1.498  11.129  17.262  0.00  0.00    +0.000 N 
ATOM     11  H   UNL     1      -0.626  10.836  16.845  0.00  0.00    +0.000 HD
ENDROOT
BRANCH   1  17
ATOM     12  C   UNL     1       1.216   9.510  18.996  0.00  0.00    +0.000 C 
ATOM     13  C   UNL     1       0.219  10.249  19.885  0.00  0.00    +0.000 C 
ATOM     14  C   UNL     1       0.821  10.636  21.236  0.00  0.00    +0.000 C 
ATOM     15  N   UNL     1       0.047  11.804  21.696  0.00  0.00    +0.000 NA
ATOM     16  C   UNL     1      -0.228  12.567  20.464  0.00  0.00    +0.000 C 
ATOM     17  C   UNL     1      -0.219  11.587  19.286  0.00  0.00    +0.000 C 
BRANCH  15  18
ATOM     18  C   UNL     1      -1.171  11.368  22.403  0.00  0.00    +0.000 C 
BRANCH  18  19
ATOM     19  C   UNL     1      -1.890  12.449  23.186  0.00  0.00    +0.000 A 
ATOM     20  C   UNL     1      -3.156  12.188  23.728  0.00  0.00    +0.000 A 
ATOM     21  C   UNL     1      -3.815  13.121  24.526  0.00  0.00    +0.000 A 
ATOM     22  C   UNL     1      -3.218  14.349  24.784  0.00  0.00    +0.000 A 
ATOM     23  C   UNL     1      -1.966  14.636  24.239  0.00  0.00    +0.000 A 
ATOM     24  C   UNL     1      -1.302  13.693  23.444  0.00  0.00    +0.000 A 
ENDBRANCH  18  19
ENDBRANCH  15  18
ENDBRANCH   1  17
BRANCH   4  25
ATOM     25  C   UNL     1      -5.470  12.668  19.985  0.00  0.00    +0.000 C 
ATOM     26  C   UNL     1      -6.435  12.036  20.680  0.00  0.00    +0.000 C 
ATOM     27  C   UNL     1      -6.949  12.496  22.012  0.00  0.00    +0.000 C 
ATOM     28  O   UNL     1      -6.109  13.486  22.608  0.00  0.00    +0.000 OA
ATOM     29  C   UNL     1      -5.793  14.520  21.681  0.00  0.00    +0.000 C 
ATOM     30  C   UNL     1      -4.926  13.957  20.559  0.00  0.00    +0.000 C 
ENDBRANCH   4  25
TORSDOF 4
ENDMDL
MODEL 4
REMARK VINA RESULT:      -7.7      0.904      1.380
REMARK  Name = 
REMARK  5 active torsions:
REMARK  status: ('A' for Active; 'I' for Inactive)
REMARK    1  A    between atoms: C_1  and  C_2
REMARK    2  A    between atoms: N_4  and  C_5
REMARK    3  A    between atoms: C_5  and  C_6
REMARK    4  A    between atoms: C_13  and  C_14
REMARK    5  A    between atoms: C_17  and  C_18
REMARK                            x       y       z     vdW  Elec       q    Type
REMARK                         _______ _______ _______ _____ _____    ______ ____
ROOT
ATOM      1  C   UNL     1       5.442   4.962  19.048  0.00  0.00    +0.000 A 
ATOM      2  N   UNL     1       4.394   5.683  19.311  0.00  0.00    +0.000 NA
ATOM      3  N   UNL     1       3.382   5.023  19.958  0.00  0.00    +0.000 N 
ATOM      4  C   UNL     1       2.161   5.512  20.418  0.00  0.00    +0.000 A 
ATOM      5  N   UNL     1       1.499   4.562  21.067  0.00  0.00    +0.000 NA
ATOM      6  C   UNL     1       2.280   3.440  21.001  0.00  0.00    +0.000 A 
ATOM      7  C   UNL     1       3.439   3.704  20.322  0.00  0.00    +0.000 A 
ATOM      8  C   UNL     1       4.567   2.913  19.996  0.00  0.00    +0.000 A 
ATOM      9  O   UNL     1       4.715   1.730  20.279  0.00  0.00    +0.000 OA
ATOM     10  N   UNL     1       5.536   3.614  19.326  0.00  0.00    +0.000 N 
ATOM     11  H   UNL     1       6.368   3.084  19.108  0.00  0.00    +0.000 HD
ENDROOT
BRANCH   1  17
ATOM     12  C   UNL     1       6.539   8.000  17.737  0.00  0.00    +0.000 C 
ATOM     13  C   UNL     1       6.394   6.558  17.259  0.00  0.00    +0.000 C 
ATOM     14  C   UNL     1       7.407   6.201  16.171  0.00  0.00    +0.000 C 
ATOM     15  N   UNL     1       7.582   4.739  16.255  0.00  0.00    +0.000 NA
ATOM     16  C   UNL     1       7.515   4.446  17.698  0.00  0.00    +0.000 C 
ATOM     17  C   UNL     1       6.679   5.542  18.368  0.00  0.00    +0.000 C 
BRANCH  15  18
ATOM     18  C   UNL     1       6.545   4.052  15.464  0.00  0.00    +0.000 C 
BRANCH  18  19
ATOM     19  C   UNL     1       6.682   4.182  13.959  0.00  0.00    +0.000 A 
ATOM     20  C   UNL     1       7.580   5.114  13.423  0.00  0.00    +0.000 A 
ATOM     21  C   UNL     1       7.802   5.209  12.050  0.00  0.00    +0.000 A 
ATOM     22  C   UNL     1       7.108   4.373  11.183  0.00  0.00    +0.000 A 
ATOM     23  C   UNL     1       6.195   3.451  11.695  0.00  0.00    +0.000 A 
ATOM     24  C   UNL     1       5.981   3.352  13.076  0.00  0.00    +0.000 A 
ENDBRANCH  18  19
ENDBRANCH  15  18
ENDBRANCH   1  17
BRANCH   4  25
ATOM     25  C   UNL     1       1.762   6.869  20.185  0.00  0.00    +0.000 C 
ATOM     26  C   UNL     1       2.124   7.418  19.010  0.00  0.00    +0.000 C 
ATOM     27  C   UNL     1       1.820   8.832  18.616  0.00  0.00    +0.000 C 
ATOM     28  O   UNL     1       0.851   9.441  19.472  0.00  0.00    +0.000 OA
ATOM     29  C   UNL     1       1.179   9.243  20.844  0.00  0.00    +0.000 C 
ATOM     30  C   UNL     1       1.067   7.760  21.189  0.00  0.00    +0.000 C 
ENDBRANCH   4  25
TORSDOF 4
ENDMDL
MODEL 5
REMARK VINA RESULT:      -7.6      6.797     10.638
REMARK  Name = 
REMARK  5 active torsions:
REMARK  status: ('A' for Active; 'I' for Inactive)
REMARK    1  A    between atoms: C_1  and  C_2
REMARK    2  A    between atoms: N_4  and  C_5
REMARK    3  A    between atoms: C_5  and  C_6
REMARK    4  A    between atoms: C_13  and  C_14
REMARK    5  A    between atoms: C_17  and  C_18
REMARK                            x       y       z     vdW  Elec       q    Type
REMARK                         _______ _______ _______ _____ _____    ______ ____
ROOT
ATOM      1  C   UNL     1      -2.735  12.431  19.417  0.00  0.00    +0.000 A 
ATOM      2  N   UNL     1      -3.825  12.653  20.086  0.00  0.00    +0.000 NA
ATOM      3  N   UNL     1      -4.978  12.237  19.474  0.00  0.00    +0.000 N 
ATOM      4  C   UNL     1      -6.291  12.283  19.937  0.00  0.00    +0.000 A 
ATOM      5  N   UNL     1      -7.108  11.701  19.068  0.00  0.00    +0.000 NA
ATOM      6  C   UNL     1      -6.326  11.301  18.019  0.00  0.00    +0.000 A 
ATOM      7  C   UNL     1      -5.016  11.624  18.250  0.00  0.00    +0.000 A 
ATOM      8  C   UNL     1      -3.828  11.423  17.506  0.00  0.00    +0.000 A 
ATOM      9  O   UNL     1      -3.756  10.883  16.408  0.00  0.00    +0.000 OA
ATOM     10  N   UNL     1      -2.709  11.880  18.152  0.00  0.00    +0.000 N 
ATOM     11  H   UNL     1      -1.841  11.722  17.659  0.00  0.00    +0.000 HD
ENDROOT
BRANCH   1  17
ATOM     12  C   UNL     1      -0.270  14.848  18.938  0.00  0.00    +0.000 C 
ATOM     13  C   UNL     1      -0.366  13.325  18.925  0.00  0.00    +0.000 C 
ATOM     14  C   UNL     1       0.955  12.656  19.307  0.00  0.00    +0.000 C 
ATOM     15  N   UNL     1       0.589  11.333  19.846  0.00  0.00    +0.000 NA
ATOM     16  C   UNL     1      -0.664  11.574  20.586  0.00  0.00    +0.000 C 
ATOM     17  C   UNL     1      -1.356  12.792  19.963  0.00  0.00    +0.000 C 
BRANCH  15  18
ATOM     18  C   UNL     1       0.449  10.354  18.753  0.00  0.00    +0.000 C 
BRANCH  18  19
ATOM     19  C   UNL     1       1.347   9.136  18.855  0.00  0.00    +0.000 A 
ATOM     20  C   UNL     1       1.370   8.388  20.040  0.00  0.00    +0.000 A 
ATOM     21  C   UNL     1       2.114   7.214  20.148  0.00  0.00    +0.000 A 
ATOM     22  C   UNL     1       2.866   6.775  19.065  0.00  0.00    +0.000 A 
ATOM     23  C   UNL     1       2.872   7.514  17.882  0.00  0.00    +0.000 A 
ATOM     24  C   UNL     1       2.116   8.689  17.773  0.00  0.00    +0.000 A 
ENDBRANCH  18  19
ENDBRANCH  15  18
ENDBRANCH   1  17
BRANCH   4  25
ATOM     25  C   UNL     1      -6.620  12.888  21.194  0.00  0.00    +0.000 C 
ATOM     26  C   UNL     1      -7.220  12.105  22.111  0.00  0.00    +0.000 C 
ATOM     27  C   UNL     1      -7.662  12.581  23.462  0.00  0.00    +0.000 C 
ATOM     28  O   UNL     1      -7.113  13.857  23.798  0.00  0.00    +0.000 OA
ATOM     29  C   UNL     1      -7.283  14.787  22.732  0.00  0.00    +0.000 C 
ATOM     30  C   UNL     1      -6.447  14.352  21.532  0.00  0.00    +0.000 C 
ENDBRANCH   4  25
TORSDOF 4
ENDMDL
MODEL 6
REMARK VINA RESULT:      -7.5      2.984      7.722
REMARK  Name = 
REMARK  5 active torsions:
REMARK  status: ('A' for Active; 'I' for Inactive)
REMARK    1  A    between atoms: C_1  and  C_2
REMARK    2  A    between atoms: N_4  and  C_5
REMARK    3  A    between atoms: C_5  and  C_6
REMARK    4  A    between atoms: C_13  and  C_14
REMARK    5  A    between atoms: C_17  and  C_18
REMARK                            x       y       z     vdW  Elec       q    Type
REMARK                         _______ _______ _______ _____ _____    ______ ____
ROOT
ATOM      1  C   UNL     1       2.418   6.642  19.400  0.00  0.00    +0.000 A 
ATOM      2  N   UNL     1       3.331   6.120  18.639  0.00  0.00    +0.000 NA
ATOM      3  N   UNL     1       3.234   4.764  18.463  0.00  0.00    +0.000 N 
ATOM      4  C   UNL     1       4.016   3.917  17.680  0.00  0.00    +0.000 A 
ATOM      5  N   UNL     1       3.538   2.680  17.721  0.00  0.00    +0.000 NA
ATOM      6  C   UNL     1       2.458   2.716  18.560  0.00  0.00    +0.000 A 
ATOM      7  C   UNL     1       2.258   3.987  19.027  0.00  0.00    +0.000 A 
ATOM      8  C   UNL     1       1.290   4.556  19.889  0.00  0.00    +0.000 A 
ATOM      9  O   UNL     1       0.378   3.949  20.438  0.00  0.00    +0.000 OA
ATOM     10  N   UNL     1       1.449   5.908  20.052  0.00  0.00    +0.000 N 
ATOM     11  H   UNL     1       0.753   6.348  20.638  0.00  0.00    +0.000 HD
ENDROOT
BRANCH   1  17
ATOM     12  C   UNL     1       1.504   8.801  21.980  0.00  0.00    +0.000 C 
ATOM     13  C   UNL     1       1.148   8.594  20.510  0.00  0.00    +0.000 C 
ATOM     14  C   UNL     1       0.701   9.890  19.833  0.00  0.00    +0.000 C 
ATOM     15  N   UNL     1       0.990   9.707  18.398  0.00  0.00    +0.000 NA
ATOM     16  C   UNL     1       2.253   8.947  18.374  0.00  0.00    +0.000 C 
ATOM     17  C   UNL     1       2.348   8.142  19.675  0.00  0.00    +0.000 C 
BRANCH  15  18
ATOM     18  C   UNL     1      -0.129   9.015  17.732  0.00  0.00    +0.000 C 
BRANCH  18  19
ATOM     19  C   UNL     1      -1.361   9.863  17.484  0.00  0.00    +0.000 A 
ATOM     20  C   UNL     1      -2.133   9.644  16.335  0.00  0.00    +0.000 A 
ATOM     21  C   UNL     1      -3.320  10.340  16.109  0.00  0.00    +0.000 A 
ATOM     22  C   UNL     1      -3.747  11.287  17.032  0.00  0.00    +0.000 A 
ATOM     23  C   UNL     1      -2.983  11.534  18.173  0.00  0.00    +0.000 A 
ATOM     24  C   UNL     1      -1.796  10.826  18.402  0.00  0.00    +0.000 A 
ENDBRANCH  18  19
ENDBRANCH  15  18
ENDBRANCH   1  17
BRANCH   4  25
ATOM     25  C   UNL     1       5.154   4.404  16.958  0.00  0.00    +0.000 C 
ATOM     26  C   UNL     1       5.040   4.482  15.618  0.00  0.00    +0.000 C 
ATOM     27  C   UNL     1       6.142   4.937  14.708  0.00  0.00    +0.000 C 
ATOM     28  O   UNL     1       7.211   5.565  15.416  0.00  0.00    +0.000 OA
ATOM     29  C   UNL     1       7.621   4.781  16.532  0.00  0.00    +0.000 C 
ATOM     30  C   UNL     1       6.500   4.732  17.566  0.00  0.00    +0.000 C 
ENDBRANCH   4  25
TORSDOF 4
ENDMDL
MODEL 7
REMARK VINA RESULT:      -7.5      9.827     12.782
REMARK  Name = 
REMARK  5 active torsions:
REMARK  status: ('A' for Active; 'I' for Inactive)
REMARK    1  A    between atoms: C_1  and  C_2
REMARK    2  A    between atoms: N_4  and  C_5
REMARK    3  A    between atoms: C_5  and  C_6
REMARK    4  A    between atoms: C_13  and  C_14
REMARK    5  A    between atoms: C_17  and  C_18
REMARK                            x       y       z     vdW  Elec       q    Type
REMARK                         _______ _______ _______ _____ _____    ______ ____
ROOT
ATOM      1  C   UNL     1      -6.571  12.553  21.353  0.00  0.00    +0.000 A 
ATOM      2  N   UNL     1      -5.301  12.386  21.568  0.00  0.00    +0.000 NA
ATOM      3  N   UNL     1      -4.803  13.055  22.656  0.00  0.00    +0.000 N 
ATOM      4  C   UNL     1      -3.513  13.051  23.181  0.00  0.00    +0.000 A 
ATOM      5  N   UNL     1      -3.466  13.771  24.294  0.00  0.00    +0.000 NA
ATOM      6  C   UNL     1      -4.725  14.272  24.478  0.00  0.00    +0.000 A 
ATOM      7  C   UNL     1      -5.560  13.845  23.480  0.00  0.00    +0.000 A 
ATOM      8  C   UNL     1      -6.934  14.056  23.216  0.00  0.00    +0.000 A 
ATOM      9  O   UNL     1      -7.694  14.739  23.892  0.00  0.00    +0.000 OA
ATOM     10  N   UNL     1      -7.374  13.387  22.103  0.00  0.00    +0.000 N 
ATOM     11  H   UNL     1      -8.359  13.493  21.907  0.00  0.00    +0.000 HD
ENDROOT
BRANCH   1  17
ATOM     12  C   UNL     1      -7.358   9.315  20.329  0.00  0.00    +0.000 C 
ATOM     13  C   UNL     1      -6.668  10.542  19.740  0.00  0.00    +0.000 C 
ATOM     14  C   UNL     1      -6.792  10.604  18.217  0.00  0.00    +0.000 C 
ATOM     15  N   UNL     1      -6.668  12.031  17.867  0.00  0.00    +0.000 NA
ATOM     16  C   UNL     1      -7.362  12.737  18.959  0.00  0.00    +0.000 C 
ATOM     17  C   UNL     1      -7.301  11.853  20.210  0.00  0.00    +0.000 C 
BRANCH  15  18
ATOM     18  C   UNL     1      -5.248  12.405  17.730  0.00  0.00    +0.000 C 
BRANCH  18  19
ATOM     19  C   UNL     1      -4.362  11.362  17.076  0.00  0.00    +0.000 A 
ATOM     20  C   UNL     1      -4.326  11.262  15.679  0.00  0.00    +0.000 A 
ATOM     21  C   UNL     1      -3.463  10.378  15.032  0.00  0.00    +0.000 A 
ATOM     22  C   UNL     1      -2.627   9.561  15.784  0.00  0.00    +0.000 A 
ATOM     23  C   UNL     1      -2.662   9.631  17.177  0.00  0.00    +0.000 A 
ATOM     24  C   UNL     1      -3.523  10.527  17.823  0.00  0.00    +0.000 A 
ENDBRANCH  18  19
ENDBRANCH  15  18
ENDBRANCH   1  17
BRANCH   4  25
ATOM     25  C   UNL     1      -2.448  12.333  22.544  0.00  0.00    +0.000 C 
ATOM     26  C   UNL     1      -1.883  11.331  23.244  0.00  0.00    +0.000 C 
ATOM     27  C   UNL     1      -0.738  10.500  22.745  0.00  0.00    +0.000 C 
ATOM     28  O   UNL     1      -0.509  10.671  21.345  0.00  0.00    +0.000 OA
ATOM     29  C   UNL     1      -0.465  12.051  20.995  0.00  0.00    +0.000 C 
ATOM     30  C   UNL     1      -1.841  12.678  21.203  0.00  0.00    +0.000 C 
ENDBRANCH   4  25
TORSDOF 4
ENDMDL
MODEL 8
REMARK VINA RESULT:      -7.5      7.858     12.196
REMARK  Name = 
REMARK  5 active torsions:
REMARK  status: ('A' for Active; 'I' for Inactive)
REMARK    1  A    between atoms: C_1  and  C_2
REMARK    2  A    between atoms: N_4  and  C_5
REMARK    3  A    between atoms: C_5  and  C_6
REMARK    4  A    between atoms: C_13  and  C_14
REMARK    5  A    between atoms: C_17  and  C_18
REMARK                            x       y       z     vdW  Elec       q    Type
REMARK                         _______ _______ _______ _____ _____    ______ ____
ROOT
ATOM      1  C   UNL     1      -1.618  11.612  18.552  0.00  0.00    +0.000 A 
ATOM      2  N   UNL     1      -2.722  12.007  19.110  0.00  0.00    +0.000 NA
ATOM      3  N   UNL     1      -3.843  11.884  18.331  0.00  0.00    +0.000 N 
ATOM      4  C   UNL     1      -5.170  12.168  18.642  0.00  0.00    +0.000 A 
ATOM      5  N   UNL     1      -5.963  11.832  17.632  0.00  0.00    +0.000 NA
ATOM      6  C   UNL     1      -5.143  11.355  16.646  0.00  0.00    +0.000 A 
ATOM      7  C   UNL     1      -3.837  11.382  17.057  0.00  0.00    +0.000 A 
ATOM      8  C   UNL     1      -2.625  10.992  16.439  0.00  0.00    +0.000 A 
ATOM      9  O   UNL     1      -2.514  10.530  15.310  0.00  0.00    +0.000 OA
ATOM     10  N   UNL     1      -1.533  11.161  17.251  0.00  0.00    +0.000 N 
ATOM     11  H   UNL     1      -0.656  10.861  16.849  0.00  0.00    +0.000 HD
ENDROOT
BRANCH   1  17
ATOM     12  C   UNL     1       1.162   9.564  19.027  0.00  0.00    +0.000 C 
ATOM     13  C   UNL     1       0.153  10.306  19.899  0.00  0.00    +0.000 C 
ATOM     14  C   UNL     1       0.736  10.701  21.256  0.00  0.00    +0.000 C 
ATOM     15  N   UNL     1      -0.046  11.871  21.699  0.00  0.00    +0.000 NA
ATOM     16  C   UNL     1      -0.305  12.626  20.460  0.00  0.00    +0.000 C 
ATOM     17  C   UNL     1      -0.280  11.640  19.287  0.00  0.00    +0.000 C 
BRANCH  15  18
ATOM     18  C   UNL     1      -1.272  11.436  22.392  0.00  0.00    +0.000 C 
BRANCH  18  19
ATOM     19  C   UNL     1      -1.916  12.478  23.286  0.00  0.00    +0.000 A 
ATOM     20  C   UNL     1      -1.268  13.701  23.504  0.00  0.00    +0.000 A 
ATOM     21  C   UNL     1      -1.863  14.719  24.248  0.00  0.00    +0.000 A 
ATOM     22  C   UNL     1      -3.121  14.520  24.804  0.00  0.00    +0.000 A 
ATOM     23  C   UNL     1      -3.775  13.303  24.615  0.00  0.00    +0.000 A 
ATOM     24  C   UNL     1      -3.179  12.284  23.859  0.00  0.00    +0.000 A 
ENDBRANCH  18  19
ENDBRANCH  15  18
ENDBRANCH   1  17
BRANCH   4  25
ATOM     25  C   UNL     1      -5.538  12.737  19.905  0.00  0.00    +0.000 C 
ATOM     26  C   UNL     1      -4.887  13.853  20.285  0.00  0.00    +0.000 C 
ATOM     27  C   UNL     1      -5.121  14.559  21.587  0.00  0.00    +0.000 C 
ATOM     28  O   UNL     1      -6.309  14.113  22.244  0.00  0.00    +0.000 OA
ATOM     29  C   UNL     1      -6.364  12.690  22.298  0.00  0.00    +0.000 C 
ATOM     30  C   UNL     1      -6.513  12.128  20.887  0.00  0.00    +0.000 C 
ENDBRANCH   4  25
TORSDOF 4
ENDMDL
MODEL 9
REMARK VINA RESULT:      -7.4      8.514     10.978
REMARK  Name = 
REMARK  5 active torsions:
REMARK  status: ('A' for Active; 'I' for Inactive)
REMARK    1  A    between atoms: C_1  and  C_2
REMARK    2  A    between atoms: N_4  and  C_5
REMARK    3  A    between atoms: C_5  and  C_6
REMARK    4  A    between atoms: C_13  and  C_14
REMARK    5  A    between atoms: C_17  and  C_18
REMARK                            x       y       z     vdW  Elec       q    Type
REMARK                         _______ _______ _______ _____ _____    ______ ____
ROOT
ATOM      1  C   UNL     1      -1.506  10.983  18.490  0.00  0.00    +0.000 A 
ATOM      2  N   UNL     1      -2.543  11.402  19.151  0.00  0.00    +0.000 NA
ATOM      3  N   UNL     1      -3.671  11.599  18.398  0.00  0.00    +0.000 N 
ATOM      4  C   UNL     1      -4.944  11.993  18.801  0.00  0.00    +0.000 A 
ATOM      5  N   UNL     1      -5.778  11.987  17.769  0.00  0.00    +0.000 NA
ATOM      6  C   UNL     1      -5.035  11.617  16.682  0.00  0.00    +0.000 A 
ATOM      7  C   UNL     1      -3.738  11.377  17.048  0.00  0.00    +0.000 A 
ATOM      8  C   UNL     1      -2.594  10.961  16.326  0.00  0.00    +0.000 A 
ATOM      9  O   UNL     1      -2.552  10.733  15.123  0.00  0.00    +0.000 OA
ATOM     10  N   UNL     1      -1.488  10.805  17.122  0.00  0.00    +0.000 N 
ATOM     11  H   UNL     1      -0.663  10.477  16.640  0.00  0.00    +0.000 HD
ENDROOT
BRANCH   1  17
ATOM     12  C   UNL     1      -0.341   9.741  21.531  0.00  0.00    +0.000 C 
ATOM     13  C   UNL     1      -0.127  10.983  20.670  0.00  0.00    +0.000 C 
ATOM     14  C   UNL     1       1.259  11.596  20.868  0.00  0.00    +0.000 C 
ATOM     15  N   UNL     1       1.552  12.326  19.620  0.00  0.00    +0.000 NA
ATOM     16  C   UNL     1       0.970  11.484  18.559  0.00  0.00    +0.000 C 
ATOM     17  C   UNL     1      -0.177  10.672  19.172  0.00  0.00    +0.000 C 
BRANCH  15  18
ATOM     18  C   UNL     1       0.982  13.685  19.674  0.00  0.00    +0.000 C 
BRANCH  18  19
ATOM     19  C   UNL     1       1.700  14.724  18.834  0.00  0.00    +0.000 A 
ATOM     20  C   UNL     1       1.178  16.021  18.740  0.00  0.00    +0.000 A 
ATOM     21  C   UNL     1       1.849  17.030  18.050  0.00  0.00    +0.000 A 
ATOM     22  C   UNL     1       3.057  16.748  17.425  0.00  0.00    +0.000 A 
ATOM     23  C   UNL     1       3.585  15.458  17.490  0.00  0.00    +0.000 A 
ATOM     24  C   UNL     1       2.913  14.449  18.192  0.00  0.00    +0.000 A 
ENDBRANCH  18  19
ENDBRANCH  15  18
ENDBRANCH   1  17
BRANCH   4  25
ATOM     25  C   UNL     1      -5.226  12.331  20.166  0.00  0.00    +0.000 C 
ATOM     26  C   UNL     1      -6.429  11.967  20.649  0.00  0.00    +0.000 C 
ATOM     27  C   UNL     1      -6.901  12.269  22.040  0.00  0.00    +0.000 C 
ATOM     28  O   UNL     1      -5.841  12.706  22.893  0.00  0.00    +0.000 OA
ATOM     29  C   UNL     1      -5.068  13.728  22.271  0.00  0.00    +0.000 C 
ATOM     30  C   UNL     1      -4.330  13.153  21.065  0.00  0.00    +0.000 C 
ENDBRANCH   4  25
TORSDOF 4
ENDMDL
