MODEL 1
REMARK VINA RESULT:      -7.7      0.000      0.000
REMARK  Name = 
REMARK  4 active torsions:
REMARK  status: ('A' for Active; 'I' for Inactive)
REMARK    1  A    between atoms: C_1  and  N_2
REMARK    2  A    between atoms: N_16  and  C_17
REMARK    3  A    between atoms: C_19  and  C_20
REMARK    4  A    between atoms: C_20  and  C_21
REMARK                            x       y       z     vdW  Elec       q    Type
REMARK                         _______ _______ _______ _____ _____    ______ ____
ROOT
ATOM      1  C   UNL     1      -0.314  13.403  17.946  0.00  0.00    +0.000 C 
ATOM      2  N   UNL     1      -0.408  12.072  18.542  0.00  0.00    +0.000 NA
ATOM      3  C   UNL     1       0.940  11.454  18.613  0.00  0.00    +0.000 C 
ATOM      4  N   UNL     1       0.901  10.275  19.473  0.00  0.00    +0.000 N 
ATOM      5  C   UNL     1       0.243  10.319  20.662  0.00  0.00    +0.000 A 
ATOM      6  C   UNL     1       0.265   9.095  21.251  0.00  0.00    +0.000 A 
ATOM      7  C   UNL     1       1.118   8.281  20.469  0.00  0.00    +0.000 A 
ATOM      8  C   UNL     1       1.587   6.962  20.604  0.00  0.00    +0.000 A 
ATOM      9  C   UNL     1       2.475   6.448  19.658  0.00  0.00    +0.000 A 
ATOM     10  C   UNL     1       2.880   7.230  18.580  0.00  0.00    +0.000 A 
ATOM     11 BR   UNL     1       4.097   6.501  17.325  0.00  0.00    +0.000 Br
ATOM     12  C   UNL     1       2.415   8.540  18.400  0.00  0.00    +0.000 A 
ATOM     13  C   UNL     1       1.529   9.054  19.360  0.00  0.00    +0.000 A 
ATOM     14  C   UNL     1      -0.511   8.869  22.487  0.00  0.00    +0.000 C 
ATOM     15  C   UNL     1      -0.738  10.225  23.205  0.00  0.00    +0.000 C 
ATOM     16  N   UNL     1      -1.188  11.360  22.354  0.00  0.00    +0.000 NA
ATOM     17  C   UNL     1      -1.203  12.581  23.164  0.00  0.00    +0.000 C 
ATOM     18  C   UNL     1      -0.435  11.567  21.094  0.00  0.00    +0.000 C 
ATOM     19  C   UNL     1      -1.228  12.094  19.822  0.00  0.00    +0.000 C 
ENDROOT
BRANCH  19  20
ATOM     20  C   UNL     1      -2.540  11.297  19.492  0.00  0.00    +0.000 C 
BRANCH  20  21
ATOM     21  C   UNL     1      -2.795  11.017  18.024  0.00  0.00    +0.000 A 
ATOM     22  C   UNL     1      -3.804  11.691  17.324  0.00  0.00    +0.000 A 
ATOM     23  C   UNL     1      -4.190  11.256  16.054  0.00  0.00    +0.000 A 
ATOM     24  C   UNL     1      -3.534  10.185  15.451  0.00  0.00    +0.000 A 
ATOM     25  C   UNL     1      -2.450   9.587  16.090  0.00  0.00    +0.000 A 
ATOM     26  C   UNL     1      -2.075  10.008  17.367  0.00  0.00    +0.000 A 
ENDBRANCH  20  21
ENDBRANCH  19  20
TORSDOF 2
ENDMDL
MODEL 2
REMARK VINA RESULT:      -7.1      1.065      1.666
REMARK  Name = 
REMARK  4 active torsions:
REMARK  status: ('A' for Active; 'I' for Inactive)
REMARK    1  A    between atoms: C_1  and  N_2
REMARK    2  A    between atoms: N_16  and  C_17
REMARK    3  A    between atoms: C_19  and  C_20
REMARK    4  A    between atoms: C_20  and  C_21
REMARK                            x       y       z     vdW  Elec       q    Type
REMARK                         _______ _______ _______ _____ _____    ______ ____
ROOT
ATOM      1  C   UNL     1      -0.445  13.189  17.847  0.00  0.00    +0.000 C 
ATOM      2  N   UNL     1      -0.492  11.866  18.468  0.00  0.00    +0.000 NA
ATOM      3  C   UNL     1       0.876  11.294  18.543  0.00  0.00    +0.000 C 
ATOM      4  N   UNL     1       0.880  10.131  19.425  0.00  0.00    +0.000 N 
ATOM      5  C   UNL     1       0.226  10.175  20.616  0.00  0.00    +0.000 A 
ATOM      6  C   UNL     1       0.291   8.963  21.227  0.00  0.00    +0.000 A 
ATOM      7  C   UNL     1       1.167   8.164  20.456  0.00  0.00    +0.000 A 
ATOM      8  C   UNL     1       1.680   6.863  20.612  0.00  0.00    +0.000 A 
ATOM      9  C   UNL     1       2.581   6.362  19.671  0.00  0.00    +0.000 A 
ATOM     10  C   UNL     1       2.955   7.137  18.577  0.00  0.00    +0.000 A 
ATOM     11 BR   UNL     1       4.190   6.426  17.330  0.00  0.00    +0.000 Br
ATOM     12  C   UNL     1       2.446   8.427  18.376  0.00  0.00    +0.000 A 
ATOM     13  C   UNL     1       1.548   8.929  19.331  0.00  0.00    +0.000 A 
ATOM     14  C   UNL     1      -0.472   8.734  22.471  0.00  0.00    +0.000 C 
ATOM     15  C   UNL     1      -0.740  10.095  23.165  0.00  0.00    +0.000 C 
ATOM     16  N   UNL     1      -1.231  11.199  22.296  0.00  0.00    +0.000 NA
ATOM     17  C   UNL     1      -1.283  12.433  23.084  0.00  0.00    +0.000 C 
ATOM     18  C   UNL     1      -0.491  11.407  21.028  0.00  0.00    +0.000 C 
ATOM     19  C   UNL     1      -1.307  11.885  19.752  0.00  0.00    +0.000 C 
ENDROOT
BRANCH  19  20
ATOM     20  C   UNL     1      -2.593  11.039  19.442  0.00  0.00    +0.000 C 
BRANCH  20  21
ATOM     21  C   UNL     1      -3.785  11.812  18.916  0.00  0.00    +0.000 A 
ATOM     22  C   UNL     1      -4.548  12.628  19.761  0.00  0.00    +0.000 A 
ATOM     23  C   UNL     1      -5.776  13.136  19.329  0.00  0.00    +0.000 A 
ATOM     24  C   UNL     1      -6.222  12.882  18.034  0.00  0.00    +0.000 A 
ATOM     25  C   UNL     1      -5.413  12.173  17.148  0.00  0.00    +0.000 A 
ATOM     26  C   UNL     1      -4.195  11.649  17.584  0.00  0.00    +0.000 A 
ENDBRANCH  20  21
ENDBRANCH  19  20
TORSDOF 2
ENDMDL
MODEL 3
REMARK VINA RESULT:      -7.1      3.873      6.859
REMARK  Name = 
REMARK  4 active torsions:
REMARK  status: ('A' for Active; 'I' for Inactive)
REMARK    1  A    between atoms: C_1  and  N_2
REMARK    2  A    between atoms: N_16  and  C_17
REMARK    3  A    between atoms: C_19  and  C_20
REMARK    4  A    between atoms: C_20  and  C_21
REMARK                            x       y       z     vdW  Elec       q    Type
REMARK                         _______ _______ _______ _____ _____    ______ ____
ROOT
ATOM      1  C   UNL     1       0.158   9.459  23.389  0.00  0.00    +0.000 C 
ATOM      2  N   UNL     1      -0.554  10.311  22.438  0.00  0.00    +0.000 NA
ATOM      3  C   UNL     1      -1.463  11.231  23.167  0.00  0.00    +0.000 C 
ATOM      4  N   UNL     1      -1.938  12.276  22.266  0.00  0.00    +0.000 N 
ATOM      5  C   UNL     1      -1.071  12.898  21.424  0.00  0.00    +0.000 A 
ATOM      6  C   UNL     1      -1.742  13.769  20.625  0.00  0.00    +0.000 A 
ATOM      7  C   UNL     1      -3.074  13.813  21.098  0.00  0.00    +0.000 A 
ATOM      8  C   UNL     1      -4.205  14.568  20.736  0.00  0.00    +0.000 A 
ATOM      9  C   UNL     1      -5.397  14.404  21.444  0.00  0.00    +0.000 A 
ATOM     10  C   UNL     1      -5.470  13.488  22.489  0.00  0.00    +0.000 A 
ATOM     11 BR   UNL     1      -7.101  13.304  23.434  0.00  0.00    +0.000 Br
ATOM     12  C   UNL     1      -4.371  12.702  22.863  0.00  0.00    +0.000 A 
ATOM     13  C   UNL     1      -3.173  12.878  22.153  0.00  0.00    +0.000 A 
ATOM     14  C   UNL     1      -1.023  14.454  19.532  0.00  0.00    +0.000 C 
ATOM     15  C   UNL     1       0.491  14.499  19.863  0.00  0.00    +0.000 C 
ATOM     16  N   UNL     1       1.103  13.232  20.349  0.00  0.00    +0.000 NA
ATOM     17  C   UNL     1       2.486  13.500  20.751  0.00  0.00    +0.000 C 
ATOM     18  C   UNL     1       0.364  12.521  21.420  0.00  0.00    +0.000 C 
ATOM     19  C   UNL     1       0.398  10.933  21.429  0.00  0.00    +0.000 C 
ENDROOT
BRANCH  19  20
ATOM     20  C   UNL     1       0.045  10.262  20.053  0.00  0.00    +0.000 C 
BRANCH  20  21
ATOM     21  C   UNL     1       1.086   9.317  19.490  0.00  0.00    +0.000 A 
ATOM     22  C   UNL     1       1.570   9.468  18.184  0.00  0.00    +0.000 A 
ATOM     23  C   UNL     1       2.336   8.459  17.595  0.00  0.00    +0.000 A 
ATOM     24  C   UNL     1       2.673   7.321  18.324  0.00  0.00    +0.000 A 
ATOM     25  C   UNL     1       2.299   7.218  19.662  0.00  0.00    +0.000 A 
ATOM     26  C   UNL     1       1.518   8.216  20.246  0.00  0.00    +0.000 A 
ENDBRANCH  20  21
ENDBRANCH  19  20
TORSDOF 2
ENDMDL
MODEL 4
REMARK VINA RESULT:      -6.9      1.339      2.153
REMARK  Name = 
REMARK  4 active torsions:
REMARK  status: ('A' for Active; 'I' for Inactive)
REMARK    1  A    between atoms: C_1  and  N_2
REMARK    2  A    between atoms: N_16  and  C_17
REMARK    3  A    between atoms: C_19  and  C_20
REMARK    4  A    between atoms: C_20  and  C_21
REMARK                            x       y       z     vdW  Elec       q    Type
REMARK                         _______ _______ _______ _____ _____    ______ ____
ROOT
ATOM      1  C   UNL     1      -0.373  13.369  17.878  0.00  0.00    +0.000 C 
ATOM      2  N   UNL     1      -0.462  12.047  18.497  0.00  0.00    +0.000 NA
ATOM      3  C   UNL     1       0.889  11.436  18.580  0.00  0.00    +0.000 C 
ATOM      4  N   UNL     1       0.854  10.272  19.460  0.00  0.00    +0.000 N 
ATOM      5  C   UNL     1       0.195  10.333  20.647  0.00  0.00    +0.000 A 
ATOM      6  C   UNL     1       0.222   9.120  21.258  0.00  0.00    +0.000 A 
ATOM      7  C   UNL     1       1.079   8.297  20.490  0.00  0.00    +0.000 A 
ATOM      8  C   UNL     1       1.554   6.982  20.648  0.00  0.00    +0.000 A 
ATOM      9  C   UNL     1       2.445   6.456  19.711  0.00  0.00    +0.000 A 
ATOM     10  C   UNL     1       2.847   7.221  18.621  0.00  0.00    +0.000 A 
ATOM     11 BR   UNL     1       4.069   6.476  17.379  0.00  0.00    +0.000 Br
ATOM     12  C   UNL     1       2.377   8.525  18.418  0.00  0.00    +0.000 A 
ATOM     13  C   UNL     1       1.488   9.052  19.368  0.00  0.00    +0.000 A 
ATOM     14  C   UNL     1      -0.554   8.912  22.497  0.00  0.00    +0.000 C 
ATOM     15  C   UNL     1      -0.788  10.279  23.191  0.00  0.00    +0.000 C 
ATOM     16  N   UNL     1      -1.241  11.398  22.320  0.00  0.00    +0.000 NA
ATOM     17  C   UNL     1      -1.262  12.631  23.110  0.00  0.00    +0.000 C 
ATOM     18  C   UNL     1      -0.488  11.586  21.057  0.00  0.00    +0.000 C 
ATOM     19  C   UNL     1      -1.283  12.088  19.776  0.00  0.00    +0.000 C 
ENDROOT
BRANCH  19  20
ATOM     20  C   UNL     1      -2.591  11.279  19.458  0.00  0.00    +0.000 C 
BRANCH  20  21
ATOM     21  C   UNL     1      -3.884  12.069  19.492  0.00  0.00    +0.000 A 
ATOM     22  C   UNL     1      -4.848  11.923  18.486  0.00  0.00    +0.000 A 
ATOM     23  C   UNL     1      -5.912  12.823  18.394  0.00  0.00    +0.000 A 
ATOM     24  C   UNL     1      -6.053  13.839  19.338  0.00  0.00    +0.000 A 
ATOM     25  C   UNL     1      -5.167  13.917  20.410  0.00  0.00    +0.000 A 
ATOM     26  C   UNL     1      -4.093  13.030  20.493  0.00  0.00    +0.000 A 
ENDBRANCH  20  21
ENDBRANCH  19  20
TORSDOF 2
ENDMDL
MODEL 5
REMARK VINA RESULT:      -6.8      7.999     10.884
REMARK  Name = 
REMARK  4 active torsions:
REMARK  status: ('A' for Active; 'I' for Inactive)
REMARK    1  A    between atoms: C_1  and  N_2
REMARK    2  A    between atoms: N_16  and  C_17
REMARK    3  A    between atoms: C_19  and  C_20
REMARK    4  A    between atoms: C_20  and  C_21
REMARK                            x       y       z     vdW  Elec       q    Type
REMARK                         _______ _______ _______ _____ _____    ______ ____
ROOT
ATOM      1  C   UNL     1       7.815  13.579  24.054  0.00  0.00    +0.000 C 
ATOM      2  N   UNL     1       7.422  13.536  22.646  0.00  0.00    +0.000 NA
ATOM      3  C   UNL     1       6.384  14.563  22.379  0.00  0.00    +0.000 C 
ATOM      4  N   UNL     1       6.213  14.735  20.940  0.00  0.00    +0.000 N 
ATOM      5  C   UNL     1       7.300  14.815  20.128  0.00  0.00    +0.000 A 
ATOM      6  C   UNL     1       6.908  14.888  18.830  0.00  0.00    +0.000 A 
ATOM      7  C   UNL     1       5.500  15.021  18.837  0.00  0.00    +0.000 A 
ATOM      8  C   UNL     1       4.540  15.208  17.824  0.00  0.00    +0.000 A 
ATOM      9  C   UNL     1       3.195  15.347  18.169  0.00  0.00    +0.000 A 
ATOM     10  C   UNL     1       2.804  15.284  19.504  0.00  0.00    +0.000 A 
ATOM     11 BR   UNL     1       0.970  15.491  19.932  0.00  0.00    +0.000 Br
ATOM     12  C   UNL     1       3.727  15.075  20.537  0.00  0.00    +0.000 A 
ATOM     13  C   UNL     1       5.080  14.945  20.184  0.00  0.00    +0.000 A 
ATOM     14  C   UNL     1       7.924  14.839  17.759  0.00  0.00    +0.000 C 
ATOM     15  C   UNL     1       9.290  15.303  18.327  0.00  0.00    +0.000 C 
ATOM     16  N   UNL     1       9.697  14.723  19.636  0.00  0.00    +0.000 NA
ATOM     17  C   UNL     1      10.926  15.383  20.083  0.00  0.00    +0.000 C 
ATOM     18  C   UNL     1       8.667  14.735  20.702  0.00  0.00    +0.000 C 
ATOM     19  C   UNL     1       8.637  13.526  21.731  0.00  0.00    +0.000 C 
ENDROOT
BRANCH  19  20
ATOM     20  C   UNL     1       8.649  12.101  21.070  0.00  0.00    +0.000 C 
BRANCH  20  21
ATOM     21  C   UNL     1       9.789  11.825  20.111  0.00  0.00    +0.000 A 
ATOM     22  C   UNL     1      11.123  11.894  20.534  0.00  0.00    +0.000 A 
ATOM     23  C   UNL     1      12.160  11.881  19.598  0.00  0.00    +0.000 A 
ATOM     24  C   UNL     1      11.877  11.741  18.240  0.00  0.00    +0.000 A 
ATOM     25  C   UNL     1      10.561  11.551  17.823  0.00  0.00    +0.000 A 
ATOM     26  C   UNL     1       9.523  11.583  18.755  0.00  0.00    +0.000 A 
ENDBRANCH  20  21
ENDBRANCH  19  20
TORSDOF 2
ENDMDL
MODEL 6
REMARK VINA RESULT:      -6.6      3.514      7.003
REMARK  Name = 
REMARK  4 active torsions:
REMARK  status: ('A' for Active; 'I' for Inactive)
REMARK    1  A    between atoms: C_1  and  N_2
REMARK    2  A    between atoms: N_16  and  C_17
REMARK    3  A    between atoms: C_19  and  C_20
REMARK    4  A    between atoms: C_20  and  C_21
REMARK                            x       y       z     vdW  Elec       q    Type
REMARK                         _______ _______ _______ _____ _____    ______ ____
ROOT
ATOM      1  C   UNL     1       1.249  12.559  18.897  0.00  0.00    +0.000 C 
ATOM      2  N   UNL     1      -0.083  12.213  19.389  0.00  0.00    +0.000 NA
ATOM      3  C   UNL     1      -0.804  13.442  19.805  0.00  0.00    +0.000 C 
ATOM      4  N   UNL     1      -2.219  13.145  20.003  0.00  0.00    +0.000 N 
ATOM      5  C   UNL     1      -2.890  12.382  19.100  0.00  0.00    +0.000 A 
ATOM      6  C   UNL     1      -4.162  12.166  19.525  0.00  0.00    +0.000 A 
ATOM      7  C   UNL     1      -4.348  12.967  20.676  0.00  0.00    +0.000 A 
ATOM      8  C   UNL     1      -5.453  13.224  21.508  0.00  0.00    +0.000 A 
ATOM      9  C   UNL     1      -5.321  14.120  22.570  0.00  0.00    +0.000 A 
ATOM     10  C   UNL     1      -4.100  14.742  22.814  0.00  0.00    +0.000 A 
ATOM     11 BR   UNL     1      -3.966  15.963  24.255  0.00  0.00    +0.000 Br
ATOM     12  C   UNL     1      -2.971  14.493  22.021  0.00  0.00    +0.000 A 
ATOM     13  C   UNL     1      -3.113  13.598  20.949  0.00  0.00    +0.000 A 
ATOM     14  C   UNL     1      -5.034  11.242  18.772  0.00  0.00    +0.000 C 
ATOM     15  C   UNL     1      -4.531  11.142  17.308  0.00  0.00    +0.000 C 
ATOM     16  N   UNL     1      -3.067  10.952  17.120  0.00  0.00    +0.000 NA
ATOM     17  C   UNL     1      -2.761  11.031  15.689  0.00  0.00    +0.000 C 
ATOM     18  C   UNL     1      -2.188  11.852  17.904  0.00  0.00    +0.000 C 
ATOM     19  C   UNL     1      -0.803  11.278  18.431  0.00  0.00    +0.000 C 
ENDROOT
BRANCH  19  20
ATOM     20  C   UNL     1      -0.908   9.905  19.186  0.00  0.00    +0.000 C 
BRANCH  20  21
ATOM     21  C   UNL     1      -0.322   9.870  20.583  0.00  0.00    +0.000 A 
ATOM     22  C   UNL     1       0.906   9.246  20.838  0.00  0.00    +0.000 A 
ATOM     23  C   UNL     1       1.314   9.005  22.151  0.00  0.00    +0.000 A 
ATOM     24  C   UNL     1       0.529   9.436  23.219  0.00  0.00    +0.000 A 
ATOM     25  C   UNL     1      -0.633  10.164  22.975  0.00  0.00    +0.000 A 
ATOM     26  C   UNL     1      -1.052  10.389  21.663  0.00  0.00    +0.000 A 
ENDBRANCH  20  21
ENDBRANCH  19  20
TORSDOF 2
ENDMDL
MODEL 7
REMARK VINA RESULT:      -6.6      3.541      6.843
REMARK  Name = 
REMARK  4 active torsions:
REMARK  status: ('A' for Active; 'I' for Inactive)
REMARK    1  A    between atoms: C_1  and  N_2
REMARK    2  A    between atoms: N_16  and  C_17
REMARK    3  A    between atoms: C_19  and  C_20
REMARK    4  A    between atoms: C_20  and  C_21
REMARK                            x       y       z     vdW  Elec       q    Type
REMARK                         _______ _______ _______ _____ _____    ______ ____
ROOT
ATOM      1  C   UNL     1       1.382  12.937  18.980  0.00  0.00    +0.000 C 
ATOM      2  N   UNL     1       0.082  12.545  19.523  0.00  0.00    +0.000 NA
ATOM      3  C   UNL     1      -0.684  13.752  19.923  0.00  0.00    +0.000 C 
ATOM      4  N   UNL     1      -2.077  13.395  20.174  0.00  0.00    +0.000 N 
ATOM      5  C   UNL     1      -2.736  12.574  19.315  0.00  0.00    +0.000 A 
ATOM      6  C   UNL     1      -3.984  12.313  19.786  0.00  0.00    +0.000 A 
ATOM      7  C   UNL     1      -4.173  13.140  20.918  0.00  0.00    +0.000 A 
ATOM      8  C   UNL     1      -5.265  13.371  21.775  0.00  0.00    +0.000 A 
ATOM      9  C   UNL     1      -5.144  14.306  22.805  0.00  0.00    +0.000 A 
ATOM     10  C   UNL     1      -3.948  14.991  22.992  0.00  0.00    +0.000 A 
ATOM     11 BR   UNL     1      -3.829  16.262  24.392  0.00  0.00    +0.000 Br
ATOM     12  C   UNL     1      -2.832  14.770  22.173  0.00  0.00    +0.000 A 
ATOM     13  C   UNL     1      -2.963  13.836  21.134  0.00  0.00    +0.000 A 
ATOM     14  C   UNL     1      -4.833  11.326  19.088  0.00  0.00    +0.000 C 
ATOM     15  C   UNL     1      -4.369  11.204  17.614  0.00  0.00    +0.000 C 
ATOM     16  N   UNL     1      -2.904  11.075  17.386  0.00  0.00    +0.000 NA
ATOM     17  C   UNL     1      -2.644  11.124  15.945  0.00  0.00    +0.000 C 
ATOM     18  C   UNL     1      -2.046  12.040  18.115  0.00  0.00    +0.000 C 
ATOM     19  C   UNL     1      -0.620  11.548  18.616  0.00  0.00    +0.000 C 
ENDROOT
BRANCH  19  20
ATOM     20  C   UNL     1      -0.638  10.196  19.415  0.00  0.00    +0.000 C 
BRANCH  20  21
ATOM     21  C   UNL     1       0.594   9.325  19.272  0.00  0.00    +0.000 A 
ATOM     22  C   UNL     1       1.286   9.244  18.057  0.00  0.00    +0.000 A 
ATOM     23  C   UNL     1       2.261   8.262  17.866  0.00  0.00    +0.000 A 
ATOM     24  C   UNL     1       2.593   7.394  18.904  0.00  0.00    +0.000 A 
ATOM     25  C   UNL     1       1.996   7.546  20.154  0.00  0.00    +0.000 A 
ATOM     26  C   UNL     1       1.008   8.514  20.340  0.00  0.00    +0.000 A 
ENDBRANCH  20  21
ENDBRANCH  19  20
TORSDOF 2
ENDMDL
MODEL 8
REMARK VINA RESULT:      -6.5      2.176      3.785
REMARK  Name = 
REMARK  4 active torsions:
REMARK  status: ('A' for Active; 'I' for Inactive)
REMARK    1  A    between atoms: C_1  and  N_2
REMARK    2  A    between atoms: N_16  and  C_17
REMARK    3  A    between atoms: C_19  and  C_20
REMARK    4  A    between atoms: C_20  and  C_21
REMARK                            x       y       z     vdW  Elec       q    Type
REMARK                         _______ _______ _______ _____ _____    ______ ____
ROOT
ATOM      1  C   UNL     1       2.440  11.353  17.661  0.00  0.00    +0.000 C 
ATOM      2  N   UNL     1       2.208   9.909  17.667  0.00  0.00    +0.000 NA
ATOM      3  C   UNL     1       3.503   9.189  17.592  0.00  0.00    +0.000 C 
ATOM      4  N   UNL     1       3.306   7.777  17.904  0.00  0.00    +0.000 N 
ATOM      5  C   UNL     1       2.525   7.413  18.955  0.00  0.00    +0.000 A 
ATOM      6  C   UNL     1       2.414   6.060  19.007  0.00  0.00    +0.000 A 
ATOM      7  C   UNL     1       3.301   5.541  18.035  0.00  0.00    +0.000 A 
ATOM      8  C   UNL     1       3.680   4.236  17.669  0.00  0.00    +0.000 A 
ATOM      9  C   UNL     1       4.637   4.053  16.670  0.00  0.00    +0.000 A 
ATOM     10  C   UNL     1       5.200   5.153  16.029  0.00  0.00    +0.000 A 
ATOM     11 BR   UNL     1       6.505   4.863  14.688  0.00  0.00    +0.000 Br
ATOM     12  C   UNL     1       4.831   6.466  16.350  0.00  0.00    +0.000 A 
ATOM     13  C   UNL     1       3.874   6.644  17.363  0.00  0.00    +0.000 A 
ATOM     14  C   UNL     1       1.496   5.442  19.985  0.00  0.00    +0.000 C 
ATOM     15  C   UNL     1       1.267   6.423  21.164  0.00  0.00    +0.000 C 
ATOM     16  N   UNL     1       0.976   7.838  20.804  0.00  0.00    +0.000 NA
ATOM     17  C   UNL     1       0.940   8.639  22.030  0.00  0.00    +0.000 C 
ATOM     18  C   UNL     1       1.873   8.450  19.794  0.00  0.00    +0.000 C 
ATOM     19  C   UNL     1       1.255   9.505  18.781  0.00  0.00    +0.000 C 
ENDROOT
BRANCH  19  20
ATOM     20  C   UNL     1      -0.055   9.028  18.057  0.00  0.00    +0.000 C 
BRANCH  20  21
ATOM     21  C   UNL     1      -1.178  10.043  17.982  0.00  0.00    +0.000 A 
ATOM     22  C   UNL     1      -1.308  11.052  18.946  0.00  0.00    +0.000 A 
ATOM     23  C   UNL     1      -2.472  11.821  19.008  0.00  0.00    +0.000 A 
ATOM     24  C   UNL     1      -3.489  11.628  18.075  0.00  0.00    +0.000 A 
ATOM     25  C   UNL     1      -3.316  10.711  17.040  0.00  0.00    +0.000 A 
ATOM     26  C   UNL     1      -2.162   9.928  16.989  0.00  0.00    +0.000 A 
ENDBRANCH  20  21
ENDBRANCH  19  20
TORSDOF 2
ENDMDL
MODEL 9
REMARK VINA RESULT:      -6.5      7.889     10.760
REMARK  Name = 
REMARK  4 active torsions:
REMARK  status: ('A' for Active; 'I' for Inactive)
REMARK    1  A    between atoms: C_1  and  N_2
REMARK    2  A    between atoms: N_16  and  C_17
REMARK    3  A    between atoms: C_19  and  C_20
REMARK    4  A    between atoms: C_20  and  C_21
REMARK                            x       y       z     vdW  Elec       q    Type
REMARK                         _______ _______ _______ _____ _____    ______ ____
ROOT
ATOM      1  C   UNL     1       7.747  14.021  23.975  0.00  0.00    +0.000 C 
ATOM      2  N   UNL     1       7.298  13.885  22.591  0.00  0.00    +0.000 NA
ATOM      3  C   UNL     1       6.144  14.784  22.343  0.00  0.00    +0.000 C 
ATOM      4  N   UNL     1       5.890  14.883  20.909  0.00  0.00    +0.000 N 
ATOM      5  C   UNL     1       6.924  15.050  20.043  0.00  0.00    +0.000 A 
ATOM      6  C   UNL     1       6.467  15.032  18.763  0.00  0.00    +0.000 A 
ATOM      7  C   UNL     1       5.055  15.014  18.835  0.00  0.00    +0.000 A 
ATOM      8  C   UNL     1       4.036  15.060  17.865  0.00  0.00    +0.000 A 
ATOM      9  C   UNL     1       2.701  15.067  18.271  0.00  0.00    +0.000 A 
ATOM     10  C   UNL     1       2.379  15.012  19.624  0.00  0.00    +0.000 A 
ATOM     11 BR   UNL     1       0.556  15.038  20.135  0.00  0.00    +0.000 Br
ATOM     12  C   UNL     1       3.366  14.941  20.617  0.00  0.00    +0.000 A 
ATOM     13  C   UNL     1       4.708  14.944  20.203  0.00  0.00    +0.000 A 
ATOM     14  C   UNL     1       7.433  15.053  17.646  0.00  0.00    +0.000 C 
ATOM     15  C   UNL     1       8.765  15.681  18.132  0.00  0.00    +0.000 C 
ATOM     16  N   UNL     1       9.292  15.196  19.436  0.00  0.00    +0.000 NA
ATOM     17  C   UNL     1      10.461  15.999  19.802  0.00  0.00    +0.000 C 
ATOM     18  C   UNL     1       8.316  15.137  20.551  0.00  0.00    +0.000 C 
ATOM     19  C   UNL     1       8.464  13.970  21.619  0.00  0.00    +0.000 C 
ENDROOT
BRANCH  19  20
ATOM     20  C   UNL     1       8.600  12.532  21.002  0.00  0.00    +0.000 C 
BRANCH  20  21
ATOM     21  C   UNL     1       9.762  12.325  20.052  0.00  0.00    +0.000 A 
ATOM     22  C   UNL     1       9.547  12.044  18.696  0.00  0.00    +0.000 A 
ATOM     23  C   UNL     1      10.604  11.617  17.890  0.00  0.00    +0.000 A 
ATOM     24  C   UNL     1      11.892  11.522  18.414  0.00  0.00    +0.000 A 
ATOM     25  C   UNL     1      12.135  11.916  19.729  0.00  0.00    +0.000 A 
ATOM     26  C   UNL     1      11.077  12.325  20.541  0.00  0.00    +0.000 A 
ENDBRANCH  20  21
ENDBRANCH  19  20
TORSDOF 2
ENDMDL
