MODEL 1
REMARK VINA RESULT:      -6.5      0.000      0.000
REMARK  Name = 
REMARK  4 active torsions:
REMARK  status: ('A' for Active; 'I' for Inactive)
REMARK    1  A    between atoms: C_1  and  C_2
REMARK    2  A    between atoms: C_4  and  C_5
REMARK    3  A    between atoms: N_8  and  C_9
REMARK    4  A    between atoms: C_10  and  C_11
REMARK                            x       y       z     vdW  Elec       q    Type
REMARK                         _______ _______ _______ _____ _____    ______ ____
ROOT
ATOM      1  C   UNL     1       4.486  14.541  18.590  0.00  0.00    +0.000 C 
ATOM      2  C   UNL     1       3.187  14.003  19.054  0.00  0.00    +0.000 A 
ATOM      3  N   UNL     1       2.404  13.176  18.387  0.00  0.00    +0.000 NA
ATOM      4  C   UNL     1       1.283  13.019  19.165  0.00  0.00    +0.000 A 
ATOM      5  C   UNL     1       1.430  13.692  20.356  0.00  0.00    +0.000 A 
ATOM      6  C   UNL     1       0.647  13.870  21.548  0.00  0.00    +0.000 A 
ATOM      7  N   UNL     1      -0.535  13.170  21.736  0.00  0.00    +0.000 N 
ATOM      8  C   UNL     1      -1.431  13.508  22.801  0.00  0.00    +0.000 C 
ATOM      9  C   UNL     1      -1.386  12.063  23.278  0.00  0.00    +0.000 C 
ATOM     10  C   UNL     1      -0.423  11.788  22.133  0.00  0.00    +0.000 C 
ATOM     11  N   UNL     1       1.094  14.739  22.409  0.00  0.00    +0.000 NA
ATOM     12  C   UNL     1       2.269  15.408  22.165  0.00  0.00    +0.000 A 
ATOM     13  N   UNL     1       3.063  15.250  21.151  0.00  0.00    +0.000 NA
ATOM     14  N   UNL     1       2.611  14.361  20.251  0.00  0.00    +0.000 N 
ENDROOT
BRANCH   4  15
ATOM     15  C   UNL     1       0.147  12.277  18.628  0.00  0.00    +0.000 A 
ATOM     16  C   UNL     1      -1.017  12.884  18.120  0.00  0.00    +0.000 A 
ATOM     17  N   UNL     1      -1.901  11.999  17.672  0.00  0.00    +0.000 NA
ATOM     18  N   UNL     1      -1.251  10.822  17.789  0.00  0.00    +0.000 N 
ATOM     19  C   UNL     1      -1.916   9.644  17.275  0.00  0.00    +0.000 C 
ATOM     20  C   UNL     1      -0.017  10.915  18.405  0.00  0.00    +0.000 A 
BRANCH  20  21
ATOM     21  C   UNL     1       0.843   9.762  18.684  0.00  0.00    +0.000 A 
ATOM     22  C   UNL     1       0.910   9.148  19.932  0.00  0.00    +0.000 A 
ATOM     23  C   UNL     1       1.727   8.028  20.098  0.00  0.00    +0.000 A 
ATOM     24  C   UNL     1       2.451   7.553  19.013  0.00  0.00    +0.000 A 
ATOM     25 BR   UNL     1       3.544   6.029  19.173  0.00  0.00    +0.000 Br
ATOM     26  C   UNL     1       2.335   8.219  17.807  0.00  0.00    +0.000 A 
ATOM     27  N   UNL     1       1.545   9.305  17.619  0.00  0.00    +0.000 NA
ENDBRANCH  20  21
ENDBRANCH   4  15
TORSDOF 2
ENDMDL
MODEL 2
REMARK VINA RESULT:      -6.3      3.744      7.292
REMARK  Name = 
REMARK  4 active torsions:
REMARK  status: ('A' for Active; 'I' for Inactive)
REMARK    1  A    between atoms: C_1  and  C_2
REMARK    2  A    between atoms: C_4  and  C_5
REMARK    3  A    between atoms: N_8  and  C_9
REMARK    4  A    between atoms: C_10  and  C_11
REMARK                            x       y       z     vdW  Elec       q    Type
REMARK                         _______ _______ _______ _____ _____    ______ ____
ROOT
ATOM      1  C   UNL     1      -6.470  12.245  17.960  0.00  0.00    +0.000 C 
ATOM      2  C   UNL     1      -5.158  12.214  18.645  0.00  0.00    +0.000 A 
ATOM      3  N   UNL     1      -4.895  12.694  19.847  0.00  0.00    +0.000 NA
ATOM      4  C   UNL     1      -3.545  12.517  20.029  0.00  0.00    +0.000 A 
ATOM      5  C   UNL     1      -3.002  11.843  18.959  0.00  0.00    +0.000 A 
ATOM      6  C   UNL     1      -1.701  11.352  18.597  0.00  0.00    +0.000 A 
ATOM      7  N   UNL     1      -0.643  11.408  19.491  0.00  0.00    +0.000 N 
ATOM      8  C   UNL     1       0.697  11.138  19.065  0.00  0.00    +0.000 C 
ATOM      9  C   UNL     1       0.817  10.087  20.161  0.00  0.00    +0.000 C 
ATOM     10  C   UNL     1      -0.618  10.418  20.539  0.00  0.00    +0.000 C 
ATOM     11  N   UNL     1      -1.575  10.891  17.386  0.00  0.00    +0.000 NA
ATOM     12  C   UNL     1      -2.658  10.867  16.540  0.00  0.00    +0.000 A 
ATOM     13  N   UNL     1      -3.873  11.225  16.817  0.00  0.00    +0.000 NA
ATOM     14  N   UNL     1      -4.018  11.710  18.062  0.00  0.00    +0.000 N 
ENDROOT
BRANCH   4  15
ATOM     15  C   UNL     1      -2.909  13.091  21.210  0.00  0.00    +0.000 A 
ATOM     16  C   UNL     1      -2.976  12.517  22.494  0.00  0.00    +0.000 A 
ATOM     17  N   UNL     1      -2.303  13.215  23.402  0.00  0.00    +0.000 NA
ATOM     18  N   UNL     1      -1.706  14.181  22.673  0.00  0.00    +0.000 N 
ATOM     19  C   UNL     1      -0.794  15.066  23.365  0.00  0.00    +0.000 C 
ATOM     20  C   UNL     1      -2.069  14.190  21.339  0.00  0.00    +0.000 A 
BRANCH  20  21
ATOM     21  C   UNL     1      -1.586  15.178  20.370  0.00  0.00    +0.000 A 
ATOM     22  C   UNL     1      -0.535  14.928  19.490  0.00  0.00    +0.000 A 
ATOM     23  C   UNL     1      -0.167  15.913  18.572  0.00  0.00    +0.000 A 
ATOM     24  C   UNL     1      -0.859  17.117  18.558  0.00  0.00    +0.000 A 
ATOM     25 BR   UNL     1      -0.423  18.467  17.319  0.00  0.00    +0.000 Br
ATOM     26  C   UNL     1      -1.887  17.291  19.464  0.00  0.00    +0.000 A 
ATOM     27  N   UNL     1      -2.268  16.349  20.362  0.00  0.00    +0.000 NA
ENDBRANCH  20  21
ENDBRANCH   4  15
TORSDOF 2
ENDMDL
MODEL 3
REMARK VINA RESULT:      -6.3      4.399      7.229
REMARK  Name = 
REMARK  4 active torsions:
REMARK  status: ('A' for Active; 'I' for Inactive)
REMARK    1  A    between atoms: C_1  and  C_2
REMARK    2  A    between atoms: C_4  and  C_5
REMARK    3  A    between atoms: N_8  and  C_9
REMARK    4  A    between atoms: C_10  and  C_11
REMARK                            x       y       z     vdW  Elec       q    Type
REMARK                         _______ _______ _______ _____ _____    ______ ____
ROOT
ATOM      1  C   UNL     1      -5.269  10.579  17.766  0.00  0.00    +0.000 C 
ATOM      2  C   UNL     1      -5.311  11.470  18.947  0.00  0.00    +0.000 A 
ATOM      3  N   UNL     1      -4.465  12.446  19.218  0.00  0.00    +0.000 NA
ATOM      4  C   UNL     1      -4.846  12.937  20.443  0.00  0.00    +0.000 A 
ATOM      5  C   UNL     1      -5.989  12.306  20.877  0.00  0.00    +0.000 A 
ATOM      6  C   UNL     1      -6.855  12.403  22.020  0.00  0.00    +0.000 A 
ATOM      7  N   UNL     1      -6.682  13.405  22.962  0.00  0.00    +0.000 N 
ATOM      8  C   UNL     1      -7.385  13.373  24.210  0.00  0.00    +0.000 C 
ATOM      9  C   UNL     1      -7.914  14.773  23.931  0.00  0.00    +0.000 C 
ATOM     10  C   UNL     1      -7.155  14.722  22.614  0.00  0.00    +0.000 C 
ATOM     11  N   UNL     1      -7.774  11.487  22.127  0.00  0.00    +0.000 NA
ATOM     12  C   UNL     1      -7.893  10.514  21.164  0.00  0.00    +0.000 A 
ATOM     13  N   UNL     1      -7.199  10.403  20.075  0.00  0.00    +0.000 NA
ATOM     14  N   UNL     1      -6.242  11.338  19.953  0.00  0.00    +0.000 N 
ENDROOT
BRANCH   4  15
ATOM     15  C   UNL     1      -4.004  13.933  21.099  0.00  0.00    +0.000 A 
ATOM     16  C   UNL     1      -4.383  15.275  21.290  0.00  0.00    +0.000 A 
ATOM     17  N   UNL     1      -3.456  15.982  21.928  0.00  0.00    +0.000 NA
ATOM     18  N   UNL     1      -2.525  15.058  22.247  0.00  0.00    +0.000 N 
ATOM     19  C   UNL     1      -1.409  15.495  23.058  0.00  0.00    +0.000 C 
ATOM     20  C   UNL     1      -2.776  13.799  21.734  0.00  0.00    +0.000 A 
BRANCH  20  21
ATOM     21  C   UNL     1      -1.878  12.654  21.910  0.00  0.00    +0.000 A 
ATOM     22  C   UNL     1      -1.940  11.804  23.012  0.00  0.00    +0.000 A 
ATOM     23  C   UNL     1      -1.072  10.713  23.079  0.00  0.00    +0.000 A 
ATOM     24  C   UNL     1      -0.171  10.501  22.044  0.00  0.00    +0.000 A 
ATOM     25 BR   UNL     1       1.000   9.026  22.070  0.00  0.00    +0.000 Br
ATOM     26  C   UNL     1      -0.168  11.390  20.987  0.00  0.00    +0.000 A 
ATOM     27  N   UNL     1      -1.003  12.455  20.895  0.00  0.00    +0.000 NA
ENDBRANCH  20  21
ENDBRANCH   4  15
TORSDOF 2
ENDMDL
MODEL 4
REMARK VINA RESULT:      -6.3      2.353      5.203
REMARK  Name = 
REMARK  4 active torsions:
REMARK  status: ('A' for Active; 'I' for Inactive)
REMARK    1  A    between atoms: C_1  and  C_2
REMARK    2  A    between atoms: C_4  and  C_5
REMARK    3  A    between atoms: N_8  and  C_9
REMARK    4  A    between atoms: C_10  and  C_11
REMARK                            x       y       z     vdW  Elec       q    Type
REMARK                         _______ _______ _______ _____ _____    ______ ____
ROOT
ATOM      1  C   UNL     1      -3.481  13.208  23.734  0.00  0.00    +0.000 C 
ATOM      2  C   UNL     1      -3.012  12.948  22.354  0.00  0.00    +0.000 A 
ATOM      3  N   UNL     1      -1.786  13.127  21.901  0.00  0.00    +0.000 NA
ATOM      4  C   UNL     1      -1.840  12.836  20.559  0.00  0.00    +0.000 A 
ATOM      5  C   UNL     1      -3.096  12.393  20.217  0.00  0.00    +0.000 A 
ATOM      6  C   UNL     1      -3.737  11.923  19.019  0.00  0.00    +0.000 A 
ATOM      7  N   UNL     1      -3.012  11.713  17.857  0.00  0.00    +0.000 N 
ATOM      8  C   UNL     1      -3.672  11.470  16.609  0.00  0.00    +0.000 C 
ATOM      9  C   UNL     1      -2.859  10.193  16.445  0.00  0.00    +0.000 C 
ATOM     10  C   UNL     1      -2.218  10.512  17.787  0.00  0.00    +0.000 C 
ATOM     11  N   UNL     1      -5.025  11.741  19.087  0.00  0.00    +0.000 NA
ATOM     12  C   UNL     1      -5.693  11.972  20.266  0.00  0.00    +0.000 A 
ATOM     13  N   UNL     1      -5.175  12.327  21.401  0.00  0.00    +0.000 NA
ATOM     14  N   UNL     1      -3.847  12.525  21.345  0.00  0.00    +0.000 N 
ENDROOT
BRANCH   4  15
ATOM     15  C   UNL     1      -0.664  13.091  19.732  0.00  0.00    +0.000 A 
ATOM     16  C   UNL     1      -0.399  14.322  19.104  0.00  0.00    +0.000 A 
ATOM     17  N   UNL     1       0.740  14.314  18.421  0.00  0.00    +0.000 NA
ATOM     18  N   UNL     1       1.266  13.104  18.708  0.00  0.00    +0.000 N 
ATOM     19  C   UNL     1       2.587  12.816  18.192  0.00  0.00    +0.000 C 
ATOM     20  C   UNL     1       0.441  12.292  19.464  0.00  0.00    +0.000 A 
BRANCH  20  21
ATOM     21  C   UNL     1       0.781  10.921  19.853  0.00  0.00    +0.000 A 
ATOM     22  C   UNL     1       0.680  10.455  21.162  0.00  0.00    +0.000 A 
ATOM     23  C   UNL     1       0.987   9.121  21.436  0.00  0.00    +0.000 A 
ATOM     24  C   UNL     1       1.383   8.291  20.396  0.00  0.00    +0.000 A 
ATOM     25 BR   UNL     1       1.778   6.476  20.705  0.00  0.00    +0.000 Br
ATOM     26  C   UNL     1       1.462   8.828  19.125  0.00  0.00    +0.000 A 
ATOM     27  N   UNL     1       1.165  10.118  18.831  0.00  0.00    +0.000 NA
ENDBRANCH  20  21
ENDBRANCH   4  15
TORSDOF 2
ENDMDL
MODEL 5
REMARK VINA RESULT:      -6.1      5.724      9.253
REMARK  Name = 
REMARK  4 active torsions:
REMARK  status: ('A' for Active; 'I' for Inactive)
REMARK    1  A    between atoms: C_1  and  C_2
REMARK    2  A    between atoms: C_4  and  C_5
REMARK    3  A    between atoms: N_8  and  C_9
REMARK    4  A    between atoms: C_10  and  C_11
REMARK                            x       y       z     vdW  Elec       q    Type
REMARK                         _______ _______ _______ _____ _____    ______ ____
ROOT
ATOM      1  C   UNL     1       1.751   8.350  19.588  0.00  0.00    +0.000 C 
ATOM      2  C   UNL     1       2.443   7.111  19.167  0.00  0.00    +0.000 A 
ATOM      3  N   UNL     1       3.421   7.026  18.284  0.00  0.00    +0.000 NA
ATOM      4  C   UNL     1       3.690   5.685  18.156  0.00  0.00    +0.000 A 
ATOM      5  C   UNL     1       2.924   4.958  19.038  0.00  0.00    +0.000 A 
ATOM      6  C   UNL     1       2.784   3.571  19.388  0.00  0.00    +0.000 A 
ATOM      7  N   UNL     1       3.637   2.613  18.863  0.00  0.00    +0.000 N 
ATOM      8  C   UNL     1       3.364   1.216  19.021  0.00  0.00    +0.000 C 
ATOM      9  C   UNL     1       4.752   1.029  19.621  0.00  0.00    +0.000 C 
ATOM     10  C   UNL     1       4.957   2.524  19.437  0.00  0.00    +0.000 C 
ATOM     11  N   UNL     1       1.802   3.274  20.190  0.00  0.00    +0.000 NA
ATOM     12  C   UNL     1       0.983   4.267  20.674  0.00  0.00    +0.000 A 
ATOM     13  N   UNL     1       1.090   5.541  20.460  0.00  0.00    +0.000 NA
ATOM     14  N   UNL     1       2.095   5.862  19.629  0.00  0.00    +0.000 N 
ENDROOT
BRANCH   4  15
ATOM     15  C   UNL     1       4.628   5.246  17.128  0.00  0.00    +0.000 A 
ATOM     16  C   UNL     1       4.323   4.281  16.150  0.00  0.00    +0.000 A 
ATOM     17  N   UNL     1       5.333   4.063  15.314  0.00  0.00    +0.000 NA
ATOM     18  N   UNL     1       6.250   4.979  15.689  0.00  0.00    +0.000 N 
ATOM     19  C   UNL     1       7.452   5.078  14.890  0.00  0.00    +0.000 C 
ATOM     20  C   UNL     1       5.903   5.702  16.816  0.00  0.00    +0.000 A 
BRANCH  20  21
ATOM     21  C   UNL     1       6.765   6.713  17.433  0.00  0.00    +0.000 A 
ATOM     22  C   UNL     1       7.685   6.418  18.435  0.00  0.00    +0.000 A 
ATOM     23  C   UNL     1       8.495   7.437  18.939  0.00  0.00    +0.000 A 
ATOM     24  C   UNL     1       8.364   8.720  18.425  0.00  0.00    +0.000 A 
ATOM     25 BR   UNL     1       9.453  10.125  19.047  0.00  0.00    +0.000 Br
ATOM     26  C   UNL     1       7.426   8.935  17.434  0.00  0.00    +0.000 A 
ATOM     27  N   UNL     1       6.631   7.962  16.924  0.00  0.00    +0.000 NA
ENDBRANCH  20  21
ENDBRANCH   4  15
TORSDOF 2
ENDMDL
MODEL 6
REMARK VINA RESULT:      -6.1      4.251      7.115
REMARK  Name = 
REMARK  4 active torsions:
REMARK  status: ('A' for Active; 'I' for Inactive)
REMARK    1  A    between atoms: C_1  and  C_2
REMARK    2  A    between atoms: C_4  and  C_5
REMARK    3  A    between atoms: N_8  and  C_9
REMARK    4  A    between atoms: C_10  and  C_11
REMARK                            x       y       z     vdW  Elec       q    Type
REMARK                         _______ _______ _______ _____ _____    ______ ____
ROOT
ATOM      1  C   UNL     1      -5.067  11.233  17.243  0.00  0.00    +0.000 C 
ATOM      2  C   UNL     1      -5.121  11.878  18.575  0.00  0.00    +0.000 A 
ATOM      3  N   UNL     1      -4.292  12.799  19.029  0.00  0.00    +0.000 NA
ATOM      4  C   UNL     1      -4.676  13.037  20.326  0.00  0.00    +0.000 A 
ATOM      5  C   UNL     1      -5.807  12.315  20.630  0.00  0.00    +0.000 A 
ATOM      6  C   UNL     1      -6.670  12.174  21.770  0.00  0.00    +0.000 A 
ATOM      7  N   UNL     1      -6.512  12.978  22.888  0.00  0.00    +0.000 N 
ATOM      8  C   UNL     1      -7.209  12.693  24.106  0.00  0.00    +0.000 C 
ATOM      9  C   UNL     1      -7.764  14.111  24.103  0.00  0.00    +0.000 C 
ATOM     10  C   UNL     1      -7.009  14.328  22.801  0.00  0.00    +0.000 C 
ATOM     11  N   UNL     1      -7.572  11.238  21.699  0.00  0.00    +0.000 NA
ATOM     12  C   UNL     1      -7.678  10.466  20.566  0.00  0.00    +0.000 A 
ATOM     13  N   UNL     1      -6.985  10.580  19.476  0.00  0.00    +0.000 NA
ATOM     14  N   UNL     1      -6.045  11.538  19.537  0.00  0.00    +0.000 N 
ENDROOT
BRANCH   4  15
ATOM     15  C   UNL     1      -3.850  13.903  21.161  0.00  0.00    +0.000 A 
ATOM     16  C   UNL     1      -4.245  15.183  21.595  0.00  0.00    +0.000 A 
ATOM     17  N   UNL     1      -3.330  15.769  22.360  0.00  0.00    +0.000 NA
ATOM     18  N   UNL     1      -2.390  14.812  22.509  0.00  0.00    +0.000 N 
ATOM     19  C   UNL     1      -1.284  15.103  23.395  0.00  0.00    +0.000 C 
ATOM     20  C   UNL     1      -2.623  13.668  21.769  0.00  0.00    +0.000 A 
BRANCH  20  21
ATOM     21  C   UNL     1      -1.714  12.519  21.737  0.00  0.00    +0.000 A 
ATOM     22  C   UNL     1      -0.852  12.263  20.674  0.00  0.00    +0.000 A 
ATOM     23  C   UNL     1       0.010  11.167  20.745  0.00  0.00    +0.000 A 
ATOM     24  C   UNL     1      -0.012  10.361  21.875  0.00  0.00    +0.000 A 
ATOM     25 BR   UNL     1       1.151   8.889  22.035  0.00  0.00    +0.000 Br
ATOM     26  C   UNL     1      -0.899  10.678  22.886  0.00  0.00    +0.000 A 
ATOM     27  N   UNL     1      -1.742  11.739  22.844  0.00  0.00    +0.000 NA
ENDBRANCH  20  21
ENDBRANCH   4  15
TORSDOF 2
ENDMDL
MODEL 7
REMARK VINA RESULT:      -6.0      3.729      6.581
REMARK  Name = 
REMARK  4 active torsions:
REMARK  status: ('A' for Active; 'I' for Inactive)
REMARK    1  A    between atoms: C_1  and  C_2
REMARK    2  A    between atoms: C_4  and  C_5
REMARK    3  A    between atoms: N_8  and  C_9
REMARK    4  A    between atoms: C_10  and  C_11
REMARK                            x       y       z     vdW  Elec       q    Type
REMARK                         _______ _______ _______ _____ _____    ______ ____
ROOT
ATOM      1  C   UNL     1       0.138   9.103  22.926  0.00  0.00    +0.000 C 
ATOM      2  C   UNL     1      -0.237  10.502  22.619  0.00  0.00    +0.000 A 
ATOM      3  N   UNL     1      -1.020  11.276  23.345  0.00  0.00    +0.000 NA
ATOM      4  C   UNL     1      -1.146  12.446  22.636  0.00  0.00    +0.000 A 
ATOM      5  C   UNL     1      -0.359  12.408  21.508  0.00  0.00    +0.000 A 
ATOM      6  C   UNL     1      -0.052  13.307  20.430  0.00  0.00    +0.000 A 
ATOM      7  N   UNL     1      -0.508  14.616  20.440  0.00  0.00    +0.000 N 
ATOM      8  C   UNL     1      -0.405  15.442  19.275  0.00  0.00    +0.000 C 
ATOM      9  C   UNL     1       0.325  16.492  20.103  0.00  0.00    +0.000 C 
ATOM     10  C   UNL     1       0.192  15.549  21.288  0.00  0.00    +0.000 C 
ATOM     11  N   UNL     1       0.643  12.813  19.447  0.00  0.00    +0.000 NA
ATOM     12  C   UNL     1       1.063  11.505  19.488  0.00  0.00    +0.000 A 
ATOM     13  N   UNL     1       0.886  10.658  20.454  0.00  0.00    +0.000 NA
ATOM     14  N   UNL     1       0.165  11.152  21.473  0.00  0.00    +0.000 N 
ENDROOT
BRANCH   4  15
ATOM     15  C   UNL     1      -2.086  13.460  23.105  0.00  0.00    +0.000 A 
ATOM     16  C   UNL     1      -1.784  14.407  24.101  0.00  0.00    +0.000 A 
ATOM     17  N   UNL     1      -2.794  15.235  24.343  0.00  0.00    +0.000 NA
ATOM     18  N   UNL     1      -3.710  14.889  23.414  0.00  0.00    +0.000 N 
ATOM     19  C   UNL     1      -4.912  15.690  23.337  0.00  0.00    +0.000 C 
ATOM     20  C   UNL     1      -3.360  13.786  22.657  0.00  0.00    +0.000 A 
BRANCH  20  21
ATOM     21  C   UNL     1      -4.219  13.200  21.624  0.00  0.00    +0.000 A 
ATOM     22  C   UNL     1      -3.900  13.223  20.269  0.00  0.00    +0.000 A 
ATOM     23  C   UNL     1      -4.758  12.605  19.357  0.00  0.00    +0.000 A 
ATOM     24  C   UNL     1      -5.907  11.982  19.825  0.00  0.00    +0.000 A 
ATOM     25 BR   UNL     1      -7.082  11.107  18.642  0.00  0.00    +0.000 Br
ATOM     26  C   UNL     1      -6.156  12.006  21.184  0.00  0.00    +0.000 A 
ATOM     27  N   UNL     1      -5.338  12.594  22.090  0.00  0.00    +0.000 NA
ENDBRANCH  20  21
ENDBRANCH   4  15
TORSDOF 2
ENDMDL
MODEL 8
REMARK VINA RESULT:      -5.9      6.686      9.521
REMARK  Name = 
REMARK  4 active torsions:
REMARK  status: ('A' for Active; 'I' for Inactive)
REMARK    1  A    between atoms: C_1  and  C_2
REMARK    2  A    between atoms: C_4  and  C_5
REMARK    3  A    between atoms: N_8  and  C_9
REMARK    4  A    between atoms: C_10  and  C_11
REMARK                            x       y       z     vdW  Elec       q    Type
REMARK                         _______ _______ _______ _____ _____    ______ ____
ROOT
ATOM      1  C   UNL     1       4.473  15.202  17.797  0.00  0.00    +0.000 C 
ATOM      2  C   UNL     1       5.898  15.294  18.188  0.00  0.00    +0.000 A 
ATOM      3  N   UNL     1       6.824  14.377  17.978  0.00  0.00    +0.000 NA
ATOM      4  C   UNL     1       7.963  14.856  18.577  0.00  0.00    +0.000 A 
ATOM      5  C   UNL     1       7.744  16.118  19.080  0.00  0.00    +0.000 A 
ATOM      6  C   UNL     1       8.529  17.112  19.759  0.00  0.00    +0.000 A 
ATOM      7  N   UNL     1       9.894  16.946  19.936  0.00  0.00    +0.000 N 
ATOM      8  C   UNL     1      10.635  17.810  20.804  0.00  0.00    +0.000 C 
ATOM      9  C   UNL     1      11.590  18.117  19.658  0.00  0.00    +0.000 C 
ATOM     10  C   UNL     1      10.739  17.197  18.795  0.00  0.00    +0.000 C 
ATOM     11  N   UNL     1       7.881  18.145  20.216  0.00  0.00    +0.000 NA
ATOM     12  C   UNL     1       6.526  18.253  20.016  0.00  0.00    +0.000 A 
ATOM     13  N   UNL     1       5.766  17.436  19.355  0.00  0.00    +0.000 NA
ATOM     14  N   UNL     1       6.419  16.362  18.883  0.00  0.00    +0.000 N 
ENDROOT
BRANCH   4  15
ATOM     15  C   UNL     1       9.138  13.993  18.657  0.00  0.00    +0.000 A 
ATOM     16  C   UNL     1      10.031  13.786  17.589  0.00  0.00    +0.000 A 
ATOM     17  N   UNL     1      11.033  12.974  17.910  0.00  0.00    +0.000 NA
ATOM     18  N   UNL     1      10.842  12.750  19.227  0.00  0.00    +0.000 N 
ATOM     19  C   UNL     1      11.845  11.971  19.920  0.00  0.00    +0.000 C 
ATOM     20  C   UNL     1       9.681  13.305  19.734  0.00  0.00    +0.000 A 
BRANCH  20  21
ATOM     21  C   UNL     1       9.243  13.149  21.124  0.00  0.00    +0.000 A 
ATOM     22  C   UNL     1       9.315  14.176  22.062  0.00  0.00    +0.000 A 
ATOM     23  C   UNL     1       8.838  13.953  23.354  0.00  0.00    +0.000 A 
ATOM     24  C   UNL     1       8.301  12.712  23.672  0.00  0.00    +0.000 A 
ATOM     25 BR   UNL     1       7.615  12.368  25.392  0.00  0.00    +0.000 Br
ATOM     26  C   UNL     1       8.268  11.743  22.688  0.00  0.00    +0.000 A 
ATOM     27  N   UNL     1       8.720  11.936  21.424  0.00  0.00    +0.000 NA
ENDBRANCH  20  21
ENDBRANCH   4  15
TORSDOF 2
ENDMDL
MODEL 9
REMARK VINA RESULT:      -5.8      3.481      6.843
REMARK  Name = 
REMARK  4 active torsions:
REMARK  status: ('A' for Active; 'I' for Inactive)
REMARK    1  A    between atoms: C_1  and  C_2
REMARK    2  A    between atoms: C_4  and  C_5
REMARK    3  A    between atoms: N_8  and  C_9
REMARK    4  A    between atoms: C_10  and  C_11
REMARK                            x       y       z     vdW  Elec       q    Type
REMARK                         _______ _______ _______ _____ _____    ______ ____
ROOT
ATOM      1  C   UNL     1      -4.168  13.278  22.647  0.00  0.00    +0.000 C 
ATOM      2  C   UNL     1      -3.513  12.745  21.431  0.00  0.00    +0.000 A 
ATOM      3  N   UNL     1      -2.241  12.412  21.313  0.00  0.00    +0.000 NA
ATOM      4  C   UNL     1      -2.073  12.049  19.999  0.00  0.00    +0.000 A 
ATOM      5  C   UNL     1      -3.279  12.080  19.337  0.00  0.00    +0.000 A 
ATOM      6  C   UNL     1      -3.738  11.784  18.007  0.00  0.00    +0.000 A 
ATOM      7  N   UNL     1      -2.888  11.219  17.069  0.00  0.00    +0.000 N 
ATOM      8  C   UNL     1      -3.265  11.135  15.689  0.00  0.00    +0.000 C 
ATOM      9  C   UNL     1      -2.990   9.637  15.721  0.00  0.00    +0.000 C 
ATOM     10  C   UNL     1      -2.624   9.807  17.188  0.00  0.00    +0.000 C 
ATOM     11  N   UNL     1      -4.971  12.103  17.738  0.00  0.00    +0.000 NA
ATOM     12  C   UNL     1      -5.765  12.667  18.707  0.00  0.00    +0.000 A 
ATOM     13  N   UNL     1      -5.445  12.898  19.942  0.00  0.00    +0.000 NA
ATOM     14  N   UNL     1      -4.173  12.580  20.234  0.00  0.00    +0.000 N 
ENDROOT
BRANCH   4  15
ATOM     15  C   UNL     1      -0.727  11.774  19.507  0.00  0.00    +0.000 A 
ATOM     16  C   UNL     1      -0.274  10.494  19.137  0.00  0.00    +0.000 A 
ATOM     17  N   UNL     1       0.982  10.500  18.704  0.00  0.00    +0.000 NA
ATOM     18  N   UNL     1       1.299  11.812  18.689  0.00  0.00    +0.000 N 
ATOM     19  C   UNL     1       2.593  12.175  18.153  0.00  0.00    +0.000 C 
ATOM     20  C   UNL     1       0.319  12.638  19.208  0.00  0.00    +0.000 A 
BRANCH  20  21
ATOM     21  C   UNL     1       0.462  14.091  19.337  0.00  0.00    +0.000 A 
ATOM     22  C   UNL     1      -0.241  14.997  18.548  0.00  0.00    +0.000 A 
ATOM     23  C   UNL     1      -0.073  16.365  18.767  0.00  0.00    +0.000 A 
ATOM     24  C   UNL     1       0.791  16.789  19.768  0.00  0.00    +0.000 A 
ATOM     25 BR   UNL     1       1.030  18.622  20.126  0.00  0.00    +0.000 Br
ATOM     26  C   UNL     1       1.456  15.829  20.507  0.00  0.00    +0.000 A 
ATOM     27  N   UNL     1       1.306  14.495  20.318  0.00  0.00    +0.000 NA
ENDBRANCH  20  21
ENDBRANCH   4  15
TORSDOF 2
ENDMDL
