MODEL 1
REMARK VINA RESULT:      -7.9      0.000      0.000
REMARK  Name = 
REMARK  5 active torsions:
REMARK  status: ('A' for Active; 'I' for Inactive)
REMARK    1  A    between atoms: C_1  and  O_2
REMARK    2  A    between atoms: O_2  and  C_3
REMARK    3  A    between atoms: C_6  and  C_7
REMARK    4  A    between atoms: C_9  and  C_10
REMARK    5  A    between atoms: C_17  and  C_18
REMARK                            x       y       z     vdW  Elec       q    Type
REMARK                         _______ _______ _______ _____ _____    ______ ____
ROOT
ATOM      1  C   UNL     1       2.678   6.866  18.632  0.00  0.00    +0.000 A 
ATOM      2  C   UNL     1       3.847   7.165  17.952  0.00  0.00    +0.000 A 
ATOM      3  C   UNL     1       4.427   6.152  17.212  0.00  0.00    +0.000 A 
ATOM      4  N   UNL     1       3.906   4.914  17.191  0.00  0.00    +0.000 NA
ATOM      5  C   UNL     1       2.763   4.702  17.860  0.00  0.00    +0.000 A 
ATOM      6  C   UNL     1       2.137   3.351  17.737  0.00  0.00    +0.000 C 
ATOM      7  N   UNL     1       2.126   5.633  18.584  0.00  0.00    +0.000 NA
ENDROOT
BRANCH   3   8
ATOM      8  C   UNL     1       5.647   6.423  16.342  0.00  0.00    +0.000 C 
ATOM      9  C   UNL     1       5.900   5.279  15.342  0.00  0.00    +0.000 C 
ATOM     10  C   UNL     1       6.464   4.037  16.032  0.00  0.00    +0.000 C 
ATOM     11  N   UNL     1       7.706   4.334  16.745  0.00  0.00    +0.000 NA
ATOM     12  C   UNL     1       7.495   5.369  17.761  0.00  0.00    +0.000 C 
ATOM     13  C   UNL     1       6.936   6.662  17.155  0.00  0.00    +0.000 C 
ATOM     14  H   UNL     1       8.410   4.656  16.082  0.00  0.00    +0.000 HD
ENDBRANCH   3   8
BRANCH   1  18
ATOM     15  C   UNL     1       0.467   9.772  20.931  0.00  0.00    +0.000 A 
ATOM     16  C   UNL     1       0.836   8.553  21.493  0.00  0.00    +0.000 A 
ATOM     17  C   UNL     1       1.562   7.621  20.745  0.00  0.00    +0.000 A 
ATOM     18  C   UNL     1       1.921   7.872  19.408  0.00  0.00    +0.000 A 
ATOM     19  C   UNL     1       1.522   9.103  18.857  0.00  0.00    +0.000 A 
ATOM     20  C   UNL     1       0.800  10.041  19.606  0.00  0.00    +0.000 A 
BRANCH  15  22
ATOM     21  C   UNL     1      -0.594  10.058  23.015  0.00  0.00    +0.000 C 
ATOM     22  O   UNL     1      -0.240  10.606  21.751  0.00  0.00    +0.000 OA
ENDBRANCH  15  22
ENDBRANCH   1  18
TORSDOF 3
ENDMDL
MODEL 2
REMARK VINA RESULT:      -7.8      1.800      3.913
REMARK  Name = 
REMARK  5 active torsions:
REMARK  status: ('A' for Active; 'I' for Inactive)
REMARK    1  A    between atoms: C_1  and  O_2
REMARK    2  A    between atoms: O_2  and  C_3
REMARK    3  A    between atoms: C_6  and  C_7
REMARK    4  A    between atoms: C_9  and  C_10
REMARK    5  A    between atoms: C_17  and  C_18
REMARK                            x       y       z     vdW  Elec       q    Type
REMARK                         _______ _______ _______ _____ _____    ______ ____
ROOT
ATOM      1  C   UNL     1       2.582   7.159  18.717  0.00  0.00    +0.000 A 
ATOM      2  C   UNL     1       2.491   5.955  19.395  0.00  0.00    +0.000 A 
ATOM      3  C   UNL     1       3.338   4.938  18.998  0.00  0.00    +0.000 A 
ATOM      4  N   UNL     1       4.183   5.094  17.965  0.00  0.00    +0.000 NA
ATOM      5  C   UNL     1       4.228   6.294  17.366  0.00  0.00    +0.000 A 
ATOM      6  C   UNL     1       5.250   6.486  16.293  0.00  0.00    +0.000 C 
ATOM      7  N   UNL     1       3.456   7.337  17.702  0.00  0.00    +0.000 NA
ENDROOT
BRANCH   3   8
ATOM      8  C   UNL     1       3.386   3.621  19.761  0.00  0.00    +0.000 C 
ATOM      9  C   UNL     1       3.796   2.449  18.849  0.00  0.00    +0.000 C 
ATOM     10  C   UNL     1       2.666   2.046  17.901  0.00  0.00    +0.000 C 
ATOM     11  N   UNL     1       1.452   1.685  18.632  0.00  0.00    +0.000 NA
ATOM     12  C   UNL     1       0.983   2.800  19.459  0.00  0.00    +0.000 C 
ATOM     13  C   UNL     1       2.054   3.266  20.453  0.00  0.00    +0.000 C 
ATOM     14  H   UNL     1       1.643   0.882  19.230  0.00  0.00    +0.000 HD
ENDBRANCH   3   8
BRANCH   1  18
ATOM     15  C   UNL     1       0.247  10.642  19.737  0.00  0.00    +0.000 A 
ATOM     16  C   UNL     1       0.700  10.446  18.435  0.00  0.00    +0.000 A 
ATOM     17  C   UNL     1       1.446   9.309  18.110  0.00  0.00    +0.000 A 
ATOM     18  C   UNL     1       1.780   8.347  19.081  0.00  0.00    +0.000 A 
ATOM     19  C   UNL     1       1.327   8.576  20.393  0.00  0.00    +0.000 A 
ATOM     20  C   UNL     1       0.574   9.712  20.720  0.00  0.00    +0.000 A 
BRANCH  15  22
ATOM     21  C   UNL     1      -0.558  12.659  18.822  0.00  0.00    +0.000 C 
ATOM     22  O   UNL     1      -0.471  11.786  19.942  0.00  0.00    +0.000 OA
ENDBRANCH  15  22
ENDBRANCH   1  18
TORSDOF 3
ENDMDL
MODEL 3
REMARK VINA RESULT:      -7.8      1.689      3.622
REMARK  Name = 
REMARK  5 active torsions:
REMARK  status: ('A' for Active; 'I' for Inactive)
REMARK    1  A    between atoms: C_1  and  O_2
REMARK    2  A    between atoms: O_2  and  C_3
REMARK    3  A    between atoms: C_6  and  C_7
REMARK    4  A    between atoms: C_9  and  C_10
REMARK    5  A    between atoms: C_17  and  C_18
REMARK                            x       y       z     vdW  Elec       q    Type
REMARK                         _______ _______ _______ _____ _____    ______ ____
ROOT
ATOM      1  C   UNL     1       2.579   7.171  18.769  0.00  0.00    +0.000 A 
ATOM      2  C   UNL     1       2.499   5.959  19.435  0.00  0.00    +0.000 A 
ATOM      3  C   UNL     1       3.331   4.943  19.005  0.00  0.00    +0.000 A 
ATOM      4  N   UNL     1       4.150   5.106  17.953  0.00  0.00    +0.000 NA
ATOM      5  C   UNL     1       4.187   6.312  17.368  0.00  0.00    +0.000 A 
ATOM      6  C   UNL     1       5.183   6.512  16.271  0.00  0.00    +0.000 C 
ATOM      7  N   UNL     1       3.429   7.355  17.735  0.00  0.00    +0.000 NA
ENDROOT
BRANCH   3   8
ATOM      8  C   UNL     1       3.392   3.616  19.752  0.00  0.00    +0.000 C 
ATOM      9  C   UNL     1       3.788   2.456  18.820  0.00  0.00    +0.000 C 
ATOM     10  C   UNL     1       2.645   2.063  17.884  0.00  0.00    +0.000 C 
ATOM     11  N   UNL     1       1.442   1.692  18.629  0.00  0.00    +0.000 NA
ATOM     12  C   UNL     1       0.985   2.797  19.476  0.00  0.00    +0.000 C 
ATOM     13  C   UNL     1       2.070   3.252  20.459  0.00  0.00    +0.000 C 
ATOM     14  H   UNL     1       1.643   0.882  19.215  0.00  0.00    +0.000 HD
ENDBRANCH   3   8
BRANCH   1  18
ATOM     15  C   UNL     1       0.281  10.619  19.971  0.00  0.00    +0.000 A 
ATOM     16  C   UNL     1       0.593   9.618  20.887  0.00  0.00    +0.000 A 
ATOM     17  C   UNL     1       1.348   8.509  20.492  0.00  0.00    +0.000 A 
ATOM     18  C   UNL     1       1.793   8.358  19.166  0.00  0.00    +0.000 A 
ATOM     19  C   UNL     1       1.451   9.374  18.255  0.00  0.00    +0.000 A 
ATOM     20  C   UNL     1       0.700  10.489  18.650  0.00  0.00    +0.000 A 
BRANCH  15  22
ATOM     21  C   UNL     1      -0.588  11.692  21.882  0.00  0.00    +0.000 C 
ATOM     22  O   UNL     1      -0.460  11.655  20.465  0.00  0.00    +0.000 OA
ENDBRANCH  15  22
ENDBRANCH   1  18
TORSDOF 3
ENDMDL
MODEL 4
REMARK VINA RESULT:      -7.7      1.433      2.091
REMARK  Name = 
REMARK  5 active torsions:
REMARK  status: ('A' for Active; 'I' for Inactive)
REMARK    1  A    between atoms: C_1  and  O_2
REMARK    2  A    between atoms: O_2  and  C_3
REMARK    3  A    between atoms: C_6  and  C_7
REMARK    4  A    between atoms: C_9  and  C_10
REMARK    5  A    between atoms: C_17  and  C_18
REMARK                            x       y       z     vdW  Elec       q    Type
REMARK                         _______ _______ _______ _____ _____    ______ ____
ROOT
ATOM      1  C   UNL     1       3.132   6.059  18.684  0.00  0.00    +0.000 A 
ATOM      2  C   UNL     1       4.516   5.995  18.687  0.00  0.00    +0.000 A 
ATOM      3  C   UNL     1       5.095   4.772  18.410  0.00  0.00    +0.000 A 
ATOM      4  N   UNL     1       4.348   3.677  18.192  0.00  0.00    +0.000 NA
ATOM      5  C   UNL     1       3.015   3.817  18.188  0.00  0.00    +0.000 A 
ATOM      6  C   UNL     1       2.200   2.616  17.834  0.00  0.00    +0.000 C 
ATOM      7  N   UNL     1       2.374   4.970  18.427  0.00  0.00    +0.000 NA
ENDROOT
BRANCH   3   8
ATOM      8  C   UNL     1       6.607   4.637  18.280  0.00  0.00    +0.000 C 
ATOM      9  C   UNL     1       7.333   5.924  18.715  0.00  0.00    +0.000 C 
ATOM     10  C   UNL     1       7.180   7.039  17.681  0.00  0.00    +0.000 C 
ATOM     11  N   UNL     1       7.676   6.629  16.368  0.00  0.00    +0.000 NA
ATOM     12  C   UNL     1       6.960   5.448  15.880  0.00  0.00    +0.000 C 
ATOM     13  C   UNL     1       7.068   4.268  16.855  0.00  0.00    +0.000 C 
ATOM     14  H   UNL     1       8.671   6.413  16.434  0.00  0.00    +0.000 HD
ENDBRANCH   3   8
BRANCH   1  18
ATOM     15  C   UNL     1       0.947   9.718  19.361  0.00  0.00    +0.000 A 
ATOM     16  C   UNL     1       1.154   8.811  20.397  0.00  0.00    +0.000 A 
ATOM     17  C   UNL     1       1.874   7.633  20.172  0.00  0.00    +0.000 A 
ATOM     18  C   UNL     1       2.386   7.317  18.901  0.00  0.00    +0.000 A 
ATOM     19  C   UNL     1       2.149   8.240  17.866  0.00  0.00    +0.000 A 
ATOM     20  C   UNL     1       1.434   9.423  18.091  0.00  0.00    +0.000 A 
BRANCH  15  22
ATOM     21  C   UNL     1      -1.075  10.906  19.133  0.00  0.00    +0.000 C 
ATOM     22  O   UNL     1       0.232  10.834  19.692  0.00  0.00    +0.000 OA
ENDBRANCH  15  22
ENDBRANCH   1  18
TORSDOF 3
ENDMDL
MODEL 5
REMARK VINA RESULT:      -7.7      0.743      1.383
REMARK  Name = 
REMARK  5 active torsions:
REMARK  status: ('A' for Active; 'I' for Inactive)
REMARK    1  A    between atoms: C_1  and  O_2
REMARK    2  A    between atoms: O_2  and  C_3
REMARK    3  A    between atoms: C_6  and  C_7
REMARK    4  A    between atoms: C_9  and  C_10
REMARK    5  A    between atoms: C_17  and  C_18
REMARK                            x       y       z     vdW  Elec       q    Type
REMARK                         _______ _______ _______ _____ _____    ______ ____
ROOT
ATOM      1  C   UNL     1       2.725   6.982  18.354  0.00  0.00    +0.000 A 
ATOM      2  C   UNL     1       3.944   7.238  17.748  0.00  0.00    +0.000 A 
ATOM      3  C   UNL     1       4.571   6.183  17.113  0.00  0.00    +0.000 A 
ATOM      4  N   UNL     1       4.044   4.947  17.124  0.00  0.00    +0.000 NA
ATOM      5  C   UNL     1       2.852   4.778  17.715  0.00  0.00    +0.000 A 
ATOM      6  C   UNL     1       2.227   3.424  17.622  0.00  0.00    +0.000 C 
ATOM      7  N   UNL     1       2.170   5.751  18.335  0.00  0.00    +0.000 NA
ENDROOT
BRANCH   3   8
ATOM      8  C   UNL     1       5.856   6.400  16.325  0.00  0.00    +0.000 C 
ATOM      9  C   UNL     1       6.127   5.240  15.348  0.00  0.00    +0.000 C 
ATOM     10  C   UNL     1       6.595   3.980  16.078  0.00  0.00    +0.000 C 
ATOM     11  N   UNL     1       7.798   4.233  16.870  0.00  0.00    +0.000 NA
ATOM     12  C   UNL     1       7.563   5.282  17.866  0.00  0.00    +0.000 C 
ATOM     13  C   UNL     1       7.097   6.592  17.219  0.00  0.00    +0.000 C 
ATOM     14  H   UNL     1       8.556   4.522  16.253  0.00  0.00    +0.000 HD
ENDBRANCH   3   8
BRANCH   1  18
ATOM     15  C   UNL     1       0.373  10.074  20.233  0.00  0.00    +0.000 A 
ATOM     16  C   UNL     1       0.697  10.149  18.880  0.00  0.00    +0.000 A 
ATOM     17  C   UNL     1       1.449   9.137  18.277  0.00  0.00    +0.000 A 
ATOM     18  C   UNL     1       1.919   8.034  19.011  0.00  0.00    +0.000 A 
ATOM     19  C   UNL     1       1.595   7.989  20.379  0.00  0.00    +0.000 A 
ATOM     20  C   UNL     1       0.836   8.998  20.985  0.00  0.00    +0.000 A 
BRANCH  15  22
ATOM     21  C   UNL     1      -1.364  11.617  19.837  0.00  0.00    +0.000 C 
ATOM     22  O   UNL     1      -0.365  11.117  20.718  0.00  0.00    +0.000 OA
ENDBRANCH  15  22
ENDBRANCH   1  18
TORSDOF 3
ENDMDL
MODEL 6
REMARK VINA RESULT:      -7.7      1.416      2.292
REMARK  Name = 
REMARK  5 active torsions:
REMARK  status: ('A' for Active; 'I' for Inactive)
REMARK    1  A    between atoms: C_1  and  O_2
REMARK    2  A    between atoms: O_2  and  C_3
REMARK    3  A    between atoms: C_6  and  C_7
REMARK    4  A    between atoms: C_9  and  C_10
REMARK    5  A    between atoms: C_17  and  C_18
REMARK                            x       y       z     vdW  Elec       q    Type
REMARK                         _______ _______ _______ _____ _____    ______ ____
ROOT
ATOM      1  C   UNL     1       3.149   5.974  18.842  0.00  0.00    +0.000 A 
ATOM      2  C   UNL     1       4.534   5.933  18.827  0.00  0.00    +0.000 A 
ATOM      3  C   UNL     1       5.129   4.737  18.473  0.00  0.00    +0.000 A 
ATOM      4  N   UNL     1       4.397   3.644  18.202  0.00  0.00    +0.000 NA
ATOM      5  C   UNL     1       3.061   3.762  18.220  0.00  0.00    +0.000 A 
ATOM      6  C   UNL     1       2.261   2.569  17.808  0.00  0.00    +0.000 C 
ATOM      7  N   UNL     1       2.406   4.889  18.532  0.00  0.00    +0.000 NA
ENDROOT
BRANCH   3   8
ATOM      8  C   UNL     1       6.641   4.635  18.319  0.00  0.00    +0.000 C 
ATOM      9  C   UNL     1       7.345   5.945  18.719  0.00  0.00    +0.000 C 
ATOM     10  C   UNL     1       7.148   7.039  17.669  0.00  0.00    +0.000 C 
ATOM     11  N   UNL     1       7.630   6.617  16.355  0.00  0.00    +0.000 NA
ATOM     12  C   UNL     1       6.933   5.411  15.900  0.00  0.00    +0.000 C 
ATOM     13  C   UNL     1       7.085   4.252  16.893  0.00  0.00    +0.000 C 
ATOM     14  H   UNL     1       8.631   6.425  16.406  0.00  0.00    +0.000 HD
ENDBRANCH   3   8
BRANCH   1  18
ATOM     15  C   UNL     1       0.931   9.582  19.667  0.00  0.00    +0.000 A 
ATOM     16  C   UNL     1       1.484   9.359  18.409  0.00  0.00    +0.000 A 
ATOM     17  C   UNL     1       2.191   8.181  18.146  0.00  0.00    +0.000 A 
ATOM     18  C   UNL     1       2.386   7.205  19.140  0.00  0.00    +0.000 A 
ATOM     19  C   UNL     1       1.834   7.460  20.408  0.00  0.00    +0.000 A 
ATOM     20  C   UNL     1       1.120   8.636  20.672  0.00  0.00    +0.000 A 
BRANCH  15  22
ATOM     21  C   UNL     1       1.081  11.899  20.071  0.00  0.00    +0.000 C 
ATOM     22  O   UNL     1       0.262  10.764  19.813  0.00  0.00    +0.000 OA
ENDBRANCH  15  22
ENDBRANCH   1  18
TORSDOF 3
ENDMDL
MODEL 7
REMARK VINA RESULT:      -7.7      1.496      1.984
REMARK  Name = 
REMARK  5 active torsions:
REMARK  status: ('A' for Active; 'I' for Inactive)
REMARK    1  A    between atoms: C_1  and  O_2
REMARK    2  A    between atoms: O_2  and  C_3
REMARK    3  A    between atoms: C_6  and  C_7
REMARK    4  A    between atoms: C_9  and  C_10
REMARK    5  A    between atoms: C_17  and  C_18
REMARK                            x       y       z     vdW  Elec       q    Type
REMARK                         _______ _______ _______ _____ _____    ______ ____
ROOT
ATOM      1  C   UNL     1       3.273   6.228  18.229  0.00  0.00    +0.000 A 
ATOM      2  C   UNL     1       4.621   6.321  17.925  0.00  0.00    +0.000 A 
ATOM      3  C   UNL     1       5.255   5.171  17.495  0.00  0.00    +0.000 A 
ATOM      4  N   UNL     1       4.604   3.999  17.419  0.00  0.00    +0.000 NA
ATOM      5  C   UNL     1       3.295   3.988  17.712  0.00  0.00    +0.000 A 
ATOM      6  C   UNL     1       2.559   2.702  17.516  0.00  0.00    +0.000 C 
ATOM      7  N   UNL     1       2.601   5.061  18.117  0.00  0.00    +0.000 NA
ENDROOT
BRANCH   3   8
ATOM      8  C   UNL     1       6.706   5.208  17.031  0.00  0.00    +0.000 C 
ATOM      9  C   UNL     1       7.664   4.677  18.114  0.00  0.00    +0.000 C 
ATOM     10  C   UNL     1       7.834   5.675  19.260  0.00  0.00    +0.000 C 
ATOM     11  N   UNL     1       8.321   6.968  18.780  0.00  0.00    +0.000 NA
ATOM     12  C   UNL     1       7.399   7.546  17.799  0.00  0.00    +0.000 C 
ATOM     13  C   UNL     1       7.175   6.613  16.603  0.00  0.00    +0.000 C 
ATOM     14  H   UNL     1       9.236   6.847  18.348  0.00  0.00    +0.000 HD
ENDBRANCH   3   8
BRANCH   1  18
ATOM     15  C   UNL     1       0.898   9.612  19.466  0.00  0.00    +0.000 A 
ATOM     16  C   UNL     1       1.253   8.621  20.377  0.00  0.00    +0.000 A 
ATOM     17  C   UNL     1       2.033   7.533  19.971  0.00  0.00    +0.000 A 
ATOM     18  C   UNL     1       2.460   7.393  18.638  0.00  0.00    +0.000 A 
ATOM     19  C   UNL     1       2.074   8.397  17.732  0.00  0.00    +0.000 A 
ATOM     20  C   UNL     1       1.298   9.491  18.138  0.00  0.00    +0.000 A 
BRANCH  15  22
ATOM     21  C   UNL     1      -1.020  10.955  19.207  0.00  0.00    +0.000 C 
ATOM     22  O   UNL     1       0.135  10.627  19.970  0.00  0.00    +0.000 OA
ENDBRANCH  15  22
ENDBRANCH   1  18
TORSDOF 3
ENDMDL
MODEL 8
REMARK VINA RESULT:      -7.7      1.940      3.944
REMARK  Name = 
REMARK  5 active torsions:
REMARK  status: ('A' for Active; 'I' for Inactive)
REMARK    1  A    between atoms: C_1  and  O_2
REMARK    2  A    between atoms: O_2  and  C_3
REMARK    3  A    between atoms: C_6  and  C_7
REMARK    4  A    between atoms: C_9  and  C_10
REMARK    5  A    between atoms: C_17  and  C_18
REMARK                            x       y       z     vdW  Elec       q    Type
REMARK                         _______ _______ _______ _____ _____    ______ ____
ROOT
ATOM      1  C   UNL     1       2.124   7.207  19.767  0.00  0.00    +0.000 A 
ATOM      2  C   UNL     1       2.044   5.935  20.309  0.00  0.00    +0.000 A 
ATOM      3  C   UNL     1       2.801   4.943  19.715  0.00  0.00    +0.000 A 
ATOM      4  N   UNL     1       3.549   5.191  18.627  0.00  0.00    +0.000 NA
ATOM      5  C   UNL     1       3.591   6.450  18.167  0.00  0.00    +0.000 A 
ATOM      6  C   UNL     1       4.513   6.733  17.025  0.00  0.00    +0.000 C 
ATOM      7  N   UNL     1       2.904   7.472  18.696  0.00  0.00    +0.000 NA
ENDROOT
BRANCH   3   8
ATOM      8  C   UNL     1       2.863   3.545  20.315  0.00  0.00    +0.000 C 
ATOM      9  C   UNL     1       3.647   2.573  19.414  0.00  0.00    +0.000 C 
ATOM     10  C   UNL     1       2.849   2.181  18.170  0.00  0.00    +0.000 C 
ATOM     11  N   UNL     1       1.564   1.579  18.522  0.00  0.00    +0.000 NA
ATOM     12  C   UNL     1       0.751   2.500  19.320  0.00  0.00    +0.000 C 
ATOM     13  C   UNL     1       1.473   2.940  20.600  0.00  0.00    +0.000 C 
ATOM     14  H   UNL     1       1.724   0.726  19.057  0.00  0.00    +0.000 HD
ENDBRANCH   3   8
BRANCH   1  18
ATOM     15  C   UNL     1       0.061  10.624  21.407  0.00  0.00    +0.000 A 
ATOM     16  C   UNL     1       0.365  10.561  20.049  0.00  0.00    +0.000 A 
ATOM     17  C   UNL     1       1.023   9.444  19.524  0.00  0.00    +0.000 A 
ATOM     18  C   UNL     1       1.417   8.371  20.343  0.00  0.00    +0.000 A 
ATOM     19  C   UNL     1       1.115   8.465  21.713  0.00  0.00    +0.000 A 
ATOM     20  C   UNL     1       0.450   9.579  22.241  0.00  0.00    +0.000 A 
BRANCH  15  22
ATOM     21  C   UNL     1      -1.383  11.619  22.980  0.00  0.00    +0.000 C 
ATOM     22  O   UNL     1      -0.583  11.759  21.812  0.00  0.00    +0.000 OA
ENDBRANCH  15  22
ENDBRANCH   1  18
TORSDOF 3
ENDMDL
MODEL 9
REMARK VINA RESULT:      -7.7      1.609      3.735
REMARK  Name = 
REMARK  5 active torsions:
REMARK  status: ('A' for Active; 'I' for Inactive)
REMARK    1  A    between atoms: C_1  and  O_2
REMARK    2  A    between atoms: O_2  and  C_3
REMARK    3  A    between atoms: C_6  and  C_7
REMARK    4  A    between atoms: C_9  and  C_10
REMARK    5  A    between atoms: C_17  and  C_18
REMARK                            x       y       z     vdW  Elec       q    Type
REMARK                         _______ _______ _______ _____ _____    ______ ____
ROOT
ATOM      1  C   UNL     1       2.779   6.648  18.085  0.00  0.00    +0.000 A 
ATOM      2  C   UNL     1       2.246   5.381  18.260  0.00  0.00    +0.000 A 
ATOM      3  C   UNL     1       2.967   4.315  17.757  0.00  0.00    +0.000 A 
ATOM      4  N   UNL     1       4.114   4.501  17.085  0.00  0.00    +0.000 NA
ATOM      5  C   UNL     1       4.579   5.753  16.969  0.00  0.00    +0.000 A 
ATOM      6  C   UNL     1       5.911   5.933  16.316  0.00  0.00    +0.000 C 
ATOM      7  N   UNL     1       3.953   6.839  17.444  0.00  0.00    +0.000 NA
ENDROOT
BRANCH   3   8
ATOM      8  C   UNL     1       2.513   2.882  18.004  0.00  0.00    +0.000 C 
ATOM      9  C   UNL     1       1.087   2.828  18.585  0.00  0.00    +0.000 C 
ATOM     10  C   UNL     1       1.054   3.263  20.050  0.00  0.00    +0.000 C 
ATOM     11  N   UNL     1       1.941   2.444  20.876  0.00  0.00    +0.000 NA
ATOM     12  C   UNL     1       3.325   2.525  20.403  0.00  0.00    +0.000 C 
ATOM     13  C   UNL     1       3.456   2.094  18.937  0.00  0.00    +0.000 C 
ATOM     14  H   UNL     1       1.632   1.473  20.844  0.00  0.00    +0.000 HD
ENDBRANCH   3   8
BRANCH   1  18
ATOM     15  C   UNL     1       0.921  10.186  19.711  0.00  0.00    +0.000 A 
ATOM     16  C   UNL     1       1.124   9.061  20.505  0.00  0.00    +0.000 A 
ATOM     17  C   UNL     1       1.738   7.922  19.974  0.00  0.00    +0.000 A 
ATOM     18  C   UNL     1       2.145   7.867  18.628  0.00  0.00    +0.000 A 
ATOM     19  C   UNL     1       1.913   9.010  17.841  0.00  0.00    +0.000 A 
ATOM     20  C   UNL     1       1.304  10.154  18.373  0.00  0.00    +0.000 A 
BRANCH  15  22
ATOM     21  C   UNL     1      -0.075  11.010  21.681  0.00  0.00    +0.000 C 
ATOM     22  O   UNL     1       0.313  11.241  20.331  0.00  0.00    +0.000 OA
ENDBRANCH  15  22
ENDBRANCH   1  18
TORSDOF 3
ENDMDL
