MODEL 1
REMARK VINA RESULT:      -8.3      0.000      0.000
REMARK  Name = 
REMARK  7 active torsions:
REMARK  status: ('A' for Active; 'I' for Inactive)
REMARK    1  A    between atoms: C_1  and  C_2
REMARK    2  A    between atoms: C_2  and  C_3
REMARK    3  A    between atoms: C_3  and  O_4
REMARK    4  A    between atoms: C_3  and  C_11
REMARK    5  A    between atoms: O_4  and  C_5
REMARK    6  A    between atoms: N_13  and  C_14
REMARK    7  A    between atoms: C_19  and  N_20
REMARK                            x       y       z     vdW  Elec       q    Type
REMARK                         _______ _______ _______ _____ _____    ______ ____
ROOT
ATOM      1  C   UNL     1       5.615   4.958  17.688  0.00  0.00    +0.000 C 
ATOM      2  O   UNL     1       5.909   4.367  18.729  0.00  0.00    +0.000 OA
ATOM      3  N   UNL     1       4.326   4.973  17.161  0.00  0.00    +0.000 N 
ATOM      4  H   UNL     1       4.072   5.694  16.501  0.00  0.00    +0.000 HD
ENDROOT
BRANCH   3   5
ATOM      5  C   UNL     1       3.284   4.298  17.830  0.00  0.00    +0.000 A 
ATOM      6  C   UNL     1       3.204   2.905  17.620  0.00  0.00    +0.000 A 
ATOM      7  C   UNL     1       2.207   2.143  18.216  0.00  0.00    +0.000 A 
ATOM      8  C   UNL     1       1.292   2.760  19.053  0.00  0.00    +0.000 A 
ATOM      9  C   UNL     1       1.366   4.141  19.259  0.00  0.00    +0.000 A 
ATOM     10  C   UNL     1       2.334   4.964  18.643  0.00  0.00    +0.000 A 
BRANCH  10  11
ATOM     11  N   UNL     1       2.339   6.320  18.965  0.00  0.00    +0.000 N 
ATOM     12  C   UNL     1       2.230   6.828  20.329  0.00  0.00    +0.000 C 
ATOM     13  C   UNL     1       1.301   8.044  20.365  0.00  0.00    +0.000 C 
ATOM     14  C   UNL     1       1.688   9.101  19.334  0.00  0.00    +0.000 C 
ATOM     15  C   UNL     1       1.810   8.485  17.944  0.00  0.00    +0.000 C 
ATOM     16  C   UNL     1       2.765   7.292  17.950  0.00  0.00    +0.000 C 
ENDBRANCH  10  11
ENDBRANCH   3   5
BRANCH   1  17
ATOM     17  C   UNL     1       6.648   5.808  16.921  0.00  0.00    +0.000 C 
BRANCH  17  19
ATOM     18  C   UNL     1       7.773   8.020  17.539  0.00  0.00    +0.000 C 
ATOM     19  C   UNL     1       7.528   6.566  17.935  0.00  0.00    +0.000 C 
ENDBRANCH  17  19
BRANCH  17  20
ATOM     20  O   UNL     1       7.408   4.839  16.180  0.00  0.00    +0.000 OA
BRANCH  20  21
ATOM     21  C   UNL     1       7.195   4.748  14.834  0.00  0.00    +0.000 A 
ATOM     22  C   UNL     1       7.927   5.426  13.861  0.00  0.00    +0.000 A 
ATOM     23  C   UNL     1       7.724   5.148  12.507  0.00  0.00    +0.000 A 
ATOM     24  C   UNL     1       6.768   4.213  12.118  0.00  0.00    +0.000 A 
ATOM     25  C   UNL     1       6.012   3.554  13.085  0.00  0.00    +0.000 A 
ATOM     26  C   UNL     1       6.235   3.813  14.439  0.00  0.00    +0.000 A 
ENDBRANCH  20  21
ENDBRANCH  17  20
ENDBRANCH   1  17
TORSDOF 6
ENDMDL
MODEL 2
REMARK VINA RESULT:      -8.1      1.288      1.323
REMARK  Name = 
REMARK  7 active torsions:
REMARK  status: ('A' for Active; 'I' for Inactive)
REMARK    1  A    between atoms: C_1  and  C_2
REMARK    2  A    between atoms: C_2  and  C_3
REMARK    3  A    between atoms: C_3  and  O_4
REMARK    4  A    between atoms: C_3  and  C_11
REMARK    5  A    between atoms: O_4  and  C_5
REMARK    6  A    between atoms: N_13  and  C_14
REMARK    7  A    between atoms: C_19  and  N_20
REMARK                            x       y       z     vdW  Elec       q    Type
REMARK                         _______ _______ _______ _____ _____    ______ ____
ROOT
ATOM      1  C   UNL     1       4.715   4.881  17.387  0.00  0.00    +0.000 C 
ATOM      2  O   UNL     1       3.948   4.096  16.825  0.00  0.00    +0.000 OA
ATOM      3  N   UNL     1       4.541   5.304  18.701  0.00  0.00    +0.000 N 
ATOM      4  H   UNL     1       5.328   5.688  19.205  0.00  0.00    +0.000 HD
ENDROOT
BRANCH   3   5
ATOM      5  C   UNL     1       3.449   4.825  19.456  0.00  0.00    +0.000 A 
ATOM      6  C   UNL     1       3.485   3.459  19.810  0.00  0.00    +0.000 A 
ATOM      7  C   UNL     1       2.454   2.878  20.537  0.00  0.00    +0.000 A 
ATOM      8  C   UNL     1       1.387   3.660  20.945  0.00  0.00    +0.000 A 
ATOM      9  C   UNL     1       1.348   5.013  20.592  0.00  0.00    +0.000 A 
ATOM     10  C   UNL     1       2.348   5.639  19.819  0.00  0.00    +0.000 A 
BRANCH  10  11
ATOM     11  N   UNL     1       2.225   7.005  19.572  0.00  0.00    +0.000 N 
ATOM     12  C   UNL     1       1.890   7.986  20.601  0.00  0.00    +0.000 C 
ATOM     13  C   UNL     1       0.893   9.008  20.049  0.00  0.00    +0.000 C 
ATOM     14  C   UNL     1       1.359   9.620  18.731  0.00  0.00    +0.000 C 
ATOM     15  C   UNL     1       1.717   8.533  17.723  0.00  0.00    +0.000 C 
ATOM     16  C   UNL     1       2.732   7.550  18.306  0.00  0.00    +0.000 C 
ENDBRANCH  10  11
ENDBRANCH   3   5
BRANCH   1  17
ATOM     17  C   UNL     1       5.994   5.397  16.696  0.00  0.00    +0.000 C 
BRANCH  17  19
ATOM     18  C   UNL     1       7.513   7.259  17.567  0.00  0.00    +0.000 C 
ATOM     19  C   UNL     1       7.006   5.834  17.773  0.00  0.00    +0.000 C 
ENDBRANCH  17  19
BRANCH  17  20
ATOM     20  O   UNL     1       6.467   4.259  15.956  0.00  0.00    +0.000 OA
BRANCH  20  21
ATOM     21  C   UNL     1       6.678   4.407  14.614  0.00  0.00    +0.000 A 
ATOM     22  C   UNL     1       7.595   5.286  14.041  0.00  0.00    +0.000 A 
ATOM     23  C   UNL     1       7.836   5.253  12.665  0.00  0.00    +0.000 A 
ATOM     24  C   UNL     1       7.139   4.361  11.852  0.00  0.00    +0.000 A 
ATOM     25  C   UNL     1       6.200   3.501  12.415  0.00  0.00    +0.000 A 
ATOM     26  C   UNL     1       5.979   3.517  13.794  0.00  0.00    +0.000 A 
ENDBRANCH  20  21
ENDBRANCH  17  20
ENDBRANCH   1  17
TORSDOF 6
ENDMDL
MODEL 3
REMARK VINA RESULT:      -8.0      1.101      1.160
REMARK  Name = 
REMARK  7 active torsions:
REMARK  status: ('A' for Active; 'I' for Inactive)
REMARK    1  A    between atoms: C_1  and  C_2
REMARK    2  A    between atoms: C_2  and  C_3
REMARK    3  A    between atoms: C_3  and  O_4
REMARK    4  A    between atoms: C_3  and  C_11
REMARK    5  A    between atoms: O_4  and  C_5
REMARK    6  A    between atoms: N_13  and  C_14
REMARK    7  A    between atoms: C_19  and  N_20
REMARK                            x       y       z     vdW  Elec       q    Type
REMARK                         _______ _______ _______ _____ _____    ______ ____
ROOT
ATOM      1  C   UNL     1       5.660   5.354  18.611  0.00  0.00    +0.000 C 
ATOM      2  O   UNL     1       6.069   5.039  19.730  0.00  0.00    +0.000 OA
ATOM      3  N   UNL     1       4.321   5.270  18.239  0.00  0.00    +0.000 N 
ATOM      4  H   UNL     1       3.993   5.806  17.448  0.00  0.00    +0.000 HD
ENDROOT
BRANCH   3   5
ATOM      5  C   UNL     1       3.360   4.814  19.167  0.00  0.00    +0.000 A 
ATOM      6  C   UNL     1       3.413   3.444  19.501  0.00  0.00    +0.000 A 
ATOM      7  C   UNL     1       2.505   2.885  20.390  0.00  0.00    +0.000 A 
ATOM      8  C   UNL     1       1.548   3.694  20.981  0.00  0.00    +0.000 A 
ATOM      9  C   UNL     1       1.492   5.051  20.649  0.00  0.00    +0.000 A 
ATOM     10  C   UNL     1       2.364   5.657  19.719  0.00  0.00    +0.000 A 
BRANCH  10  11
ATOM     11  N   UNL     1       2.243   7.029  19.507  0.00  0.00    +0.000 N 
ATOM     12  C   UNL     1       1.885   7.980  20.554  0.00  0.00    +0.000 C 
ATOM     13  C   UNL     1       0.898   9.016  20.009  0.00  0.00    +0.000 C 
ATOM     14  C   UNL     1       1.391   9.664  18.718  0.00  0.00    +0.000 C 
ATOM     15  C   UNL     1       1.772   8.605  17.689  0.00  0.00    +0.000 C 
ATOM     16  C   UNL     1       2.776   7.608  18.267  0.00  0.00    +0.000 C 
ENDBRANCH  10  11
ENDBRANCH   3   5
BRANCH   1  17
ATOM     17  C   UNL     1       6.600   5.954  17.545  0.00  0.00    +0.000 C 
BRANCH  17  19
ATOM     18  C   UNL     1       7.875   8.167  17.673  0.00  0.00    +0.000 C 
ATOM     19  C   UNL     1       7.707   6.763  18.250  0.00  0.00    +0.000 C 
ENDBRANCH  17  19
BRANCH  17  20
ATOM     20  O   UNL     1       7.134   4.803  16.871  0.00  0.00    +0.000 OA
BRANCH  20  21
ATOM     21  C   UNL     1       6.906   4.680  15.530  0.00  0.00    +0.000 A 
ATOM     22  C   UNL     1       7.686   5.257  14.530  0.00  0.00    +0.000 A 
ATOM     23  C   UNL     1       7.452   4.947  13.187  0.00  0.00    +0.000 A 
ATOM     24  C   UNL     1       6.417   4.083  12.837  0.00  0.00    +0.000 A 
ATOM     25  C   UNL     1       5.614   3.527  13.830  0.00  0.00    +0.000 A 
ATOM     26  C   UNL     1       5.867   3.817  15.173  0.00  0.00    +0.000 A 
ENDBRANCH  20  21
ENDBRANCH  17  20
ENDBRANCH   1  17
TORSDOF 6
ENDMDL
MODEL 4
REMARK VINA RESULT:      -7.9      1.303      1.639
REMARK  Name = 
REMARK  7 active torsions:
REMARK  status: ('A' for Active; 'I' for Inactive)
REMARK    1  A    between atoms: C_1  and  C_2
REMARK    2  A    between atoms: C_2  and  C_3
REMARK    3  A    between atoms: C_3  and  O_4
REMARK    4  A    between atoms: C_3  and  C_11
REMARK    5  A    between atoms: O_4  and  C_5
REMARK    6  A    between atoms: N_13  and  C_14
REMARK    7  A    between atoms: C_19  and  N_20
REMARK                            x       y       z     vdW  Elec       q    Type
REMARK                         _______ _______ _______ _____ _____    ______ ____
ROOT
ATOM      1  C   UNL     1       5.957   5.131  18.625  0.00  0.00    +0.000 C 
ATOM      2  O   UNL     1       6.419   5.208  19.765  0.00  0.00    +0.000 OA
ATOM      3  N   UNL     1       4.735   4.528  18.339  0.00  0.00    +0.000 N 
ATOM      4  H   UNL     1       4.266   4.749  17.472  0.00  0.00    +0.000 HD
ENDROOT
BRANCH   3   5
ATOM      5  C   UNL     1       3.961   3.977  19.382  0.00  0.00    +0.000 A 
ATOM      6  C   UNL     1       4.397   2.738  19.898  0.00  0.00    +0.000 A 
ATOM      7  C   UNL     1       3.701   2.097  20.914  0.00  0.00    +0.000 A 
ATOM      8  C   UNL     1       2.574   2.699  21.449  0.00  0.00    +0.000 A 
ATOM      9  C   UNL     1       2.138   3.925  20.936  0.00  0.00    +0.000 A 
ATOM     10  C   UNL     1       2.786   4.595  19.877  0.00  0.00    +0.000 A 
BRANCH  10  11
ATOM     11  N   UNL     1       2.286   5.835  19.485  0.00  0.00    +0.000 N 
ATOM     12  C   UNL     1       2.312   6.320  18.109  0.00  0.00    +0.000 C 
ATOM     13  C   UNL     1       2.698   7.802  18.080  0.00  0.00    +0.000 C 
ATOM     14  C   UNL     1       1.842   8.643  19.023  0.00  0.00    +0.000 C 
ATOM     15  C   UNL     1       1.844   8.054  20.430  0.00  0.00    +0.000 C 
ATOM     16  C   UNL     1       1.429   6.583  20.414  0.00  0.00    +0.000 C 
ENDBRANCH  10  11
ENDBRANCH   3   5
BRANCH   1  17
ATOM     17  C   UNL     1       6.666   5.780  17.419  0.00  0.00    +0.000 C 
BRANCH  17  19
ATOM     18  C   UNL     1       7.603   8.156  17.537  0.00  0.00    +0.000 C 
ATOM     19  C   UNL     1       7.796   6.695  17.933  0.00  0.00    +0.000 C 
ENDBRANCH  17  19
BRANCH  17  20
ATOM     20  O   UNL     1       7.186   4.660  16.684  0.00  0.00    +0.000 OA
BRANCH  20  21
ATOM     21  C   UNL     1       6.984   4.628  15.333  0.00  0.00    +0.000 A 
ATOM     22  C   UNL     1       7.785   5.268  14.389  0.00  0.00    +0.000 A 
ATOM     23  C   UNL     1       7.576   5.050  13.025  0.00  0.00    +0.000 A 
ATOM     24  C   UNL     1       6.545   4.215  12.598  0.00  0.00    +0.000 A 
ATOM     25  C   UNL     1       5.722   3.597  13.536  0.00  0.00    +0.000 A 
ATOM     26  C   UNL     1       5.949   3.795  14.900  0.00  0.00    +0.000 A 
ENDBRANCH  20  21
ENDBRANCH  17  20
ENDBRANCH   1  17
TORSDOF 6
ENDMDL
MODEL 5
REMARK VINA RESULT:      -7.7      1.268      3.537
REMARK  Name = 
REMARK  7 active torsions:
REMARK  status: ('A' for Active; 'I' for Inactive)
REMARK    1  A    between atoms: C_1  and  C_2
REMARK    2  A    between atoms: C_2  and  C_3
REMARK    3  A    between atoms: C_3  and  O_4
REMARK    4  A    between atoms: C_3  and  C_11
REMARK    5  A    between atoms: O_4  and  C_5
REMARK    6  A    between atoms: N_13  and  C_14
REMARK    7  A    between atoms: C_19  and  N_20
REMARK                            x       y       z     vdW  Elec       q    Type
REMARK                         _______ _______ _______ _____ _____    ______ ____
ROOT
ATOM      1  C   UNL     1       5.052   5.929  18.077  0.00  0.00    +0.000 C 
ATOM      2  O   UNL     1       5.478   5.657  19.202  0.00  0.00    +0.000 OA
ATOM      3  N   UNL     1       3.742   6.334  17.838  0.00  0.00    +0.000 N 
ATOM      4  H   UNL     1       3.525   6.824  16.982  0.00  0.00    +0.000 HD
ENDROOT
BRANCH   3   5
ATOM      5  C   UNL     1       2.836   6.457  18.913  0.00  0.00    +0.000 A 
ATOM      6  C   UNL     1       2.486   7.772  19.288  0.00  0.00    +0.000 A 
ATOM      7  C   UNL     1       1.616   8.010  20.344  0.00  0.00    +0.000 A 
ATOM      8  C   UNL     1       1.062   6.937  21.022  0.00  0.00    +0.000 A 
ATOM      9  C   UNL     1       1.411   5.634  20.654  0.00  0.00    +0.000 A 
ATOM     10  C   UNL     1       2.322   5.341  19.618  0.00  0.00    +0.000 A 
BRANCH  10  11
ATOM     11  N   UNL     1       2.553   4.001  19.310  0.00  0.00    +0.000 N 
ATOM     12  C   UNL     1       3.220   3.067  20.212  0.00  0.00    +0.000 C 
ATOM     13  C   UNL     1       4.188   2.178  19.427  0.00  0.00    +0.000 C 
ATOM     14  C   UNL     1       3.522   1.516  18.223  0.00  0.00    +0.000 C 
ATOM     15  C   UNL     1       2.824   2.554  17.350  0.00  0.00    +0.000 C 
ATOM     16  C   UNL     1       1.850   3.401  18.168  0.00  0.00    +0.000 C 
ENDBRANCH  10  11
ENDBRANCH   3   5
BRANCH   1  17
ATOM     17  C   UNL     1       5.973   5.922  16.840  0.00  0.00    +0.000 C 
BRANCH  17  19
ATOM     18  C   UNL     1       7.618   7.780  17.459  0.00  0.00    +0.000 C 
ATOM     19  C   UNL     1       7.408   6.279  17.278  0.00  0.00    +0.000 C 
ENDBRANCH  17  19
BRANCH  17  20
ATOM     20  O   UNL     1       5.888   4.572  16.356  0.00  0.00    +0.000 OA
BRANCH  20  21
ATOM     21  C   UNL     1       6.176   4.341  15.041  0.00  0.00    +0.000 A 
ATOM     22  C   UNL     1       5.396   3.578  14.174  0.00  0.00    +0.000 A 
ATOM     23  C   UNL     1       5.703   3.527  12.811  0.00  0.00    +0.000 A 
ATOM     24  C   UNL     1       6.809   4.215  12.315  0.00  0.00    +0.000 A 
ATOM     25  C   UNL     1       7.609   4.954  13.182  0.00  0.00    +0.000 A 
ATOM     26  C   UNL     1       7.285   5.026  14.539  0.00  0.00    +0.000 A 
ENDBRANCH  20  21
ENDBRANCH  17  20
ENDBRANCH   1  17
TORSDOF 6
ENDMDL
MODEL 6
REMARK VINA RESULT:      -7.6      1.499      1.887
REMARK  Name = 
REMARK  7 active torsions:
REMARK  status: ('A' for Active; 'I' for Inactive)
REMARK    1  A    between atoms: C_1  and  C_2
REMARK    2  A    between atoms: C_2  and  C_3
REMARK    3  A    between atoms: C_3  and  O_4
REMARK    4  A    between atoms: C_3  and  C_11
REMARK    5  A    between atoms: O_4  and  C_5
REMARK    6  A    between atoms: N_13  and  C_14
REMARK    7  A    between atoms: C_19  and  N_20
REMARK                            x       y       z     vdW  Elec       q    Type
REMARK                         _______ _______ _______ _____ _____    ______ ____
ROOT
ATOM      1  C   UNL     1       4.700   4.148  17.553  0.00  0.00    +0.000 C 
ATOM      2  O   UNL     1       3.891   3.350  17.074  0.00  0.00    +0.000 OA
ATOM      3  N   UNL     1       4.683   4.537  18.890  0.00  0.00    +0.000 N 
ATOM      4  H   UNL     1       5.516   4.937  19.298  0.00  0.00    +0.000 HD
ENDROOT
BRANCH   3   5
ATOM      5  C   UNL     1       3.713   4.005  19.765  0.00  0.00    +0.000 A 
ATOM      6  C   UNL     1       4.012   2.753  20.345  0.00  0.00    +0.000 A 
ATOM      7  C   UNL     1       3.121   2.129  21.208  0.00  0.00    +0.000 A 
ATOM      8  C   UNL     1       1.930   2.760  21.526  0.00  0.00    +0.000 A 
ATOM      9  C   UNL     1       1.630   3.998  20.949  0.00  0.00    +0.000 A 
ATOM     10  C   UNL     1       2.482   4.653  20.035  0.00  0.00    +0.000 A 
BRANCH  10  11
ATOM     11  N   UNL     1       2.098   5.907  19.565  0.00  0.00    +0.000 N 
ATOM     12  C   UNL     1       2.147   6.295  18.159  0.00  0.00    +0.000 C 
ATOM     13  C   UNL     1       2.673   7.727  18.027  0.00  0.00    +0.000 C 
ATOM     14  C   UNL     1       1.917   8.708  18.919  0.00  0.00    +0.000 C 
ATOM     15  C   UNL     1       1.885   8.216  20.363  0.00  0.00    +0.000 C 
ATOM     16  C   UNL     1       1.331   6.794  20.450  0.00  0.00    +0.000 C 
ENDBRANCH  10  11
ENDBRANCH   3   5
BRANCH   1  17
ATOM     17  C   UNL     1       5.862   4.722  16.717  0.00  0.00    +0.000 C 
BRANCH  17  19
ATOM     18  C   UNL     1       7.467   6.429  17.742  0.00  0.00    +0.000 C 
ATOM     19  C   UNL     1       7.076   4.957  17.639  0.00  0.00    +0.000 C 
ENDBRANCH  17  19
BRANCH  17  20
ATOM     20  O   UNL     1       6.126   3.696  15.746  0.00  0.00    +0.000 OA
BRANCH  20  21
ATOM     21  C   UNL     1       6.483   4.081  14.485  0.00  0.00    +0.000 A 
ATOM     22  C   UNL     1       7.421   5.067  14.186  0.00  0.00    +0.000 A 
ATOM     23  C   UNL     1       7.820   5.280  12.864  0.00  0.00    +0.000 A 
ATOM     24  C   UNL     1       7.260   4.529  11.832  0.00  0.00    +0.000 A 
ATOM     25  C   UNL     1       6.300   3.563  12.123  0.00  0.00    +0.000 A 
ATOM     26  C   UNL     1       5.922   3.333  13.447  0.00  0.00    +0.000 A 
ENDBRANCH  20  21
ENDBRANCH  17  20
ENDBRANCH   1  17
TORSDOF 6
ENDMDL
MODEL 7
REMARK VINA RESULT:      -7.6      2.458      7.310
REMARK  Name = 
REMARK  7 active torsions:
REMARK  status: ('A' for Active; 'I' for Inactive)
REMARK    1  A    between atoms: C_1  and  C_2
REMARK    2  A    between atoms: C_2  and  C_3
REMARK    3  A    between atoms: C_3  and  O_4
REMARK    4  A    between atoms: C_3  and  C_11
REMARK    5  A    between atoms: O_4  and  C_5
REMARK    6  A    between atoms: N_13  and  C_14
REMARK    7  A    between atoms: C_19  and  N_20
REMARK                            x       y       z     vdW  Elec       q    Type
REMARK                         _______ _______ _______ _____ _____    ______ ____
ROOT
ATOM      1  C   UNL     1       2.167   6.572  19.646  0.00  0.00    +0.000 C 
ATOM      2  O   UNL     1       2.027   5.966  20.710  0.00  0.00    +0.000 OA
ATOM      3  N   UNL     1       2.382   5.931  18.429  0.00  0.00    +0.000 N 
ATOM      4  H   UNL     1       2.191   6.426  17.569  0.00  0.00    +0.000 HD
ENDROOT
BRANCH   3   5
ATOM      5  C   UNL     1       2.439   4.522  18.376  0.00  0.00    +0.000 A 
ATOM      6  C   UNL     1       1.251   3.834  18.705  0.00  0.00    +0.000 A 
ATOM      7  C   UNL     1       1.200   2.447  18.702  0.00  0.00    +0.000 A 
ATOM      8  C   UNL     1       2.327   1.727  18.345  0.00  0.00    +0.000 A 
ATOM      9  C   UNL     1       3.507   2.406  18.023  0.00  0.00    +0.000 A 
ATOM     10  C   UNL     1       3.622   3.812  18.052  0.00  0.00    +0.000 A 
BRANCH  10  11
ATOM     11  N   UNL     1       4.835   4.377  17.663  0.00  0.00    +0.000 N 
ATOM     12  C   UNL     1       5.928   4.661  18.586  0.00  0.00    +0.000 C 
ATOM     13  C   UNL     1       6.557   6.018  18.257  0.00  0.00    +0.000 C 
ATOM     14  C   UNL     1       6.936   6.140  16.784  0.00  0.00    +0.000 C 
ATOM     15  C   UNL     1       5.750   5.798  15.887  0.00  0.00    +0.000 C 
ATOM     16  C   UNL     1       5.171   4.427  16.234  0.00  0.00    +0.000 C 
ENDBRANCH  10  11
ENDBRANCH   3   5
BRANCH   1  17
ATOM     17  C   UNL     1       2.028   8.106  19.564  0.00  0.00    +0.000 C 
BRANCH  17  19
ATOM     18  C   UNL     1       1.960   9.971  17.815  0.00  0.00    +0.000 C 
ATOM     19  C   UNL     1       2.476   8.577  18.165  0.00  0.00    +0.000 C 
ENDBRANCH  17  19
BRANCH  17  20
ATOM     20  O   UNL     1       0.626   8.336  19.776  0.00  0.00    +0.000 OA
BRANCH  20  21
ATOM     21  C   UNL     1       0.260   9.206  20.763  0.00  0.00    +0.000 A 
ATOM     22  C   UNL     1      -0.358  10.438  20.555  0.00  0.00    +0.000 A 
ATOM     23  C   UNL     1      -0.824  11.184  21.640  0.00  0.00    +0.000 A 
ATOM     24  C   UNL     1      -0.648  10.716  22.941  0.00  0.00    +0.000 A 
ATOM     25  C   UNL     1      -0.005   9.500  23.157  0.00  0.00    +0.000 A 
ATOM     26  C   UNL     1       0.437   8.743  22.069  0.00  0.00    +0.000 A 
ENDBRANCH  20  21
ENDBRANCH  17  20
ENDBRANCH   1  17
TORSDOF 6
ENDMDL
MODEL 8
REMARK VINA RESULT:      -7.6      2.868      7.650
REMARK  Name = 
REMARK  7 active torsions:
REMARK  status: ('A' for Active; 'I' for Inactive)
REMARK    1  A    between atoms: C_1  and  C_2
REMARK    2  A    between atoms: C_2  and  C_3
REMARK    3  A    between atoms: C_3  and  O_4
REMARK    4  A    between atoms: C_3  and  C_11
REMARK    5  A    between atoms: O_4  and  C_5
REMARK    6  A    between atoms: N_13  and  C_14
REMARK    7  A    between atoms: C_19  and  N_20
REMARK                            x       y       z     vdW  Elec       q    Type
REMARK                         _______ _______ _______ _____ _____    ______ ____
ROOT
ATOM      1  C   UNL     1       2.239   7.026  19.618  0.00  0.00    +0.000 C 
ATOM      2  O   UNL     1       2.353   6.263  20.580  0.00  0.00    +0.000 OA
ATOM      3  N   UNL     1       2.470   6.632  18.303  0.00  0.00    +0.000 N 
ATOM      4  H   UNL     1       2.081   7.179  17.548  0.00  0.00    +0.000 HD
ENDROOT
BRANCH   3   5
ATOM      5  C   UNL     1       2.847   5.301  18.023  0.00  0.00    +0.000 A 
ATOM      6  C   UNL     1       1.795   4.390  17.783  0.00  0.00    +0.000 A 
ATOM      7  C   UNL     1       2.051   3.052  17.515  0.00  0.00    +0.000 A 
ATOM      8  C   UNL     1       3.362   2.610  17.455  0.00  0.00    +0.000 A 
ATOM      9  C   UNL     1       4.405   3.510  17.698  0.00  0.00    +0.000 A 
ATOM     10  C   UNL     1       4.196   4.869  18.016  0.00  0.00    +0.000 A 
BRANCH  10  11
ATOM     11  N   UNL     1       5.316   5.680  18.187  0.00  0.00    +0.000 N 
ATOM     12  C   UNL     1       5.605   6.846  17.358  0.00  0.00    +0.000 C 
ATOM     13  C   UNL     1       7.098   6.897  17.023  0.00  0.00    +0.000 C 
ATOM     14  C   UNL     1       7.976   6.781  18.266  0.00  0.00    +0.000 C 
ATOM     15  C   UNL     1       7.592   5.557  19.092  0.00  0.00    +0.000 C 
ATOM     16  C   UNL     1       6.100   5.561  19.424  0.00  0.00    +0.000 C 
ENDBRANCH  10  11
ENDBRANCH   3   5
BRANCH   1  17
ATOM     17  C   UNL     1       1.741   8.475  19.790  0.00  0.00    +0.000 C 
BRANCH  17  19
ATOM     18  C   UNL     1       2.042  10.091  17.831  0.00  0.00    +0.000 C 
ATOM     19  C   UNL     1       1.190   8.982  18.442  0.00  0.00    +0.000 C 
ENDBRANCH  17  19
BRANCH  17  20
ATOM     20  O   UNL     1       0.703   8.367  20.778  0.00  0.00    +0.000 OA
BRANCH  20  21
ATOM     21  C   UNL     1       0.292   9.508  21.406  0.00  0.00    +0.000 A 
ATOM     22  C   UNL     1       0.493  10.802  20.927  0.00  0.00    +0.000 A 
ATOM     23  C   UNL     1      -0.097  11.891  21.574  0.00  0.00    +0.000 A 
ATOM     24  C   UNL     1      -0.864  11.694  22.720  0.00  0.00    +0.000 A 
ATOM     25  C   UNL     1      -1.043  10.407  23.221  0.00  0.00    +0.000 A 
ATOM     26  C   UNL     1      -0.475   9.317  22.558  0.00  0.00    +0.000 A 
ENDBRANCH  20  21
ENDBRANCH  17  20
ENDBRANCH   1  17
TORSDOF 6
ENDMDL
MODEL 9
REMARK VINA RESULT:      -7.5      1.405      1.992
REMARK  Name = 
REMARK  7 active torsions:
REMARK  status: ('A' for Active; 'I' for Inactive)
REMARK    1  A    between atoms: C_1  and  C_2
REMARK    2  A    between atoms: C_2  and  C_3
REMARK    3  A    between atoms: C_3  and  O_4
REMARK    4  A    between atoms: C_3  and  C_11
REMARK    5  A    between atoms: O_4  and  C_5
REMARK    6  A    between atoms: N_13  and  C_14
REMARK    7  A    between atoms: C_19  and  N_20
REMARK                            x       y       z     vdW  Elec       q    Type
REMARK                         _______ _______ _______ _____ _____    ______ ____
ROOT
ATOM      1  C   UNL     1       4.612   4.904  17.116  0.00  0.00    +0.000 C 
ATOM      2  O   UNL     1       3.943   3.969  16.669  0.00  0.00    +0.000 OA
ATOM      3  N   UNL     1       4.639   5.242  18.466  0.00  0.00    +0.000 N 
ATOM      4  H   UNL     1       5.406   5.794  18.821  0.00  0.00    +0.000 HD
ENDROOT
BRANCH   3   5
ATOM      5  C   UNL     1       3.882   4.495  19.393  0.00  0.00    +0.000 A 
ATOM      6  C   UNL     1       4.407   3.237  19.760  0.00  0.00    +0.000 A 
ATOM      7  C   UNL     1       3.736   2.411  20.653  0.00  0.00    +0.000 A 
ATOM      8  C   UNL     1       2.545   2.842  21.213  0.00  0.00    +0.000 A 
ATOM      9  C   UNL     1       2.021   4.086  20.847  0.00  0.00    +0.000 A 
ATOM     10  C   UNL     1       2.643   4.943  19.913  0.00  0.00    +0.000 A 
BRANCH  10  11
ATOM     11  N   UNL     1       2.051   6.180  19.667  0.00  0.00    +0.000 N 
ATOM     12  C   UNL     1       1.953   6.780  18.340  0.00  0.00    +0.000 C 
ATOM     13  C   UNL     1       2.256   8.279  18.417  0.00  0.00    +0.000 C 
ATOM     14  C   UNL     1       1.425   8.985  19.485  0.00  0.00    +0.000 C 
ATOM     15  C   UNL     1       1.558   8.281  20.831  0.00  0.00    +0.000 C 
ATOM     16  C   UNL     1       1.222   6.794  20.713  0.00  0.00    +0.000 C 
ENDBRANCH  10  11
ENDBRANCH   3   5
BRANCH   1  17
ATOM     17  C   UNL     1       5.551   5.730  16.214  0.00  0.00    +0.000 C 
BRANCH  17  19
ATOM     18  C   UNL     1       7.522   6.673  17.543  0.00  0.00    +0.000 C 
ATOM     19  C   UNL     1       6.108   6.919  17.023  0.00  0.00    +0.000 C 
ENDBRANCH  17  19
BRANCH  17  20
ATOM     20  O   UNL     1       6.588   4.802  15.856  0.00  0.00    +0.000 OA
BRANCH  20  21
ATOM     21  C   UNL     1       6.791   4.546  14.529  0.00  0.00    +0.000 A 
ATOM     22  C   UNL     1       6.103   3.589  13.785  0.00  0.00    +0.000 A 
ATOM     23  C   UNL     1       6.285   3.510  12.402  0.00  0.00    +0.000 A 
ATOM     24  C   UNL     1       7.178   4.366  11.761  0.00  0.00    +0.000 A 
ATOM     25  C   UNL     1       7.890   5.304  12.504  0.00  0.00    +0.000 A 
ATOM     26  C   UNL     1       7.688   5.401  13.882  0.00  0.00    +0.000 A 
ENDBRANCH  20  21
ENDBRANCH  17  20
ENDBRANCH   1  17
TORSDOF 6
ENDMDL
