MODEL 1
REMARK VINA RESULT:      -8.0      0.000      0.000
REMARK  Name = 
REMARK  6 active torsions:
REMARK  status: ('A' for Active; 'I' for Inactive)
REMARK    1  A    between atoms: C_1  and  C_2
REMARK    2  A    between atoms: C_2  and  O_3
REMARK    3  A    between atoms: O_3  and  C_4
REMARK    4  A    between atoms: C_4  and  C_6
REMARK    5  A    between atoms: C_8  and  C_9
REMARK    6  A    between atoms: C_22  and  C_23
REMARK                            x       y       z     vdW  Elec       q    Type
REMARK                         _______ _______ _______ _____ _____    ______ ____
ROOT
ATOM      1  C   UNL     1       4.045   4.681  18.384  0.00  0.00    +0.000 A 
ATOM      2  C   UNL     1       3.821   6.051  18.585  0.00  0.00    +0.000 A 
ATOM      3  C   UNL     1       2.672   6.462  19.250  0.00  0.00    +0.000 A 
ATOM      4  N   UNL     1       1.788   5.605  19.809  0.00  0.00    +0.000 NA
ATOM      5  C   UNL     1       2.052   4.305  19.606  0.00  0.00    +0.000 A 
ATOM      6  O   UNL     1       1.252   3.303  20.053  0.00  0.00    +0.000 OA
ATOM      7  N   UNL     1       1.777   2.083  19.671  0.00  0.00    +0.000 NA
ATOM      8  C   UNL     1       2.899   2.365  18.996  0.00  0.00    +0.000 A 
ATOM      9  C   UNL     1       3.722   1.249  18.472  0.00  0.00    +0.000 C 
ATOM     10  C   UNL     1       3.120   3.767  18.911  0.00  0.00    +0.000 A 
ENDROOT
BRANCH   3  11
ATOM     11  C   UNL     1       2.199   7.861  19.228  0.00  0.00    +0.000 A 
ATOM     12  C   UNL     1       2.256   8.627  18.031  0.00  0.00    +0.000 A 
ATOM     13  C   UNL     1       1.535   9.815  17.887  0.00  0.00    +0.000 A 
ATOM     14  C   UNL     1       0.752  10.206  18.943  0.00  0.00    +0.000 A 
ATOM     15  C   UNL     1       0.747   9.522  20.137  0.00  0.00    +0.000 A 
ATOM     16  C   UNL     1       1.485   8.377  20.325  0.00  0.00    +0.000 A 
ATOM     17  O   UNL     1      -0.144  10.043  21.025  0.00  0.00    +0.000 OA
ATOM     18  C   UNL     1      -0.873  10.922  20.147  0.00  0.00    +0.000 C 
ATOM     19  O   UNL     1      -0.150  11.224  18.935  0.00  0.00    +0.000 OA
ENDBRANCH   3  11
BRANCH   1  20
ATOM     20  C   UNL     1       5.196   4.212  17.601  0.00  0.00    +0.000 C 
ATOM     21  O   UNL     1       5.126   3.797  16.463  0.00  0.00    +0.000 OA
BRANCH  20  22
ATOM     22  O   UNL     1       6.295   4.203  18.393  0.00  0.00    +0.000 OA
BRANCH  22  24
ATOM     23  C   UNL     1       7.482   6.223  17.971  0.00  0.00    +0.000 C 
ATOM     24  C   UNL     1       7.474   4.719  17.764  0.00  0.00    +0.000 C 
ENDBRANCH  22  24
ENDBRANCH  20  22
ENDBRANCH   1  20
TORSDOF 4
ENDMDL
MODEL 2
REMARK VINA RESULT:      -7.9      2.252      3.792
REMARK  Name = 
REMARK  6 active torsions:
REMARK  status: ('A' for Active; 'I' for Inactive)
REMARK    1  A    between atoms: C_1  and  C_2
REMARK    2  A    between atoms: C_2  and  O_3
REMARK    3  A    between atoms: O_3  and  C_4
REMARK    4  A    between atoms: C_4  and  C_6
REMARK    5  A    between atoms: C_8  and  C_9
REMARK    6  A    between atoms: C_22  and  C_23
REMARK                            x       y       z     vdW  Elec       q    Type
REMARK                         _______ _______ _______ _____ _____    ______ ____
ROOT
ATOM      1  C   UNL     1       3.094   4.943  17.639  0.00  0.00    +0.000 A 
ATOM      2  C   UNL     1       2.182   5.826  18.235  0.00  0.00    +0.000 A 
ATOM      3  C   UNL     1       2.481   7.182  18.284  0.00  0.00    +0.000 A 
ATOM      4  N   UNL     1       3.570   7.727  17.696  0.00  0.00    +0.000 NA
ATOM      5  C   UNL     1       4.405   6.846  17.123  0.00  0.00    +0.000 A 
ATOM      6  O   UNL     1       5.570   7.204  16.526  0.00  0.00    +0.000 OA
ATOM      7  N   UNL     1       6.215   6.077  16.051  0.00  0.00    +0.000 NA
ATOM      8  C   UNL     1       5.422   5.045  16.366  0.00  0.00    +0.000 A 
ATOM      9  C   UNL     1       5.827   3.677  15.960  0.00  0.00    +0.000 C 
ATOM     10  C   UNL     1       4.259   5.472  17.062  0.00  0.00    +0.000 A 
ENDROOT
BRANCH   3  11
ATOM     11  C   UNL     1       1.751   8.125  19.155  0.00  0.00    +0.000 A 
ATOM     12  C   UNL     1       1.597   7.860  20.544  0.00  0.00    +0.000 A 
ATOM     13  C   UNL     1       1.210   8.858  21.442  0.00  0.00    +0.000 A 
ATOM     14  C   UNL     1       1.001  10.113  20.932  0.00  0.00    +0.000 A 
ATOM     15  C   UNL     1       1.066  10.372  19.582  0.00  0.00    +0.000 A 
ATOM     16  C   UNL     1       1.395   9.397  18.669  0.00  0.00    +0.000 A 
ATOM     17  O   UNL     1       0.887  11.691  19.301  0.00  0.00    +0.000 OA
ATOM     18  C   UNL     1       0.995  12.237  20.629  0.00  0.00    +0.000 C 
ATOM     19  O   UNL     1       0.793  11.246  21.658  0.00  0.00    +0.000 OA
ENDBRANCH   3  11
BRANCH   1  20
ATOM     20  C   UNL     1       2.861   3.492  17.656  0.00  0.00    +0.000 C 
ATOM     21  O   UNL     1       2.393   2.864  16.731  0.00  0.00    +0.000 OA
BRANCH  20  22
ATOM     22  O   UNL     1       3.136   3.016  18.895  0.00  0.00    +0.000 OA
BRANCH  22  24
ATOM     23  C   UNL     1       1.315   3.013  20.427  0.00  0.00    +0.000 C 
ATOM     24  C   UNL     1       2.111   2.177  19.441  0.00  0.00    +0.000 C 
ENDBRANCH  22  24
ENDBRANCH  20  22
ENDBRANCH   1  20
TORSDOF 4
ENDMDL
MODEL 3
REMARK VINA RESULT:      -7.9      2.285      3.679
REMARK  Name = 
REMARK  6 active torsions:
REMARK  status: ('A' for Active; 'I' for Inactive)
REMARK    1  A    between atoms: C_1  and  C_2
REMARK    2  A    between atoms: C_2  and  O_3
REMARK    3  A    between atoms: O_3  and  C_4
REMARK    4  A    between atoms: C_4  and  C_6
REMARK    5  A    between atoms: C_8  and  C_9
REMARK    6  A    between atoms: C_22  and  C_23
REMARK                            x       y       z     vdW  Elec       q    Type
REMARK                         _______ _______ _______ _____ _____    ______ ____
ROOT
ATOM      1  C   UNL     1       3.121   4.989  17.672  0.00  0.00    +0.000 A 
ATOM      2  C   UNL     1       2.279   5.959  18.233  0.00  0.00    +0.000 A 
ATOM      3  C   UNL     1       2.643   7.299  18.164  0.00  0.00    +0.000 A 
ATOM      4  N   UNL     1       3.730   7.742  17.493  0.00  0.00    +0.000 NA
ATOM      5  C   UNL     1       4.497   6.779  16.957  0.00  0.00    +0.000 A 
ATOM      6  O   UNL     1       5.651   7.032  16.288  0.00  0.00    +0.000 OA
ATOM      7  N   UNL     1       6.220   5.841  15.876  0.00  0.00    +0.000 NA
ATOM      8  C   UNL     1       5.394   4.877  16.302  0.00  0.00    +0.000 A 
ATOM      9  C   UNL     1       5.716   3.464  15.988  0.00  0.00    +0.000 C 
ATOM     10  C   UNL     1       4.284   5.414  17.009  0.00  0.00    +0.000 A 
ENDROOT
BRANCH   3  11
ATOM     11  C   UNL     1       1.998   8.341  18.988  0.00  0.00    +0.000 A 
ATOM     12  C   UNL     1       1.278   9.405  18.378  0.00  0.00    +0.000 A 
ATOM     13  C   UNL     1       0.398  10.207  19.109  0.00  0.00    +0.000 A 
ATOM     14  C   UNL     1       0.241   9.915  20.440  0.00  0.00    +0.000 A 
ATOM     15  C   UNL     1       0.988   8.943  21.065  0.00  0.00    +0.000 A 
ATOM     16  C   UNL     1       1.898   8.172  20.381  0.00  0.00    +0.000 A 
ATOM     17  O   UNL     1       0.630   8.776  22.367  0.00  0.00    +0.000 OA
ATOM     18  C   UNL     1      -0.592   9.537  22.380  0.00  0.00    +0.000 C 
ATOM     19  O   UNL     1      -0.688  10.458  21.273  0.00  0.00    +0.000 OA
ENDBRANCH   3  11
BRANCH   1  20
ATOM     20  C   UNL     1       2.822   3.558  17.811  0.00  0.00    +0.000 C 
ATOM     21  O   UNL     1       2.358   2.867  16.929  0.00  0.00    +0.000 OA
BRANCH  20  22
ATOM     22  O   UNL     1       3.031   3.186  19.097  0.00  0.00    +0.000 OA
BRANCH  22  24
ATOM     23  C   UNL     1       1.168   3.260  20.577  0.00  0.00    +0.000 C 
ATOM     24  C   UNL     1       1.984   2.378  19.650  0.00  0.00    +0.000 C 
ENDBRANCH  22  24
ENDBRANCH  20  22
ENDBRANCH   1  20
TORSDOF 4
ENDMDL
MODEL 4
REMARK VINA RESULT:      -7.9      2.073      3.792
REMARK  Name = 
REMARK  6 active torsions:
REMARK  status: ('A' for Active; 'I' for Inactive)
REMARK    1  A    between atoms: C_1  and  C_2
REMARK    2  A    between atoms: C_2  and  O_3
REMARK    3  A    between atoms: O_3  and  C_4
REMARK    4  A    between atoms: C_4  and  C_6
REMARK    5  A    between atoms: C_8  and  C_9
REMARK    6  A    between atoms: C_22  and  C_23
REMARK                            x       y       z     vdW  Elec       q    Type
REMARK                         _______ _______ _______ _____ _____    ______ ____
ROOT
ATOM      1  C   UNL     1       3.863   4.965  18.332  0.00  0.00    +0.000 A 
ATOM      2  C   UNL     1       2.858   5.707  18.968  0.00  0.00    +0.000 A 
ATOM      3  C   UNL     1       2.634   7.023  18.579  0.00  0.00    +0.000 A 
ATOM      4  N   UNL     1       3.270   7.612  17.542  0.00  0.00    +0.000 NA
ATOM      5  C   UNL     1       4.211   6.858  16.952  0.00  0.00    +0.000 A 
ATOM      6  O   UNL     1       4.982   7.298  15.925  0.00  0.00    +0.000 OA
ATOM      7  N   UNL     1       5.866   6.304  15.549  0.00  0.00    +0.000 NA
ATOM      8  C   UNL     1       5.612   5.266  16.357  0.00  0.00    +0.000 A 
ATOM      9  C   UNL     1       6.387   4.014  16.184  0.00  0.00    +0.000 C 
ATOM     10  C   UNL     1       4.575   5.565  17.281  0.00  0.00    +0.000 A 
ENDROOT
BRANCH   3  11
ATOM     11  C   UNL     1       1.836   7.965  19.389  0.00  0.00    +0.000 A 
ATOM     12  C   UNL     1       1.634   7.738  20.778  0.00  0.00    +0.000 A 
ATOM     13  C   UNL     1       1.175   8.749  21.627  0.00  0.00    +0.000 A 
ATOM     14  C   UNL     1       0.942   9.979  21.068  0.00  0.00    +0.000 A 
ATOM     15  C   UNL     1       1.053  10.197  19.714  0.00  0.00    +0.000 A 
ATOM     16  C   UNL     1       1.455   9.207  18.848  0.00  0.00    +0.000 A 
ATOM     17  O   UNL     1       0.839  11.499  19.383  0.00  0.00    +0.000 OA
ATOM     18  C   UNL     1       0.873  12.091  20.696  0.00  0.00    +0.000 C 
ATOM     19  O   UNL     1       0.664  11.125  21.747  0.00  0.00    +0.000 OA
ENDBRANCH   3  11
BRANCH   1  20
ATOM     20  C   UNL     1       4.197   3.607  18.780  0.00  0.00    +0.000 C 
ATOM     21  O   UNL     1       5.128   3.337  19.508  0.00  0.00    +0.000 OA
BRANCH  20  22
ATOM     22  O   UNL     1       3.384   2.722  18.153  0.00  0.00    +0.000 OA
BRANCH  22  24
ATOM     23  C   UNL     1       1.085   2.374  18.664  0.00  0.00    +0.000 C 
ATOM     24  C   UNL     1       2.511   2.004  19.033  0.00  0.00    +0.000 C 
ENDBRANCH  22  24
ENDBRANCH  20  22
ENDBRANCH   1  20
TORSDOF 4
ENDMDL
MODEL 5
REMARK VINA RESULT:      -7.8      2.127      3.806
REMARK  Name = 
REMARK  6 active torsions:
REMARK  status: ('A' for Active; 'I' for Inactive)
REMARK    1  A    between atoms: C_1  and  C_2
REMARK    2  A    between atoms: C_2  and  O_3
REMARK    3  A    between atoms: O_3  and  C_4
REMARK    4  A    between atoms: C_4  and  C_6
REMARK    5  A    between atoms: C_8  and  C_9
REMARK    6  A    between atoms: C_22  and  C_23
REMARK                            x       y       z     vdW  Elec       q    Type
REMARK                         _______ _______ _______ _____ _____    ______ ____
ROOT
ATOM      1  C   UNL     1       2.236   4.866  20.633  0.00  0.00    +0.000 A 
ATOM      2  C   UNL     1       1.483   6.035  20.807  0.00  0.00    +0.000 A 
ATOM      3  C   UNL     1       1.872   7.200  20.157  0.00  0.00    +0.000 A 
ATOM      4  N   UNL     1       2.895   7.254  19.274  0.00  0.00    +0.000 NA
ATOM      5  C   UNL     1       3.577   6.106  19.126  0.00  0.00    +0.000 A 
ATOM      6  O   UNL     1       4.661   5.984  18.318  0.00  0.00    +0.000 OA
ATOM      7  N   UNL     1       5.153   4.694  18.394  0.00  0.00    +0.000 NA
ATOM      8  C   UNL     1       4.351   4.048  19.249  0.00  0.00    +0.000 A 
ATOM      9  C   UNL     1       4.601   2.613  19.526  0.00  0.00    +0.000 C 
ATOM     10  C   UNL     1       3.334   4.902  19.759  0.00  0.00    +0.000 A 
ENDROOT
BRANCH   3  11
ATOM     11  C   UNL     1       1.343   8.529  20.523  0.00  0.00    +0.000 A 
ATOM     12  C   UNL     1       0.825   9.403  19.528  0.00  0.00    +0.000 A 
ATOM     13  C   UNL     1       0.033  10.505  19.862  0.00  0.00    +0.000 A 
ATOM     14  C   UNL     1      -0.240  10.702  21.191  0.00  0.00    +0.000 A 
ATOM     15  C   UNL     1       0.318   9.916  22.173  0.00  0.00    +0.000 A 
ATOM     16  C   UNL     1       1.141   8.855  21.877  0.00  0.00    +0.000 A 
ATOM     17  O   UNL     1      -0.134  10.244  23.414  0.00  0.00    +0.000 OA
ATOM     18  C   UNL     1      -1.228  11.107  23.051  0.00  0.00    +0.000 C 
ATOM     19  O   UNL     1      -1.123  11.603  21.701  0.00  0.00    +0.000 OA
ENDBRANCH   3  11
BRANCH   1  20
ATOM     20  C   UNL     1       1.916   3.642  21.379  0.00  0.00    +0.000 C 
ATOM     21  O   UNL     1       2.570   3.215  22.307  0.00  0.00    +0.000 OA
BRANCH  20  22
ATOM     22  O   UNL     1       0.865   3.025  20.786  0.00  0.00    +0.000 OA
BRANCH  22  24
ATOM     23  C   UNL     1       0.787   2.416  18.486  0.00  0.00    +0.000 C 
ATOM     24  C   UNL     1       1.237   1.987  19.870  0.00  0.00    +0.000 C 
ENDBRANCH  22  24
ENDBRANCH  20  22
ENDBRANCH   1  20
TORSDOF 4
ENDMDL
MODEL 6
REMARK VINA RESULT:      -7.8      0.773      1.105
REMARK  Name = 
REMARK  6 active torsions:
REMARK  status: ('A' for Active; 'I' for Inactive)
REMARK    1  A    between atoms: C_1  and  C_2
REMARK    2  A    between atoms: C_2  and  O_3
REMARK    3  A    between atoms: O_3  and  C_4
REMARK    4  A    between atoms: C_4  and  C_6
REMARK    5  A    between atoms: C_8  and  C_9
REMARK    6  A    between atoms: C_22  and  C_23
REMARK                            x       y       z     vdW  Elec       q    Type
REMARK                         _______ _______ _______ _____ _____    ______ ____
ROOT
ATOM      1  C   UNL     1       4.101   4.621  18.588  0.00  0.00    +0.000 A 
ATOM      2  C   UNL     1       3.863   5.987  18.791  0.00  0.00    +0.000 A 
ATOM      3  C   UNL     1       2.651   6.392  19.338  0.00  0.00    +0.000 A 
ATOM      4  N   UNL     1       1.709   5.530  19.784  0.00  0.00    +0.000 NA
ATOM      5  C   UNL     1       1.989   4.232  19.584  0.00  0.00    +0.000 A 
ATOM      6  O   UNL     1       1.142   3.227  19.924  0.00  0.00    +0.000 OA
ATOM      7  N   UNL     1       1.700   2.012  19.575  0.00  0.00    +0.000 NA
ATOM      8  C   UNL     1       2.888   2.300  19.029  0.00  0.00    +0.000 A 
ATOM      9  C   UNL     1       3.758   1.189  18.573  0.00  0.00    +0.000 C 
ATOM     10  C   UNL     1       3.122   3.702  18.996  0.00  0.00    +0.000 A 
ENDROOT
BRANCH   3  11
ATOM     11  C   UNL     1       2.188   7.794  19.294  0.00  0.00    +0.000 A 
ATOM     12  C   UNL     1       2.235   8.535  18.081  0.00  0.00    +0.000 A 
ATOM     13  C   UNL     1       1.521   9.726  17.922  0.00  0.00    +0.000 A 
ATOM     14  C   UNL     1       0.756  10.144  18.981  0.00  0.00    +0.000 A 
ATOM     15  C   UNL     1       0.761   9.485  20.188  0.00  0.00    +0.000 A 
ATOM     16  C   UNL     1       1.494   8.339  20.389  0.00  0.00    +0.000 A 
ATOM     17  O   UNL     1      -0.113  10.031  21.077  0.00  0.00    +0.000 OA
ATOM     18  C   UNL     1      -0.847  10.897  20.191  0.00  0.00    +0.000 C 
ATOM     19  O   UNL     1      -0.139  11.169  18.964  0.00  0.00    +0.000 OA
ENDBRANCH   3  11
BRANCH   1  20
ATOM     20  C   UNL     1       5.327   4.159  17.922  0.00  0.00    +0.000 C 
ATOM     21  O   UNL     1       6.438   4.242  18.400  0.00  0.00    +0.000 OA
BRANCH  20  22
ATOM     22  O   UNL     1       5.021   3.753  16.665  0.00  0.00    +0.000 OA
BRANCH  22  24
ATOM     23  C   UNL     1       5.501   5.646  15.305  0.00  0.00    +0.000 C 
ATOM     24  C   UNL     1       5.922   4.231  15.660  0.00  0.00    +0.000 C 
ENDBRANCH  22  24
ENDBRANCH  20  22
ENDBRANCH   1  20
TORSDOF 4
ENDMDL
MODEL 7
REMARK VINA RESULT:      -7.6      0.983      1.167
REMARK  Name = 
REMARK  6 active torsions:
REMARK  status: ('A' for Active; 'I' for Inactive)
REMARK    1  A    between atoms: C_1  and  C_2
REMARK    2  A    between atoms: C_2  and  O_3
REMARK    3  A    between atoms: O_3  and  C_4
REMARK    4  A    between atoms: C_4  and  C_6
REMARK    5  A    between atoms: C_8  and  C_9
REMARK    6  A    between atoms: C_22  and  C_23
REMARK                            x       y       z     vdW  Elec       q    Type
REMARK                         _______ _______ _______ _____ _____    ______ ____
ROOT
ATOM      1  C   UNL     1       3.623   5.012  18.734  0.00  0.00    +0.000 A 
ATOM      2  C   UNL     1       3.395   6.329  19.156  0.00  0.00    +0.000 A 
ATOM      3  C   UNL     1       2.323   6.597  19.999  0.00  0.00    +0.000 A 
ATOM      4  N   UNL     1       1.530   5.637  20.526  0.00  0.00    +0.000 NA
ATOM      5  C   UNL     1       1.797   4.389  20.107  0.00  0.00    +0.000 A 
ATOM      6  O   UNL     1       1.078   3.305  20.493  0.00  0.00    +0.000 OA
ATOM      7  N   UNL     1       1.581   2.172  19.881  0.00  0.00    +0.000 NA
ATOM      8  C   UNL     1       2.609   2.590  19.131  0.00  0.00    +0.000 A 
ATOM      9  C   UNL     1       3.389   1.592  18.360  0.00  0.00    +0.000 C 
ATOM     10  C   UNL     1       2.787   3.997  19.225  0.00  0.00    +0.000 A 
ENDROOT
BRANCH   3  11
ATOM     11  C   UNL     1       1.820   7.966  20.234  0.00  0.00    +0.000 A 
ATOM     12  C   UNL     1       1.375   8.771  19.149  0.00  0.00    +0.000 A 
ATOM     13  C   UNL     1       0.605   9.919  19.357  0.00  0.00    +0.000 A 
ATOM     14  C   UNL     1       0.279  10.229  20.653  0.00  0.00    +0.000 A 
ATOM     15  C   UNL     1       0.768   9.510  21.719  0.00  0.00    +0.000 A 
ATOM     16  C   UNL     1       1.569   8.406  21.547  0.00  0.00    +0.000 A 
ATOM     17  O   UNL     1       0.272   9.949  22.907  0.00  0.00    +0.000 OA
ATOM     18  C   UNL     1      -0.778  10.811  22.427  0.00  0.00    +0.000 C 
ATOM     19  O   UNL     1      -0.597  11.193  21.047  0.00  0.00    +0.000 OA
ENDBRANCH   3  11
BRANCH   1  20
ATOM     20  C   UNL     1       4.683   4.702  17.766  0.00  0.00    +0.000 C 
ATOM     21  O   UNL     1       4.511   4.608  16.569  0.00  0.00    +0.000 OA
BRANCH  20  22
ATOM     22  O   UNL     1       5.827   4.423  18.437  0.00  0.00    +0.000 OA
BRANCH  22  24
ATOM     23  C   UNL     1       7.453   6.143  18.184  0.00  0.00    +0.000 C 
ATOM     24  C   UNL     1       7.023   4.762  17.724  0.00  0.00    +0.000 C 
ENDBRANCH  22  24
ENDBRANCH  20  22
ENDBRANCH   1  20
TORSDOF 4
ENDMDL
MODEL 8
REMARK VINA RESULT:      -7.6      2.154      3.691
REMARK  Name = 
REMARK  6 active torsions:
REMARK  status: ('A' for Active; 'I' for Inactive)
REMARK    1  A    between atoms: C_1  and  C_2
REMARK    2  A    between atoms: C_2  and  O_3
REMARK    3  A    between atoms: O_3  and  C_4
REMARK    4  A    between atoms: C_4  and  C_6
REMARK    5  A    between atoms: C_8  and  C_9
REMARK    6  A    between atoms: C_22  and  C_23
REMARK                            x       y       z     vdW  Elec       q    Type
REMARK                         _______ _______ _______ _____ _____    ______ ____
ROOT
ATOM      1  C   UNL     1       3.866   4.940  18.063  0.00  0.00    +0.000 A 
ATOM      2  C   UNL     1       2.959   5.808  18.685  0.00  0.00    +0.000 A 
ATOM      3  C   UNL     1       2.838   7.113  18.221  0.00  0.00    +0.000 A 
ATOM      4  N   UNL     1       3.481   7.577  17.127  0.00  0.00    +0.000 NA
ATOM      5  C   UNL     1       4.326   6.705  16.553  0.00  0.00    +0.000 A 
ATOM      6  O   UNL     1       5.091   7.009  15.474  0.00  0.00    +0.000 OA
ATOM      7  N   UNL     1       5.867   5.917  15.132  0.00  0.00    +0.000 NA
ATOM      8  C   UNL     1       5.554   4.958  16.013  0.00  0.00    +0.000 A 
ATOM      9  C   UNL     1       6.205   3.632  15.893  0.00  0.00    +0.000 C 
ATOM     10  C   UNL     1       4.586   5.407  16.952  0.00  0.00    +0.000 A 
ENDROOT
BRANCH   3  11
ATOM     11  C   UNL     1       2.161   8.172  18.997  0.00  0.00    +0.000 A 
ATOM     12  C   UNL     1       1.488   9.237  18.337  0.00  0.00    +0.000 A 
ATOM     13  C   UNL     1       0.579  10.058  19.010  0.00  0.00    +0.000 A 
ATOM     14  C   UNL     1       0.347   9.783  20.333  0.00  0.00    +0.000 A 
ATOM     15  C   UNL     1       1.047   8.811  21.009  0.00  0.00    +0.000 A 
ATOM     16  C   UNL     1       1.984   8.021  20.384  0.00  0.00    +0.000 A 
ATOM     17  O   UNL     1       0.617   8.664  22.291  0.00  0.00    +0.000 OA
ATOM     18  C   UNL     1      -0.595   9.439  22.229  0.00  0.00    +0.000 C 
ATOM     19  O   UNL     1      -0.619  10.347  21.108  0.00  0.00    +0.000 OA
ENDBRANCH   3  11
BRANCH   1  20
ATOM     20  C   UNL     1       4.095   3.586  18.585  0.00  0.00    +0.000 C 
ATOM     21  O   UNL     1       5.028   3.275  19.294  0.00  0.00    +0.000 OA
BRANCH  20  22
ATOM     22  O   UNL     1       3.179   2.744  18.047  0.00  0.00    +0.000 OA
BRANCH  22  24
ATOM     23  C   UNL     1       0.911   2.509  18.730  0.00  0.00    +0.000 C 
ATOM     24  C   UNL     1       2.343   2.094  19.012  0.00  0.00    +0.000 C 
ENDBRANCH  22  24
ENDBRANCH  20  22
ENDBRANCH   1  20
TORSDOF 4
ENDMDL
MODEL 9
REMARK VINA RESULT:      -7.6      1.397      1.845
REMARK  Name = 
REMARK  6 active torsions:
REMARK  status: ('A' for Active; 'I' for Inactive)
REMARK    1  A    between atoms: C_1  and  C_2
REMARK    2  A    between atoms: C_2  and  O_3
REMARK    3  A    between atoms: O_3  and  C_4
REMARK    4  A    between atoms: C_4  and  C_6
REMARK    5  A    between atoms: C_8  and  C_9
REMARK    6  A    between atoms: C_22  and  C_23
REMARK                            x       y       z     vdW  Elec       q    Type
REMARK                         _______ _______ _______ _____ _____    ______ ____
ROOT
ATOM      1  C   UNL     1       3.532   5.172  18.862  0.00  0.00    +0.000 A 
ATOM      2  C   UNL     1       3.308   6.462  19.361  0.00  0.00    +0.000 A 
ATOM      3  C   UNL     1       2.195   6.700  20.159  0.00  0.00    +0.000 A 
ATOM      4  N   UNL     1       1.352   5.726  20.571  0.00  0.00    +0.000 NA
ATOM      5  C   UNL     1       1.616   4.503  20.081  0.00  0.00    +0.000 A 
ATOM      6  O   UNL     1       0.852   3.414  20.349  0.00  0.00    +0.000 OA
ATOM      7  N   UNL     1       1.365   2.313  19.688  0.00  0.00    +0.000 NA
ATOM      8  C   UNL     1       2.444   2.755  19.029  0.00  0.00    +0.000 A 
ATOM      9  C   UNL     1       3.246   1.793  18.236  0.00  0.00    +0.000 C 
ATOM     10  C   UNL     1       2.647   4.147  19.232  0.00  0.00    +0.000 A 
ENDROOT
BRANCH   3  11
ATOM     11  C   UNL     1       1.709   8.061  20.460  0.00  0.00    +0.000 A 
ATOM     12  C   UNL     1       1.252   8.915  19.419  0.00  0.00    +0.000 A 
ATOM     13  C   UNL     1       0.496  10.059  19.689  0.00  0.00    +0.000 A 
ATOM     14  C   UNL     1       0.197  10.318  21.002  0.00  0.00    +0.000 A 
ATOM     15  C   UNL     1       0.698   9.551  22.028  0.00  0.00    +0.000 A 
ATOM     16  C   UNL     1       1.486   8.447  21.794  0.00  0.00    +0.000 A 
ATOM     17  O   UNL     1       0.228   9.944  23.242  0.00  0.00    +0.000 OA
ATOM     18  C   UNL     1      -0.822  10.834  22.818  0.00  0.00    +0.000 C 
ATOM     19  O   UNL     1      -0.663  11.271  21.452  0.00  0.00    +0.000 OA
ENDBRANCH   3  11
BRANCH   1  20
ATOM     20  C   UNL     1       4.640   4.902  17.936  0.00  0.00    +0.000 C 
ATOM     21  O   UNL     1       5.696   4.401  18.259  0.00  0.00    +0.000 OA
BRANCH  20  22
ATOM     22  O   UNL     1       4.333   5.414  16.719  0.00  0.00    +0.000 OA
BRANCH  22  24
ATOM     23  C   UNL     1       5.563   4.759  14.789  0.00  0.00    +0.000 C 
ATOM     24  C   UNL     1       5.474   5.762  15.925  0.00  0.00    +0.000 C 
ENDBRANCH  22  24
ENDBRANCH  20  22
ENDBRANCH   1  20
TORSDOF 4
ENDMDL
