MODEL 1
REMARK VINA RESULT:      -7.3      0.000      0.000
REMARK  Name = 
REMARK  5 active torsions:
REMARK  status: ('A' for Active; 'I' for Inactive)
REMARK    1  A    between atoms: C_2  and  C_3
REMARK    2  A    between atoms: C_7  and  O_8
REMARK    3  A    between atoms: C_9  and  O_10
REMARK    4  A    between atoms: C_17  and  O_18
REMARK    5  A    between atoms: O_18  and  C_19
REMARK                            x       y       z     vdW  Elec       q    Type
REMARK                         _______ _______ _______ _____ _____    ______ ____
ROOT
ATOM      1  O   UNL     1       2.242   9.036  17.213  0.00  0.00    +0.000 OA
ATOM      2  C   UNL     1       2.105   8.428  18.277  0.00  0.00    +0.000 C 
ATOM      3  N   UNL     1       1.452   9.009  19.368  0.00  0.00    +0.000 N 
ATOM      4  C   UNL     1       0.970  10.372  19.232  0.00  0.00    +0.000 C 
ATOM      5  C   UNL     1       1.267  11.153  20.500  0.00  0.00    +0.000 C 
ATOM      6  C   UNL     1       0.652  10.479  21.734  0.00  0.00    +0.000 C 
ATOM      7  C   UNL     1       1.116   9.017  21.813  0.00  0.00    +0.000 C 
ATOM      8  C   UNL     1       0.884   8.273  20.502  0.00  0.00    +0.000 C 
ENDROOT
BRANCH   2   9
ATOM      9  C   UNL     1       2.581   7.065  18.397  0.00  0.00    +0.000 A 
ATOM     10  N   UNL     1       3.681   6.664  19.012  0.00  0.00    +0.000 NA
ATOM     11  C   UNL     1       3.656   5.297  18.953  0.00  0.00    +0.000 A 
ATOM     12  C   UNL     1       4.547   4.370  19.517  0.00  0.00    +0.000 A 
ATOM     13  C   UNL     1       4.264   3.018  19.335  0.00  0.00    +0.000 A 
ATOM     14  C   UNL     1       3.140   2.603  18.617  0.00  0.00    +0.000 A 
ATOM     15  C   UNL     1       2.246   3.504  18.049  0.00  0.00    +0.000 A 
ATOM     16  C   UNL     1       2.547   4.852  18.240  0.00  0.00    +0.000 A 
ATOM     17  N   UNL     1       1.920   6.000  17.841  0.00  0.00    +0.000 N 
ATOM     18  H   UNL     1       1.066   6.072  17.301  0.00  0.00    +0.000 HD
BRANCH  13  19
ATOM     19  O   UNL     1       5.074   2.045  19.858  0.00  0.00    +0.000 OA
ATOM     20  H   UNL     1       5.670   2.464  20.504  0.00  0.00    +0.000 HD
ENDBRANCH  13  19
BRANCH  14  21
ATOM     21  O   UNL     1       2.893   1.265  18.463  0.00  0.00    +0.000 OA
ATOM     22  H   UNL     1       3.222   0.861  19.291  0.00  0.00    +0.000 HD
ENDBRANCH  14  21
ENDBRANCH   2   9
BRANCH   6  23
ATOM     23  O   UNL     1      -0.785  10.483  21.670  0.00  0.00    +0.000 OA
BRANCH  23  24
ATOM     24  C   UNL     1      -1.410  11.694  21.820  0.00  0.00    +0.000 A 
ATOM     25  C   UNL     1      -2.199  12.312  20.847  0.00  0.00    +0.000 A 
ATOM     26  C   UNL     1      -2.812  13.537  21.107  0.00  0.00    +0.000 A 
ATOM     27  C   UNL     1      -2.623  14.147  22.339  0.00  0.00    +0.000 A 
ATOM     28  F   UNL     1      -3.199  15.331  22.579  0.00  0.00    +0.000 F 
ATOM     29  C   UNL     1      -1.846  13.545  23.320  0.00  0.00    +0.000 A 
ATOM     30  C   UNL     1      -1.247  12.308  23.066  0.00  0.00    +0.000 A 
ENDBRANCH  23  24
ENDBRANCH   6  23
TORSDOF 5
ENDMDL
MODEL 2
REMARK VINA RESULT:      -7.2      4.971     10.066
REMARK  Name = 
REMARK  5 active torsions:
REMARK  status: ('A' for Active; 'I' for Inactive)
REMARK    1  A    between atoms: C_2  and  C_3
REMARK    2  A    between atoms: C_7  and  O_8
REMARK    3  A    between atoms: C_9  and  O_10
REMARK    4  A    between atoms: C_17  and  O_18
REMARK    5  A    between atoms: O_18  and  C_19
REMARK                            x       y       z     vdW  Elec       q    Type
REMARK                         _______ _______ _______ _____ _____    ______ ____
ROOT
ATOM      1  O   UNL     1       1.920   4.853  20.751  0.00  0.00    +0.000 OA
ATOM      2  C   UNL     1       2.357   5.743  20.018  0.00  0.00    +0.000 C 
ATOM      3  N   UNL     1       3.234   5.456  18.968  0.00  0.00    +0.000 N 
ATOM      4  C   UNL     1       3.653   4.078  18.783  0.00  0.00    +0.000 C 
ATOM      5  C   UNL     1       5.139   4.029  18.471  0.00  0.00    +0.000 C 
ATOM      6  C   UNL     1       5.484   4.873  17.237  0.00  0.00    +0.000 C 
ATOM      7  C   UNL     1       4.963   6.306  17.425  0.00  0.00    +0.000 C 
ATOM      8  C   UNL     1       3.489   6.330  17.818  0.00  0.00    +0.000 C 
ENDROOT
BRANCH   2   9
ATOM      9  C   UNL     1       1.923   7.112  20.206  0.00  0.00    +0.000 A 
ATOM     10  N   UNL     1       1.780   8.031  19.266  0.00  0.00    +0.000 NA
ATOM     11  C   UNL     1       1.254   9.125  19.899  0.00  0.00    +0.000 A 
ATOM     12  C   UNL     1       0.839  10.349  19.353  0.00  0.00    +0.000 A 
ATOM     13  C   UNL     1       0.299  11.291  20.228  0.00  0.00    +0.000 A 
ATOM     14  C   UNL     1       0.178  11.024  21.594  0.00  0.00    +0.000 A 
ATOM     15  C   UNL     1       0.585   9.818  22.155  0.00  0.00    +0.000 A 
ATOM     16  C   UNL     1       1.125   8.891  21.265  0.00  0.00    +0.000 A 
ATOM     17  N   UNL     1       1.621   7.630  21.440  0.00  0.00    +0.000 N 
ATOM     18  H   UNL     1       1.684   7.114  22.309  0.00  0.00    +0.000 HD
BRANCH  13  19
ATOM     19  O   UNL     1      -0.139  12.509  19.781  0.00  0.00    +0.000 OA
ATOM     20  H   UNL     1       0.219  12.648  18.886  0.00  0.00    +0.000 HD
ENDBRANCH  13  19
BRANCH  14  21
ATOM     21  O   UNL     1      -0.361  11.971  22.422  0.00  0.00    +0.000 OA
ATOM     22  H   UNL     1       0.379  12.587  22.600  0.00  0.00    +0.000 HD
ENDBRANCH  14  21
ENDBRANCH   2   9
BRANCH   6  23
ATOM     23  O   UNL     1       4.878   4.335  16.049  0.00  0.00    +0.000 OA
BRANCH  23  24
ATOM     24  C   UNL     1       5.632   4.352  14.904  0.00  0.00    +0.000 A 
ATOM     25  C   UNL     1       6.869   4.984  14.772  0.00  0.00    +0.000 A 
ATOM     26  C   UNL     1       7.570   4.923  13.568  0.00  0.00    +0.000 A 
ATOM     27  C   UNL     1       7.023   4.236  12.493  0.00  0.00    +0.000 A 
ATOM     28  F   UNL     1       7.689   4.193  11.334  0.00  0.00    +0.000 F 
ATOM     29  C   UNL     1       5.795   3.598  12.608  0.00  0.00    +0.000 A 
ATOM     30  C   UNL     1       5.102   3.644  13.821  0.00  0.00    +0.000 A 
ENDBRANCH  23  24
ENDBRANCH   6  23
TORSDOF 5
ENDMDL
MODEL 3
REMARK VINA RESULT:      -7.1      3.771      5.239
REMARK  Name = 
REMARK  5 active torsions:
REMARK  status: ('A' for Active; 'I' for Inactive)
REMARK    1  A    between atoms: C_2  and  C_3
REMARK    2  A    between atoms: C_7  and  O_8
REMARK    3  A    between atoms: C_9  and  O_10
REMARK    4  A    between atoms: C_17  and  O_18
REMARK    5  A    between atoms: O_18  and  C_19
REMARK                            x       y       z     vdW  Elec       q    Type
REMARK                         _______ _______ _______ _____ _____    ______ ____
ROOT
ATOM      1  O   UNL     1       4.804   2.966  19.790  0.00  0.00    +0.000 OA
ATOM      2  C   UNL     1       4.533   3.896  19.028  0.00  0.00    +0.000 C 
ATOM      3  N   UNL     1       3.642   4.907  19.400  0.00  0.00    +0.000 N 
ATOM      4  C   UNL     1       3.007   4.815  20.703  0.00  0.00    +0.000 C 
ATOM      5  C   UNL     1       1.540   5.191  20.589  0.00  0.00    +0.000 C 
ATOM      6  C   UNL     1       1.362   6.595  19.995  0.00  0.00    +0.000 C 
ATOM      7  C   UNL     1       2.106   6.690  18.654  0.00  0.00    +0.000 C 
ATOM      8  C   UNL     1       3.556   6.230  18.773  0.00  0.00    +0.000 C 
ENDROOT
BRANCH   2   9
ATOM      9  C   UNL     1       5.181   3.983  17.734  0.00  0.00    +0.000 A 
ATOM     10  N   UNL     1       4.805   3.377  16.621  0.00  0.00    +0.000 NA
ATOM     11  C   UNL     1       5.652   3.839  15.649  0.00  0.00    +0.000 A 
ATOM     12  C   UNL     1       5.644   3.575  14.271  0.00  0.00    +0.000 A 
ATOM     13  C   UNL     1       6.610   4.211  13.492  0.00  0.00    +0.000 A 
ATOM     14  C   UNL     1       7.546   5.075  14.063  0.00  0.00    +0.000 A 
ATOM     15  C   UNL     1       7.572   5.349  15.426  0.00  0.00    +0.000 A 
ATOM     16  C   UNL     1       6.601   4.701  16.188  0.00  0.00    +0.000 A 
ATOM     17  N   UNL     1       6.319   4.719  17.526  0.00  0.00    +0.000 N 
ATOM     18  H   UNL     1       6.801   5.247  18.244  0.00  0.00    +0.000 HD
BRANCH  13  19
ATOM     19  O   UNL     1       6.671   4.018  12.137  0.00  0.00    +0.000 OA
ATOM     20  H   UNL     1       7.551   3.662  11.923  0.00  0.00    +0.000 HD
ENDBRANCH  13  19
BRANCH  14  21
ATOM     21  O   UNL     1       8.477   5.685  13.265  0.00  0.00    +0.000 OA
ATOM     22  H   UNL     1       9.240   5.841  13.858  0.00  0.00    +0.000 HD
ENDBRANCH  14  21
ENDBRANCH   2   9
BRANCH   6  23
ATOM     23  O   UNL     1       1.896   7.604  20.869  0.00  0.00    +0.000 OA
BRANCH  23  24
ATOM     24  C   UNL     1       1.083   8.671  21.156  0.00  0.00    +0.000 A 
ATOM     25  C   UNL     1       0.578   9.567  20.213  0.00  0.00    +0.000 A 
ATOM     26  C   UNL     1      -0.262  10.608  20.606  0.00  0.00    +0.000 A 
ATOM     27  C   UNL     1      -0.585  10.755  21.947  0.00  0.00    +0.000 A 
ATOM     28  F   UNL     1      -1.378  11.766  22.323  0.00  0.00    +0.000 F 
ATOM     29  C   UNL     1      -0.096   9.870  22.899  0.00  0.00    +0.000 A 
ATOM     30  C   UNL     1       0.731   8.816  22.502  0.00  0.00    +0.000 A 
ENDBRANCH  23  24
ENDBRANCH   6  23
TORSDOF 5
ENDMDL
MODEL 4
REMARK VINA RESULT:      -7.1      5.010     10.038
REMARK  Name = 
REMARK  5 active torsions:
REMARK  status: ('A' for Active; 'I' for Inactive)
REMARK    1  A    between atoms: C_2  and  C_3
REMARK    2  A    between atoms: C_7  and  O_8
REMARK    3  A    between atoms: C_9  and  O_10
REMARK    4  A    between atoms: C_17  and  O_18
REMARK    5  A    between atoms: O_18  and  C_19
REMARK                            x       y       z     vdW  Elec       q    Type
REMARK                         _______ _______ _______ _____ _____    ______ ____
ROOT
ATOM      1  O   UNL     1       2.538   5.043  20.847  0.00  0.00    +0.000 OA
ATOM      2  C   UNL     1       2.813   5.827  19.936  0.00  0.00    +0.000 C 
ATOM      3  N   UNL     1       3.731   5.490  18.937  0.00  0.00    +0.000 N 
ATOM      4  C   UNL     1       4.390   4.198  19.020  0.00  0.00    +0.000 C 
ATOM      5  C   UNL     1       5.862   4.347  18.677  0.00  0.00    +0.000 C 
ATOM      6  C   UNL     1       6.056   4.969  17.287  0.00  0.00    +0.000 C 
ATOM      7  C   UNL     1       5.288   6.297  17.200  0.00  0.00    +0.000 C 
ATOM      8  C   UNL     1       3.832   6.142  17.628  0.00  0.00    +0.000 C 
ENDROOT
BRANCH   2   9
ATOM      9  C   UNL     1       2.141   7.109  19.859  0.00  0.00    +0.000 A 
ATOM     10  N   UNL     1       1.485   7.716  20.833  0.00  0.00    +0.000 NA
ATOM     11  C   UNL     1       1.118   8.933  20.325  0.00  0.00    +0.000 A 
ATOM     12  C   UNL     1       0.465   9.998  20.964  0.00  0.00    +0.000 A 
ATOM     13  C   UNL     1       0.242  11.153  20.216  0.00  0.00    +0.000 A 
ATOM     14  C   UNL     1       0.651  11.244  18.883  0.00  0.00    +0.000 A 
ATOM     15  C   UNL     1       1.297  10.199  18.231  0.00  0.00    +0.000 A 
ATOM     16  C   UNL     1       1.508   9.052  18.995  0.00  0.00    +0.000 A 
ATOM     17  N   UNL     1       2.096   7.851  18.707  0.00  0.00    +0.000 N 
ATOM     18  H   UNL     1       2.509   7.570  17.826  0.00  0.00    +0.000 HD
BRANCH  13  19
ATOM     19  O   UNL     1      -0.380  12.245  20.761  0.00  0.00    +0.000 OA
ATOM     20  H   UNL     1      -1.341  12.115  20.682  0.00  0.00    +0.000 HD
ENDBRANCH  13  19
BRANCH  14  21
ATOM     21  O   UNL     1       0.418  12.396  18.182  0.00  0.00    +0.000 OA
ATOM     22  H   UNL     1       0.777  12.213  17.290  0.00  0.00    +0.000 HD
ENDBRANCH  14  21
ENDBRANCH   2   9
BRANCH   6  23
ATOM     23  O   UNL     1       5.560   4.103  16.252  0.00  0.00    +0.000 OA
BRANCH  23  24
ATOM     24  C   UNL     1       6.096   4.262  15.000  0.00  0.00    +0.000 A 
ATOM     25  C   UNL     1       7.238   5.009  14.708  0.00  0.00    +0.000 A 
ATOM     26  C   UNL     1       7.717   5.088  13.401  0.00  0.00    +0.000 A 
ATOM     27  C   UNL     1       7.041   4.426  12.385  0.00  0.00    +0.000 A 
ATOM     28  F   UNL     1       7.493   4.519  11.129  0.00  0.00    +0.000 F 
ATOM     29  C   UNL     1       5.906   3.675  12.657  0.00  0.00    +0.000 A 
ATOM     30  C   UNL     1       5.437   3.581  13.971  0.00  0.00    +0.000 A 
ENDBRANCH  23  24
ENDBRANCH   6  23
TORSDOF 5
ENDMDL
MODEL 5
REMARK VINA RESULT:      -7.1      0.251      1.649
REMARK  Name = 
REMARK  5 active torsions:
REMARK  status: ('A' for Active; 'I' for Inactive)
REMARK    1  A    between atoms: C_2  and  C_3
REMARK    2  A    between atoms: C_7  and  O_8
REMARK    3  A    between atoms: C_9  and  O_10
REMARK    4  A    between atoms: C_17  and  O_18
REMARK    5  A    between atoms: O_18  and  C_19
REMARK                            x       y       z     vdW  Elec       q    Type
REMARK                         _______ _______ _______ _____ _____    ______ ____
ROOT
ATOM      1  O   UNL     1       2.352   8.820  17.325  0.00  0.00    +0.000 OA
ATOM      2  C   UNL     1       2.087   8.270  18.396  0.00  0.00    +0.000 C 
ATOM      3  N   UNL     1       1.411   8.947  19.415  0.00  0.00    +0.000 N 
ATOM      4  C   UNL     1       1.059  10.339  19.196  0.00  0.00    +0.000 C 
ATOM      5  C   UNL     1       1.330  11.144  20.455  0.00  0.00    +0.000 C 
ATOM      6  C   UNL     1       0.572  10.575  21.662  0.00  0.00    +0.000 C 
ATOM      7  C   UNL     1       0.902   9.084  21.826  0.00  0.00    +0.000 C 
ATOM      8  C   UNL     1       0.702   8.308  20.528  0.00  0.00    +0.000 C 
ENDROOT
BRANCH   2   9
ATOM      9  C   UNL     1       2.434   6.878  18.599  0.00  0.00    +0.000 A 
ATOM     10  N   UNL     1       1.819   5.828  18.081  0.00  0.00    +0.000 NA
ATOM     11  C   UNL     1       2.560   4.743  18.466  0.00  0.00    +0.000 A 
ATOM     12  C   UNL     1       2.392   3.391  18.127  0.00  0.00    +0.000 A 
ATOM     13  C   UNL     1       3.322   2.484  18.633  0.00  0.00    +0.000 A 
ATOM     14  C   UNL     1       4.377   2.905  19.445  0.00  0.00    +0.000 A 
ATOM     15  C   UNL     1       4.560   4.239  19.795  0.00  0.00    +0.000 A 
ATOM     16  C   UNL     1       3.618   5.130  19.282  0.00  0.00    +0.000 A 
ATOM     17  N   UNL     1       3.472   6.484  19.404  0.00  0.00    +0.000 N 
ATOM     18  H   UNL     1       4.067   7.117  19.924  0.00  0.00    +0.000 HD
BRANCH  13  19
ATOM     19  O   UNL     1       3.240   1.147  18.345  0.00  0.00    +0.000 OA
ATOM     20  H   UNL     1       3.364   1.037  17.386  0.00  0.00    +0.000 HD
ENDBRANCH  13  19
BRANCH  14  21
ATOM     21  O   UNL     1       5.273   1.985  19.920  0.00  0.00    +0.000 OA
ATOM     22  H   UNL     1       4.794   1.533  20.644  0.00  0.00    +0.000 HD
ENDBRANCH  14  21
ENDBRANCH   2   9
BRANCH   6  23
ATOM     23  O   UNL     1      -0.851  10.695  21.491  0.00  0.00    +0.000 OA
BRANCH  23  24
ATOM     24  C   UNL     1      -1.418  11.895  21.836  0.00  0.00    +0.000 A 
ATOM     25  C   UNL     1      -1.305  12.502  23.087  0.00  0.00    +0.000 A 
ATOM     26  C   UNL     1      -1.902  13.738  23.331  0.00  0.00    +0.000 A 
ATOM     27  C   UNL     1      -2.623  14.359  22.320  0.00  0.00    +0.000 A 
ATOM     28  F   UNL     1      -3.210  15.537  22.562  0.00  0.00    +0.000 F 
ATOM     29  C   UNL     1      -2.743  13.772  21.068  0.00  0.00    +0.000 A 
ATOM     30  C   UNL     1      -2.128  12.542  20.819  0.00  0.00    +0.000 A 
ENDBRANCH  23  24
ENDBRANCH   6  23
TORSDOF 5
ENDMDL
MODEL 6
REMARK VINA RESULT:      -7.1      4.937     10.015
REMARK  Name = 
REMARK  5 active torsions:
REMARK  status: ('A' for Active; 'I' for Inactive)
REMARK    1  A    between atoms: C_2  and  C_3
REMARK    2  A    between atoms: C_7  and  O_8
REMARK    3  A    between atoms: C_9  and  O_10
REMARK    4  A    between atoms: C_17  and  O_18
REMARK    5  A    between atoms: O_18  and  C_19
REMARK                            x       y       z     vdW  Elec       q    Type
REMARK                         _______ _______ _______ _____ _____    ______ ____
ROOT
ATOM      1  O   UNL     1       2.240   5.231  20.843  0.00  0.00    +0.000 OA
ATOM      2  C   UNL     1       2.609   5.981  19.936  0.00  0.00    +0.000 C 
ATOM      3  N   UNL     1       3.503   5.548  18.952  0.00  0.00    +0.000 N 
ATOM      4  C   UNL     1       4.023   4.196  19.046  0.00  0.00    +0.000 C 
ATOM      5  C   UNL     1       5.508   4.191  18.726  0.00  0.00    +0.000 C 
ATOM      6  C   UNL     1       5.788   4.786  17.340  0.00  0.00    +0.000 C 
ATOM      7  C   UNL     1       5.162   6.186  17.239  0.00  0.00    +0.000 C 
ATOM      8  C   UNL     1       3.691   6.184  17.644  0.00  0.00    +0.000 C 
ENDROOT
BRANCH   2   9
ATOM      9  C   UNL     1       2.075   7.325  19.847  0.00  0.00    +0.000 A 
ATOM     10  N   UNL     1       2.010   8.078  18.761  0.00  0.00    +0.000 NA
ATOM     11  C   UNL     1       1.340   9.210  19.141  0.00  0.00    +0.000 A 
ATOM     12  C   UNL     1       0.935  10.303  18.359  0.00  0.00    +0.000 A 
ATOM     13  C   UNL     1       0.226  11.320  18.997  0.00  0.00    +0.000 A 
ATOM     14  C   UNL     1      -0.066  11.252  20.361  0.00  0.00    +0.000 A 
ATOM     15  C   UNL     1       0.328  10.180  21.154  0.00  0.00    +0.000 A 
ATOM     16  C   UNL     1       1.038   9.175  20.498  0.00  0.00    +0.000 A 
ATOM     17  N   UNL     1       1.577   7.996  20.934  0.00  0.00    +0.000 N 
ATOM     18  H   UNL     1       1.549   7.623  21.875  0.00  0.00    +0.000 HD
BRANCH  13  19
ATOM     19  O   UNL     1      -0.216  12.419  18.309  0.00  0.00    +0.000 OA
ATOM     20  H   UNL     1      -0.276  12.180  17.367  0.00  0.00    +0.000 HD
ENDBRANCH  13  19
BRANCH  14  21
ATOM     21  O   UNL     1      -0.768  12.268  20.952  0.00  0.00    +0.000 OA
ATOM     22  H   UNL     1      -1.307  11.823  21.638  0.00  0.00    +0.000 HD
ENDBRANCH  14  21
ENDBRANCH   2   9
BRANCH   6  23
ATOM     23  O   UNL     1       5.221   3.974  16.297  0.00  0.00    +0.000 OA
BRANCH  23  24
ATOM     24  C   UNL     1       5.777   4.089  15.049  0.00  0.00    +0.000 A 
ATOM     25  C   UNL     1       5.240   3.543  13.882  0.00  0.00    +0.000 A 
ATOM     26  C   UNL     1       5.872   3.737  12.655  0.00  0.00    +0.000 A 
ATOM     27  C   UNL     1       7.050   4.469  12.601  0.00  0.00    +0.000 A 
ATOM     28  F   UNL     1       7.664   4.639  11.424  0.00  0.00    +0.000 F 
ATOM     29  C   UNL     1       7.596   5.023  13.752  0.00  0.00    +0.000 A 
ATOM     30  C   UNL     1       6.952   4.844  14.979  0.00  0.00    +0.000 A 
ENDBRANCH  23  24
ENDBRANCH   6  23
TORSDOF 5
ENDMDL
MODEL 7
REMARK VINA RESULT:      -7.0      1.444      1.549
REMARK  Name = 
REMARK  5 active torsions:
REMARK  status: ('A' for Active; 'I' for Inactive)
REMARK    1  A    between atoms: C_2  and  C_3
REMARK    2  A    between atoms: C_7  and  O_8
REMARK    3  A    between atoms: C_9  and  O_10
REMARK    4  A    between atoms: C_17  and  O_18
REMARK    5  A    between atoms: O_18  and  C_19
REMARK                            x       y       z     vdW  Elec       q    Type
REMARK                         _______ _______ _______ _____ _____    ______ ____
ROOT
ATOM      1  O   UNL     1       2.176   9.393  17.336  0.00  0.00    +0.000 OA
ATOM      2  C   UNL     1       1.827   8.978  18.443  0.00  0.00    +0.000 C 
ATOM      3  N   UNL     1       1.177   9.808  19.360  0.00  0.00    +0.000 N 
ATOM      4  C   UNL     1       0.955  11.195  18.992  0.00  0.00    +0.000 C 
ATOM      5  C   UNL     1       1.251  12.097  20.178  0.00  0.00    +0.000 C 
ATOM      6  C   UNL     1       0.404  11.717  21.400  0.00  0.00    +0.000 C 
ATOM      7  C   UNL     1       0.597  10.227  21.723  0.00  0.00    +0.000 C 
ATOM      8  C   UNL     1       0.376   9.344  20.499  0.00  0.00    +0.000 C 
ENDROOT
BRANCH   2   9
ATOM      9  C   UNL     1       2.045   7.589  18.795  0.00  0.00    +0.000 A 
ATOM     10  N   UNL     1       2.178   7.095  20.015  0.00  0.00    +0.000 NA
ATOM     11  C   UNL     1       2.257   5.738  19.854  0.00  0.00    +0.000 A 
ATOM     12  C   UNL     1       2.331   4.734  20.831  0.00  0.00    +0.000 A 
ATOM     13  C   UNL     1       2.366   3.412  20.390  0.00  0.00    +0.000 A 
ATOM     14  C   UNL     1       2.330   3.102  19.029  0.00  0.00    +0.000 A 
ATOM     15  C   UNL     1       2.260   4.082  18.044  0.00  0.00    +0.000 A 
ATOM     16  C   UNL     1       2.229   5.397  18.505  0.00  0.00    +0.000 A 
ATOM     17  N   UNL     1       2.162   6.598  17.855  0.00  0.00    +0.000 N 
ATOM     18  H   UNL     1       2.118   6.748  16.854  0.00  0.00    +0.000 HD
BRANCH  13  19
ATOM     19  O   UNL     1       2.429   2.368  21.275  0.00  0.00    +0.000 OA
ATOM     20  H   UNL     1       2.639   2.730  22.153  0.00  0.00    +0.000 HD
ENDBRANCH  13  19
BRANCH  14  21
ATOM     21  O   UNL     1       2.362   1.792  18.633  0.00  0.00    +0.000 OA
ATOM     22  H   UNL     1       3.306   1.541  18.701  0.00  0.00    +0.000 HD
ENDBRANCH  14  21
ENDBRANCH   2   9
BRANCH   6  23
ATOM     23  O   UNL     1      -0.996  11.937  21.156  0.00  0.00    +0.000 OA
BRANCH  23  24
ATOM     24  C   UNL     1      -1.697  12.606  22.126  0.00  0.00    +0.000 A 
ATOM     25  C   UNL     1      -3.037  12.377  22.444  0.00  0.00    +0.000 A 
ATOM     26  C   UNL     1      -3.654  13.097  23.467  0.00  0.00    +0.000 A 
ATOM     27  C   UNL     1      -2.928  14.054  24.162  0.00  0.00    +0.000 A 
ATOM     28  F   UNL     1      -3.528  14.755  25.132  0.00  0.00    +0.000 F 
ATOM     29  C   UNL     1      -1.593  14.291  23.862  0.00  0.00    +0.000 A 
ATOM     30  C   UNL     1      -0.970  13.557  22.850  0.00  0.00    +0.000 A 
ENDBRANCH  23  24
ENDBRANCH   6  23
TORSDOF 5
ENDMDL
MODEL 8
REMARK VINA RESULT:      -7.0      1.630      1.933
REMARK  Name = 
REMARK  5 active torsions:
REMARK  status: ('A' for Active; 'I' for Inactive)
REMARK    1  A    between atoms: C_2  and  C_3
REMARK    2  A    between atoms: C_7  and  O_8
REMARK    3  A    between atoms: C_9  and  O_10
REMARK    4  A    between atoms: C_17  and  O_18
REMARK    5  A    between atoms: O_18  and  C_19
REMARK                            x       y       z     vdW  Elec       q    Type
REMARK                         _______ _______ _______ _____ _____    ______ ____
ROOT
ATOM      1  O   UNL     1       2.530   9.449  17.494  0.00  0.00    +0.000 OA
ATOM      2  C   UNL     1       1.958   9.016  18.498  0.00  0.00    +0.000 C 
ATOM      3  N   UNL     1       1.138   9.835  19.279  0.00  0.00    +0.000 N 
ATOM      4  C   UNL     1       1.005  11.231  18.901  0.00  0.00    +0.000 C 
ATOM      5  C   UNL     1       1.057  12.108  20.140  0.00  0.00    +0.000 C 
ATOM      6  C   UNL     1      -0.024  11.714  21.155  0.00  0.00    +0.000 C 
ATOM      7  C   UNL     1       0.090  10.217  21.481  0.00  0.00    +0.000 C 
ATOM      8  C   UNL     1       0.119   9.359  20.219  0.00  0.00    +0.000 C 
ENDROOT
BRANCH   2   9
ATOM      9  C   UNL     1       2.091   7.619  18.858  0.00  0.00    +0.000 A 
ATOM     10  N   UNL     1       2.163   7.123  20.082  0.00  0.00    +0.000 NA
ATOM     11  C   UNL     1       2.174   5.763  19.926  0.00  0.00    +0.000 A 
ATOM     12  C   UNL     1       2.166   4.760  20.908  0.00  0.00    +0.000 A 
ATOM     13  C   UNL     1       2.142   3.436  20.471  0.00  0.00    +0.000 A 
ATOM     14  C   UNL     1       2.127   3.124  19.110  0.00  0.00    +0.000 A 
ATOM     15  C   UNL     1       2.137   4.102  18.121  0.00  0.00    +0.000 A 
ATOM     16  C   UNL     1       2.164   5.419  18.578  0.00  0.00    +0.000 A 
ATOM     17  N   UNL     1       2.180   6.619  17.924  0.00  0.00    +0.000 N 
ATOM     18  H   UNL     1       2.173   6.768  16.922  0.00  0.00    +0.000 HD
BRANCH  13  19
ATOM     19  O   UNL     1       2.124   2.394  21.359  0.00  0.00    +0.000 OA
ATOM     20  H   UNL     1       1.387   2.539  21.979  0.00  0.00    +0.000 HD
ENDBRANCH  13  19
BRANCH  14  21
ATOM     21  O   UNL     1       2.099   1.812  18.718  0.00  0.00    +0.000 OA
ATOM     22  H   UNL     1       1.192   1.681  18.376  0.00  0.00    +0.000 HD
ENDBRANCH  14  21
ENDBRANCH   2   9
BRANCH   6  23
ATOM     23  O   UNL     1      -1.343  11.953  20.634  0.00  0.00    +0.000 OA
BRANCH  23  24
ATOM     24  C   UNL     1      -2.326  12.249  21.544  0.00  0.00    +0.000 A 
ATOM     25  C   UNL     1      -2.191  12.142  22.929  0.00  0.00    +0.000 A 
ATOM     26  C   UNL     1      -3.246  12.492  23.771  0.00  0.00    +0.000 A 
ATOM     27  C   UNL     1      -4.440  12.937  23.221  0.00  0.00    +0.000 A 
ATOM     28  F   UNL     1      -5.456  13.256  24.032  0.00  0.00    +0.000 F 
ATOM     29  C   UNL     1      -4.590  13.054  21.846  0.00  0.00    +0.000 A 
ATOM     30  C   UNL     1      -3.526  12.722  21.003  0.00  0.00    +0.000 A 
ENDBRANCH  23  24
ENDBRANCH   6  23
TORSDOF 5
ENDMDL
MODEL 9
REMARK VINA RESULT:      -6.9      3.005      3.841
REMARK  Name = 
REMARK  5 active torsions:
REMARK  status: ('A' for Active; 'I' for Inactive)
REMARK    1  A    between atoms: C_2  and  C_3
REMARK    2  A    between atoms: C_7  and  O_8
REMARK    3  A    between atoms: C_9  and  O_10
REMARK    4  A    between atoms: C_17  and  O_18
REMARK    5  A    between atoms: O_18  and  C_19
REMARK                            x       y       z     vdW  Elec       q    Type
REMARK                         _______ _______ _______ _____ _____    ______ ____
ROOT
ATOM      1  O   UNL     1       1.584   5.981  21.040  0.00  0.00    +0.000 OA
ATOM      2  C   UNL     1       2.081   6.571  20.078  0.00  0.00    +0.000 C 
ATOM      3  N   UNL     1       1.751   7.898  19.788  0.00  0.00    +0.000 N 
ATOM      4  C   UNL     1       0.771   8.560  20.630  0.00  0.00    +0.000 C 
ATOM      5  C   UNL     1      -0.181   9.375  19.772  0.00  0.00    +0.000 C 
ATOM      6  C   UNL     1       0.572  10.396  18.908  0.00  0.00    +0.000 C 
ATOM      7  C   UNL     1       1.654   9.682  18.084  0.00  0.00    +0.000 C 
ATOM      8  C   UNL     1       2.548   8.804  18.954  0.00  0.00    +0.000 C 
ENDROOT
BRANCH   2   9
ATOM      9  C   UNL     1       3.066   5.903  19.251  0.00  0.00    +0.000 A 
ATOM     10  N   UNL     1       2.850   5.314  18.086  0.00  0.00    +0.000 NA
ATOM     11  C   UNL     1       4.084   4.923  17.640  0.00  0.00    +0.000 A 
ATOM     12  C   UNL     1       4.434   4.319  16.422  0.00  0.00    +0.000 A 
ATOM     13  C   UNL     1       5.785   4.055  16.204  0.00  0.00    +0.000 A 
ATOM     14  C   UNL     1       6.750   4.378  17.160  0.00  0.00    +0.000 A 
ATOM     15  C   UNL     1       6.424   4.974  18.374  0.00  0.00    +0.000 A 
ATOM     16  C   UNL     1       5.068   5.227  18.575  0.00  0.00    +0.000 A 
ATOM     17  N   UNL     1       4.382   5.788  19.617  0.00  0.00    +0.000 N 
ATOM     18  H   UNL     1       4.770   6.142  20.482  0.00  0.00    +0.000 HD
BRANCH  13  19
ATOM     19  O   UNL     1       6.217   3.476  15.040  0.00  0.00    +0.000 OA
ATOM     20  H   UNL     1       7.129   3.776  14.875  0.00  0.00    +0.000 HD
ENDBRANCH  13  19
BRANCH  14  21
ATOM     21  O   UNL     1       8.068   4.107  16.908  0.00  0.00    +0.000 OA
ATOM     22  H   UNL     1       8.384   4.888  16.408  0.00  0.00    +0.000 HD
ENDBRANCH  14  21
ENDBRANCH   2   9
BRANCH   6  23
ATOM     23  O   UNL     1       1.221  11.390  19.720  0.00  0.00    +0.000 OA
BRANCH  23  24
ATOM     24  C   UNL     1       1.060  12.699  19.346  0.00  0.00    +0.000 A 
ATOM     25  C   UNL     1      -0.155  13.385  19.339  0.00  0.00    +0.000 A 
ATOM     26  C   UNL     1      -0.208  14.726  18.962  0.00  0.00    +0.000 A 
ATOM     27  C   UNL     1       0.957  15.375  18.580  0.00  0.00    +0.000 A 
ATOM     28  F   UNL     1       0.900  16.658  18.202  0.00  0.00    +0.000 F 
ATOM     29  C   UNL     1       2.176  14.710  18.585  0.00  0.00    +0.000 A 
ATOM     30  C   UNL     1       2.232  13.371  18.981  0.00  0.00    +0.000 A 
ENDBRANCH  23  24
ENDBRANCH   6  23
TORSDOF 5
ENDMDL
