MODEL 1
REMARK VINA RESULT:      -4.8      0.000      0.000
REMARK  Name = 
REMARK  2 active torsions:
REMARK  status: ('A' for Active; 'I' for Inactive)
REMARK    1  A    between atoms: C_1  and  C_2
REMARK    2  A    between atoms: N_8  and  C_9
REMARK                            x       y       z     vdW  Elec       q    Type
REMARK                         _______ _______ _______ _____ _____    ______ ____
ROOT
ATOM      1  C   UNL     1       1.391   2.514  18.512  0.00  0.00    +0.000 C 
ATOM      2  C   UNL     1       2.329   3.599  18.070  0.00  0.00    +0.000 A 
ATOM      3  C   UNL     1       2.055   4.936  18.333  0.00  0.00    +0.000 A 
ATOM      4  C   UNL     1       2.944   5.920  17.908  0.00  0.00    +0.000 A 
ATOM      5 BR   UNL     1       2.486   7.721  18.313  0.00  0.00    +0.000 Br
ATOM      6  C   UNL     1       4.116   5.562  17.213  0.00  0.00    +0.000 A 
ATOM      7 CL   UNL     1       5.215   6.798  16.686  0.00  0.00    +0.000 Cl
ATOM      8  N   UNL     1       4.361   4.242  16.967  0.00  0.00    +0.000 N 
ATOM      9  C   UNL     1       5.565   3.782  16.244  0.00  0.00    +0.000 C 
ATOM     10  C   UNL     1       3.497   3.283  17.382  0.00  0.00    +0.000 A 
ENDROOT
TORSDOF 0
ENDMDL
MODEL 2
REMARK VINA RESULT:      -4.8      2.528      3.341
REMARK  Name = 
REMARK  2 active torsions:
REMARK  status: ('A' for Active; 'I' for Inactive)
REMARK    1  A    between atoms: C_1  and  C_2
REMARK    2  A    between atoms: N_8  and  C_9
REMARK                            x       y       z     vdW  Elec       q    Type
REMARK                         _______ _______ _______ _____ _____    ______ ____
ROOT
ATOM      1  C   UNL     1       2.670   7.752  18.218  0.00  0.00    +0.000 C 
ATOM      2  C   UNL     1       2.860   6.263  18.204  0.00  0.00    +0.000 A 
ATOM      3  C   UNL     1       2.075   5.432  18.994  0.00  0.00    +0.000 A 
ATOM      4  C   UNL     1       2.277   4.054  18.961  0.00  0.00    +0.000 A 
ATOM      5 BR   UNL     1       1.157   2.997  20.075  0.00  0.00    +0.000 Br
ATOM      6  C   UNL     1       3.274   3.505  18.129  0.00  0.00    +0.000 A 
ATOM      7 CL   UNL     1       3.518   1.788  18.099  0.00  0.00    +0.000 Cl
ATOM      8  N   UNL     1       4.031   4.344  17.364  0.00  0.00    +0.000 N 
ATOM      9  C   UNL     1       5.097   3.852  16.467  0.00  0.00    +0.000 C 
ATOM     10  C   UNL     1       3.834   5.686  17.395  0.00  0.00    +0.000 A 
ENDROOT
TORSDOF 0
ENDMDL
MODEL 3
REMARK VINA RESULT:      -4.7      2.001      2.234
REMARK  Name = 
REMARK  2 active torsions:
REMARK  status: ('A' for Active; 'I' for Inactive)
REMARK    1  A    between atoms: C_1  and  C_2
REMARK    2  A    between atoms: N_8  and  C_9
REMARK                            x       y       z     vdW  Elec       q    Type
REMARK                         _______ _______ _______ _____ _____    ______ ____
ROOT
ATOM      1  C   UNL     1       1.484   2.566  21.507  0.00  0.00    +0.000 C 
ATOM      2  C   UNL     1       2.022   3.618  20.581  0.00  0.00    +0.000 A 
ATOM      3  C   UNL     1       1.745   4.965  20.787  0.00  0.00    +0.000 A 
ATOM      4  C   UNL     1       2.257   5.917  19.908  0.00  0.00    +0.000 A 
ATOM      5 BR   UNL     1       1.826   7.734  20.269  0.00  0.00    +0.000 Br
ATOM      6  C   UNL     1       3.051   5.517  18.815  0.00  0.00    +0.000 A 
ATOM      7 CL   UNL     1       3.681   6.713  17.727  0.00  0.00    +0.000 Cl
ATOM      8  N   UNL     1       3.307   4.189  18.637  0.00  0.00    +0.000 N 
ATOM      9  C   UNL     1       4.129   3.685  17.516  0.00  0.00    +0.000 C 
ATOM     10  C   UNL     1       2.811   3.261  19.492  0.00  0.00    +0.000 A 
ENDROOT
TORSDOF 0
ENDMDL
MODEL 4
REMARK VINA RESULT:      -4.7      2.570      4.113
REMARK  Name = 
REMARK  2 active torsions:
REMARK  status: ('A' for Active; 'I' for Inactive)
REMARK    1  A    between atoms: C_1  and  C_2
REMARK    2  A    between atoms: N_8  and  C_9
REMARK                            x       y       z     vdW  Elec       q    Type
REMARK                         _______ _______ _______ _____ _____    ______ ____
ROOT
ATOM      1  C   UNL     1       6.333   3.973  13.587  0.00  0.00    +0.000 C 
ATOM      2  C   UNL     1       6.110   4.349  15.023  0.00  0.00    +0.000 A 
ATOM      3  C   UNL     1       6.798   5.408  15.602  0.00  0.00    +0.000 A 
ATOM      4  C   UNL     1       6.571   5.732  16.938  0.00  0.00    +0.000 A 
ATOM      5 BR   UNL     1       7.557   7.195  17.645  0.00  0.00    +0.000 Br
ATOM      6  C   UNL     1       5.646   4.988  17.698  0.00  0.00    +0.000 A 
ATOM      7 CL   UNL     1       5.373   5.399  19.362  0.00  0.00    +0.000 Cl
ATOM      8  N   UNL     1       4.984   3.953  17.104  0.00  0.00    +0.000 N 
ATOM      9  C   UNL     1       4.000   3.122  17.830  0.00  0.00    +0.000 C 
ATOM     10  C   UNL     1       5.204   3.638  15.803  0.00  0.00    +0.000 A 
ENDROOT
TORSDOF 0
ENDMDL
MODEL 5
REMARK VINA RESULT:      -4.7      2.044      2.854
REMARK  Name = 
REMARK  2 active torsions:
REMARK  status: ('A' for Active; 'I' for Inactive)
REMARK    1  A    between atoms: C_1  and  C_2
REMARK    2  A    between atoms: N_8  and  C_9
REMARK                            x       y       z     vdW  Elec       q    Type
REMARK                         _______ _______ _______ _____ _____    ______ ____
ROOT
ATOM      1  C   UNL     1       1.218   2.499  18.540  0.00  0.00    +0.000 C 
ATOM      2  C   UNL     1       2.177   3.589  18.160  0.00  0.00    +0.000 A 
ATOM      3  C   UNL     1       3.278   3.327  17.352  0.00  0.00    +0.000 A 
ATOM      4  C   UNL     1       4.151   4.360  17.019  0.00  0.00    +0.000 A 
ATOM      5 BR   UNL     1       5.628   3.908  15.910  0.00  0.00    +0.000 Br
ATOM      6  C   UNL     1       3.920   5.665  17.499  0.00  0.00    +0.000 A 
ATOM      7 CL   UNL     1       5.016   6.942  17.078  0.00  0.00    +0.000 Cl
ATOM      8  N   UNL     1       2.832   5.894  18.290  0.00  0.00    +0.000 N 
ATOM      9  C   UNL     1       2.518   7.231  18.836  0.00  0.00    +0.000 C 
ATOM     10  C   UNL     1       1.980   4.889  18.614  0.00  0.00    +0.000 A 
ENDROOT
TORSDOF 0
ENDMDL
MODEL 6
REMARK VINA RESULT:      -4.7      2.742      3.573
REMARK  Name = 
REMARK  2 active torsions:
REMARK  status: ('A' for Active; 'I' for Inactive)
REMARK    1  A    between atoms: C_1  and  C_2
REMARK    2  A    between atoms: N_8  and  C_9
REMARK                            x       y       z     vdW  Elec       q    Type
REMARK                         _______ _______ _______ _____ _____    ______ ____
ROOT
ATOM      1  C   UNL     1       1.527   2.860  21.525  0.00  0.00    +0.000 C 
ATOM      2  C   UNL     1       2.042   3.882  20.554  0.00  0.00    +0.000 A 
ATOM      3  C   UNL     1       2.775   3.503  19.435  0.00  0.00    +0.000 A 
ATOM      4  C   UNL     1       3.241   4.476  18.553  0.00  0.00    +0.000 A 
ATOM      5 BR   UNL     1       4.234   3.864  17.051  0.00  0.00    +0.000 Br
ATOM      6  C   UNL     1       2.971   5.838  18.795  0.00  0.00    +0.000 A 
ATOM      7 CL   UNL     1       3.560   7.040  17.691  0.00  0.00    +0.000 Cl
ATOM      8  N   UNL     1       2.250   6.181  19.901  0.00  0.00    +0.000 N 
ATOM      9  C   UNL     1       1.925   7.586  20.229  0.00  0.00    +0.000 C 
ATOM     10  C   UNL     1       1.794   5.235  20.760  0.00  0.00    +0.000 A 
ENDROOT
TORSDOF 0
ENDMDL
MODEL 7
REMARK VINA RESULT:      -4.7      2.771      3.491
REMARK  Name = 
REMARK  2 active torsions:
REMARK  status: ('A' for Active; 'I' for Inactive)
REMARK    1  A    between atoms: C_1  and  C_2
REMARK    2  A    between atoms: N_8  and  C_9
REMARK                            x       y       z     vdW  Elec       q    Type
REMARK                         _______ _______ _______ _____ _____    ______ ____
ROOT
ATOM      1  C   UNL     1       2.582   8.053  17.933  0.00  0.00    +0.000 C 
ATOM      2  C   UNL     1       3.029   6.699  18.402  0.00  0.00    +0.000 A 
ATOM      3  C   UNL     1       2.222   5.923  19.226  0.00  0.00    +0.000 A 
ATOM      4  C   UNL     1       2.667   4.671  19.647  0.00  0.00    +0.000 A 
ATOM      5 BR   UNL     1       1.496   3.681  20.772  0.00  0.00    +0.000 Br
ATOM      6  C   UNL     1       3.928   4.195  19.238  0.00  0.00    +0.000 A 
ATOM      7 CL   UNL     1       4.471   2.635  19.771  0.00  0.00    +0.000 Cl
ATOM      8  N   UNL     1       4.699   4.977  18.429  0.00  0.00    +0.000 N 
ATOM      9  C   UNL     1       6.035   4.554  17.957  0.00  0.00    +0.000 C 
ATOM     10  C   UNL     1       4.268   6.195  18.018  0.00  0.00    +0.000 A 
ENDROOT
TORSDOF 0
ENDMDL
MODEL 8
REMARK VINA RESULT:      -4.7      2.191      3.198
REMARK  Name = 
REMARK  2 active torsions:
REMARK  status: ('A' for Active; 'I' for Inactive)
REMARK    1  A    between atoms: C_1  and  C_2
REMARK    2  A    between atoms: N_8  and  C_9
REMARK                            x       y       z     vdW  Elec       q    Type
REMARK                         _______ _______ _______ _____ _____    ______ ____
ROOT
ATOM      1  C   UNL     1       5.613   4.041  16.091  0.00  0.00    +0.000 C 
ATOM      2  C   UNL     1       4.676   4.449  17.190  0.00  0.00    +0.000 A 
ATOM      3  C   UNL     1       4.101   5.714  17.210  0.00  0.00    +0.000 A 
ATOM      4  C   UNL     1       3.237   6.064  18.246  0.00  0.00    +0.000 A 
ATOM      5 BR   UNL     1       2.498   7.815  18.190  0.00  0.00    +0.000 Br
ATOM      6  C   UNL     1       2.947   5.138  19.268  0.00  0.00    +0.000 A 
ATOM      7 CL   UNL     1       1.871   5.586  20.553  0.00  0.00    +0.000 Cl
ATOM      8  N   UNL     1       3.525   3.903  19.224  0.00  0.00    +0.000 N 
ATOM      9  C   UNL     1       3.277   2.875  20.257  0.00  0.00    +0.000 C 
ATOM     10  C   UNL     1       4.366   3.561  18.216  0.00  0.00    +0.000 A 
ENDROOT
TORSDOF 0
ENDMDL
MODEL 9
REMARK VINA RESULT:      -4.7      1.906      3.245
REMARK  Name = 
REMARK  2 active torsions:
REMARK  status: ('A' for Active; 'I' for Inactive)
REMARK    1  A    between atoms: C_1  and  C_2
REMARK    2  A    between atoms: N_8  and  C_9
REMARK                            x       y       z     vdW  Elec       q    Type
REMARK                         _______ _______ _______ _____ _____    ______ ____
ROOT
ATOM      1  C   UNL     1       6.472   4.970  15.575  0.00  0.00    +0.000 C 
ATOM      2  C   UNL     1       5.252   4.849  16.442  0.00  0.00    +0.000 A 
ATOM      3  C   UNL     1       4.571   5.977  16.884  0.00  0.00    +0.000 A 
ATOM      4  C   UNL     1       3.444   5.832  17.689  0.00  0.00    +0.000 A 
ATOM      5 BR   UNL     1       2.577   7.431  18.245  0.00  0.00    +0.000 Br
ATOM      6  C   UNL     1       2.996   4.547  18.055  0.00  0.00    +0.000 A 
ATOM      7 CL   UNL     1       1.593   4.380  19.061  0.00  0.00    +0.000 Cl
ATOM      8  N   UNL     1       3.684   3.457  17.608  0.00  0.00    +0.000 N 
ATOM      9  C   UNL     1       3.283   2.075  17.946  0.00  0.00    +0.000 C 
ATOM     10  C   UNL     1       4.781   3.596  16.822  0.00  0.00    +0.000 A 
ENDROOT
TORSDOF 0
ENDMDL
