MODEL 1
REMARK VINA RESULT:      -7.8      0.000      0.000
REMARK  Name = 
REMARK  6 active torsions:
REMARK  status: ('A' for Active; 'I' for Inactive)
REMARK    1  A    between atoms: C_1  and  O_2
REMARK    2  A    between atoms: O_2  and  C_3
REMARK    3  A    between atoms: C_5  and  C_6
REMARK    4  A    between atoms: C_13  and  C_14
REMARK    5  A    between atoms: N_16  and  C_17
REMARK    6  A    between atoms: C_17  and  C_18
REMARK                            x       y       z     vdW  Elec       q    Type
REMARK                         _______ _______ _______ _____ _____    ______ ____
ROOT
ATOM      1  C   UNL     1       0.168  10.131  19.917  0.00  0.00    +0.000 A 
ATOM      2  C   UNL     1      -0.586  11.056  20.665  0.00  0.00    +0.000 A 
ATOM      3  C   UNL     1      -0.671  10.982  22.060  0.00  0.00    +0.000 A 
ATOM      4  C   UNL     1      -0.001   9.954  22.719  0.00  0.00    +0.000 A 
ATOM      5  C   UNL     1       0.771   9.044  21.994  0.00  0.00    +0.000 A 
ATOM      6  C   UNL     1       0.886   9.125  20.588  0.00  0.00    +0.000 A 
ENDROOT
BRANCH   3   7
ATOM      7  C   UNL     1      -1.428  11.995  22.782  0.00  0.00    +0.000 A 
ATOM      8  C   UNL     1      -2.748  11.981  23.290  0.00  0.00    +0.000 A 
ATOM      9  N   UNL     1      -3.106  13.150  23.830  0.00  0.00    +0.000 NA
ATOM     10  N   UNL     1      -2.016  13.918  23.666  0.00  0.00    +0.000 N 
ATOM     11  C   UNL     1      -0.982  13.269  23.055  0.00  0.00    +0.000 A 
ATOM     12  H   UNL     1      -2.057  14.881  23.981  0.00  0.00    +0.000 HD
ENDBRANCH   3   7
BRANCH   6  13
ATOM     13  C   UNL     1       1.776   8.098  19.945  0.00  0.00    +0.000 C 
ATOM     14  O   UNL     1       2.143   8.259  18.782  0.00  0.00    +0.000 OA
ATOM     15  N   UNL     1       2.138   6.995  20.676  0.00  0.00    +0.000 N 
ATOM     16  H   UNL     1       1.786   6.911  21.628  0.00  0.00    +0.000 HD
BRANCH  15  17
ATOM     17  C   UNL     1       3.007   5.951  20.162  0.00  0.00    +0.000 C 
BRANCH  17  18
ATOM     18  C   UNL     1       2.228   4.715  19.819  0.00  0.00    +0.000 A 
ATOM     19  C   UNL     1       1.957   3.745  20.786  0.00  0.00    +0.000 A 
ATOM     20  F   UNL     1       2.323   3.953  22.059  0.00  0.00    +0.000 F 
ATOM     21  C   UNL     1       1.327   2.545  20.461  0.00  0.00    +0.000 A 
ATOM     22  C   UNL     1       0.942   2.299  19.144  0.00  0.00    +0.000 A 
ATOM     23  C   UNL     1       1.150   3.278  18.175  0.00  0.00    +0.000 A 
ATOM     24  C   UNL     1       1.777   4.476  18.520  0.00  0.00    +0.000 A 
ATOM     25  F   UNL     1       1.938   5.407  17.569  0.00  0.00    +0.000 F 
ENDBRANCH  17  18
ENDBRANCH  15  17
ENDBRANCH   6  13
BRANCH   1  27
ATOM     26  C   UNL     1      -0.981  10.165  17.837  0.00  0.00    +0.000 C 
ATOM     27  O   UNL     1       0.258  10.217  18.547  0.00  0.00    +0.000 OA
ENDBRANCH   1  27
TORSDOF 5
ENDMDL
MODEL 2
REMARK VINA RESULT:      -7.8      3.909      8.265
REMARK  Name = 
REMARK  6 active torsions:
REMARK  status: ('A' for Active; 'I' for Inactive)
REMARK    1  A    between atoms: C_1  and  O_2
REMARK    2  A    between atoms: O_2  and  C_3
REMARK    3  A    between atoms: C_5  and  C_6
REMARK    4  A    between atoms: C_13  and  C_14
REMARK    5  A    between atoms: N_16  and  C_17
REMARK    6  A    between atoms: C_17  and  C_18
REMARK                            x       y       z     vdW  Elec       q    Type
REMARK                         _______ _______ _______ _____ _____    ______ ____
ROOT
ATOM      1  C   UNL     1       1.444   8.335  19.947  0.00  0.00    +0.000 A 
ATOM      2  C   UNL     1       2.121   7.102  20.040  0.00  0.00    +0.000 A 
ATOM      3  C   UNL     1       2.938   6.630  19.006  0.00  0.00    +0.000 A 
ATOM      4  C   UNL     1       3.069   7.397  17.851  0.00  0.00    +0.000 A 
ATOM      5  C   UNL     1       2.425   8.633  17.754  0.00  0.00    +0.000 A 
ATOM      6  C   UNL     1       1.619   9.132  18.802  0.00  0.00    +0.000 A 
ENDROOT
BRANCH   3   7
ATOM      7  C   UNL     1       3.649   5.371  19.179  0.00  0.00    +0.000 A 
ATOM      8  C   UNL     1       3.187   4.088  19.556  0.00  0.00    +0.000 A 
ATOM      9  N   UNL     1       4.177   3.199  19.678  0.00  0.00    +0.000 NA
ATOM     10  N   UNL     1       5.277   3.912  19.384  0.00  0.00    +0.000 N 
ATOM     11  C   UNL     1       5.012   5.212  19.067  0.00  0.00    +0.000 A 
ATOM     12  H   UNL     1       6.177   3.447  19.437  0.00  0.00    +0.000 HD
ENDBRANCH   3   7
BRANCH   6  13
ATOM     13  C   UNL     1       1.014  10.488  18.572  0.00  0.00    +0.000 C 
ATOM     14  O   UNL     1       1.738  11.482  18.571  0.00  0.00    +0.000 OA
ATOM     15  N   UNL     1      -0.342  10.577  18.387  0.00  0.00    +0.000 N 
ATOM     16  H   UNL     1      -0.891   9.719  18.417  0.00  0.00    +0.000 HD
BRANCH  15  17
ATOM     17  C   UNL     1      -1.031  11.832  18.139  0.00  0.00    +0.000 C 
BRANCH  17  18
ATOM     18  C   UNL     1      -2.506  11.618  17.965  0.00  0.00    +0.000 A 
ATOM     19  C   UNL     1      -3.028  11.164  16.753  0.00  0.00    +0.000 A 
ATOM     20  F   UNL     1      -2.199  10.833  15.753  0.00  0.00    +0.000 F 
ATOM     21  C   UNL     1      -4.403  11.060  16.542  0.00  0.00    +0.000 A 
ATOM     22  C   UNL     1      -5.288  11.405  17.562  0.00  0.00    +0.000 A 
ATOM     23  C   UNL     1      -4.786  11.804  18.799  0.00  0.00    +0.000 A 
ATOM     24  C   UNL     1      -3.407  11.896  18.993  0.00  0.00    +0.000 A 
ATOM     25  F   UNL     1      -2.959  12.259  20.204  0.00  0.00    +0.000 F 
ENDBRANCH  17  18
ENDBRANCH  15  17
ENDBRANCH   6  13
BRANCH   1  27
ATOM     26  C   UNL     1       1.321   9.060  22.207  0.00  0.00    +0.000 C 
ATOM     27  O   UNL     1       0.652   8.799  20.972  0.00  0.00    +0.000 OA
ENDBRANCH   1  27
TORSDOF 5
ENDMDL
MODEL 3
REMARK VINA RESULT:      -7.7      3.806      8.110
REMARK  Name = 
REMARK  6 active torsions:
REMARK  status: ('A' for Active; 'I' for Inactive)
REMARK    1  A    between atoms: C_1  and  O_2
REMARK    2  A    between atoms: O_2  and  C_3
REMARK    3  A    between atoms: C_5  and  C_6
REMARK    4  A    between atoms: C_13  and  C_14
REMARK    5  A    between atoms: N_16  and  C_17
REMARK    6  A    between atoms: C_17  and  C_18
REMARK                            x       y       z     vdW  Elec       q    Type
REMARK                         _______ _______ _______ _____ _____    ______ ____
ROOT
ATOM      1  C   UNL     1       1.536   8.111  19.946  0.00  0.00    +0.000 A 
ATOM      2  C   UNL     1       2.175   6.859  20.045  0.00  0.00    +0.000 A 
ATOM      3  C   UNL     1       3.004   6.371  19.029  0.00  0.00    +0.000 A 
ATOM      4  C   UNL     1       3.187   7.144  17.884  0.00  0.00    +0.000 A 
ATOM      5  C   UNL     1       2.581   8.398  17.781  0.00  0.00    +0.000 A 
ATOM      6  C   UNL     1       1.764   8.912  18.813  0.00  0.00    +0.000 A 
ENDROOT
BRANCH   3   7
ATOM      7  C   UNL     1       3.674   5.091  19.208  0.00  0.00    +0.000 A 
ATOM      8  C   UNL     1       3.209   3.866  19.741  0.00  0.00    +0.000 A 
ATOM      9  N   UNL     1       4.165   2.935  19.807  0.00  0.00    +0.000 NA
ATOM     10  N   UNL     1       5.248   3.563  19.319  0.00  0.00    +0.000 N 
ATOM     11  C   UNL     1       5.003   4.850  18.936  0.00  0.00    +0.000 A 
ATOM     12  H   UNL     1       6.125   3.055  19.293  0.00  0.00    +0.000 HD
ENDBRANCH   3   7
BRANCH   6  13
ATOM     13  C   UNL     1       1.203  10.287  18.579  0.00  0.00    +0.000 C 
ATOM     14  O   UNL     1       1.965  11.212  18.303  0.00  0.00    +0.000 OA
ATOM     15  N   UNL     1      -0.151  10.472  18.701  0.00  0.00    +0.000 N 
ATOM     16  H   UNL     1      -0.727   9.669  18.951  0.00  0.00    +0.000 HD
BRANCH  15  17
ATOM     17  C   UNL     1      -0.802  11.752  18.480  0.00  0.00    +0.000 C 
BRANCH  17  18
ATOM     18  C   UNL     1      -2.271  11.578  18.231  0.00  0.00    +0.000 A 
ATOM     19  C   UNL     1      -3.216  12.076  19.131  0.00  0.00    +0.000 A 
ATOM     20  F   UNL     1      -2.814  12.792  20.190  0.00  0.00    +0.000 F 
ATOM     21  C   UNL     1      -4.579  11.833  18.968  0.00  0.00    +0.000 A 
ATOM     22  C   UNL     1      -5.025  11.085  17.879  0.00  0.00    +0.000 A 
ATOM     23  C   UNL     1      -4.103  10.630  16.938  0.00  0.00    +0.000 A 
ATOM     24  C   UNL     1      -2.743  10.888  17.114  0.00  0.00    +0.000 A 
ATOM     25  F   UNL     1      -1.887  10.457  16.177  0.00  0.00    +0.000 F 
ENDBRANCH  17  18
ENDBRANCH  15  17
ENDBRANCH   6  13
BRANCH   1  27
ATOM     26  C   UNL     1       1.409   9.048  22.126  0.00  0.00    +0.000 C 
ATOM     27  O   UNL     1       0.732   8.590  20.955  0.00  0.00    +0.000 OA
ENDBRANCH   1  27
TORSDOF 5
ENDMDL
MODEL 4
REMARK VINA RESULT:      -7.7      0.220      1.808
REMARK  Name = 
REMARK  6 active torsions:
REMARK  status: ('A' for Active; 'I' for Inactive)
REMARK    1  A    between atoms: C_1  and  O_2
REMARK    2  A    between atoms: O_2  and  C_3
REMARK    3  A    between atoms: C_5  and  C_6
REMARK    4  A    between atoms: C_13  and  C_14
REMARK    5  A    between atoms: N_16  and  C_17
REMARK    6  A    between atoms: C_17  and  C_18
REMARK                            x       y       z     vdW  Elec       q    Type
REMARK                         _______ _______ _______ _____ _____    ______ ____
ROOT
ATOM      1  C   UNL     1       0.092  10.097  19.760  0.00  0.00    +0.000 A 
ATOM      2  C   UNL     1      -0.640  11.037  20.513  0.00  0.00    +0.000 A 
ATOM      3  C   UNL     1      -0.623  11.035  21.912  0.00  0.00    +0.000 A 
ATOM      4  C   UNL     1       0.129  10.066  22.572  0.00  0.00    +0.000 A 
ATOM      5  C   UNL     1       0.881   9.144  21.840  0.00  0.00    +0.000 A 
ATOM      6  C   UNL     1       0.892   9.153  20.427  0.00  0.00    +0.000 A 
ENDROOT
BRANCH   3   7
ATOM      7  C   UNL     1      -1.362  12.060  22.635  0.00  0.00    +0.000 A 
ATOM      8  C   UNL     1      -1.018  13.389  22.974  0.00  0.00    +0.000 A 
ATOM      9  N   UNL     1      -1.949  13.989  23.721  0.00  0.00    +0.000 NA
ATOM     10  N   UNL     1      -2.893  13.044  23.866  0.00  0.00    +0.000 N 
ATOM     11  C   UNL     1      -2.594  11.876  23.225  0.00  0.00    +0.000 A 
ATOM     12  H   UNL     1      -3.706  13.262  24.430  0.00  0.00    +0.000 HD
ENDBRANCH   3   7
BRANCH   6  13
ATOM     13  C   UNL     1       1.770   8.123  19.774  0.00  0.00    +0.000 C 
ATOM     14  O   UNL     1       2.058   8.240  18.584  0.00  0.00    +0.000 OA
ATOM     15  N   UNL     1       2.210   7.064  20.527  0.00  0.00    +0.000 N 
ATOM     16  H   UNL     1       1.921   7.013  21.503  0.00  0.00    +0.000 HD
BRANCH  15  17
ATOM     17  C   UNL     1       3.076   6.021  20.005  0.00  0.00    +0.000 C 
BRANCH  17  18
ATOM     18  C   UNL     1       2.318   4.746  19.782  0.00  0.00    +0.000 A 
ATOM     19  C   UNL     1       1.898   4.374  18.504  0.00  0.00    +0.000 A 
ATOM     20  F   UNL     1       2.245   5.120  17.446  0.00  0.00    +0.000 F 
ATOM     21  C   UNL     1       1.104   3.248  18.294  0.00  0.00    +0.000 A 
ATOM     22  C   UNL     1       0.721   2.458  19.378  0.00  0.00    +0.000 A 
ATOM     23  C   UNL     1       1.179   2.779  20.654  0.00  0.00    +0.000 A 
ATOM     24  C   UNL     1       1.978   3.907  20.844  0.00  0.00    +0.000 A 
ATOM     25  F   UNL     1       2.422   4.171  22.081  0.00  0.00    +0.000 F 
ENDBRANCH  17  18
ENDBRANCH  15  17
ENDBRANCH   6  13
BRANCH   1  27
ATOM     26  C   UNL     1      -1.210  10.169  17.773  0.00  0.00    +0.000 C 
ATOM     27  O   UNL     1       0.080  10.113  18.384  0.00  0.00    +0.000 OA
ENDBRANCH   1  27
TORSDOF 5
ENDMDL
MODEL 5
REMARK VINA RESULT:      -7.7      1.792      3.043
REMARK  Name = 
REMARK  6 active torsions:
REMARK  status: ('A' for Active; 'I' for Inactive)
REMARK    1  A    between atoms: C_1  and  O_2
REMARK    2  A    between atoms: O_2  and  C_3
REMARK    3  A    between atoms: C_5  and  C_6
REMARK    4  A    between atoms: C_13  and  C_14
REMARK    5  A    between atoms: N_16  and  C_17
REMARK    6  A    between atoms: C_17  and  C_18
REMARK                            x       y       z     vdW  Elec       q    Type
REMARK                         _______ _______ _______ _____ _____    ______ ____
ROOT
ATOM      1  C   UNL     1       0.633   9.649  20.457  0.00  0.00    +0.000 A 
ATOM      2  C   UNL     1      -0.426  10.567  20.607  0.00  0.00    +0.000 A 
ATOM      3  C   UNL     1      -1.104  11.098  19.503  0.00  0.00    +0.000 A 
ATOM      4  C   UNL     1      -0.706  10.715  18.225  0.00  0.00    +0.000 A 
ATOM      5  C   UNL     1       0.325   9.787  18.060  0.00  0.00    +0.000 A 
ATOM      6  C   UNL     1       0.998   9.224  19.167  0.00  0.00    +0.000 A 
ENDROOT
BRANCH   3   7
ATOM      7  C   UNL     1      -2.220  12.007  19.723  0.00  0.00    +0.000 A 
ATOM      8  C   UNL     1      -2.420  13.013  20.695  0.00  0.00    +0.000 A 
ATOM      9  N   UNL     1      -3.626  13.583  20.609  0.00  0.00    +0.000 NA
ATOM     10  N   UNL     1      -4.204  12.938  19.581  0.00  0.00    +0.000 N 
ATOM     11  C   UNL     1      -3.399  11.995  19.011  0.00  0.00    +0.000 A 
ATOM     12  H   UNL     1      -5.157  13.184  19.337  0.00  0.00    +0.000 HD
ENDBRANCH   3   7
BRANCH   6  13
ATOM     13  C   UNL     1       2.063   8.216  18.840  0.00  0.00    +0.000 C 
ATOM     14  O   UNL     1       2.786   8.394  17.861  0.00  0.00    +0.000 OA
ATOM     15  N   UNL     1       2.185   7.108  19.641  0.00  0.00    +0.000 N 
ATOM     16  H   UNL     1       1.544   7.008  20.427  0.00  0.00    +0.000 HD
BRANCH  15  17
ATOM     17  C   UNL     1       3.190   6.081  19.430  0.00  0.00    +0.000 C 
BRANCH  17  18
ATOM     18  C   UNL     1       2.558   4.733  19.242  0.00  0.00    +0.000 A 
ATOM     19  C   UNL     1       2.656   4.057  18.025  0.00  0.00    +0.000 A 
ATOM     20  F   UNL     1       3.395   4.575  17.033  0.00  0.00    +0.000 F 
ATOM     21  C   UNL     1       1.988   2.854  17.800  0.00  0.00    +0.000 A 
ATOM     22  C   UNL     1       1.207   2.296  18.811  0.00  0.00    +0.000 A 
ATOM     23  C   UNL     1       1.143   2.925  20.052  0.00  0.00    +0.000 A 
ATOM     24  C   UNL     1       1.823   4.125  20.261  0.00  0.00    +0.000 A 
ATOM     25  F   UNL     1       1.760   4.689  21.476  0.00  0.00    +0.000 F 
ENDBRANCH  17  18
ENDBRANCH  15  17
ENDBRANCH   6  13
BRANCH   1  27
ATOM     26  C   UNL     1       0.591   9.206  22.791  0.00  0.00    +0.000 C 
ATOM     27  O   UNL     1       1.287   9.121  21.546  0.00  0.00    +0.000 OA
ENDBRANCH   1  27
TORSDOF 5
ENDMDL
MODEL 6
REMARK VINA RESULT:      -7.7      1.870      2.688
REMARK  Name = 
REMARK  6 active torsions:
REMARK  status: ('A' for Active; 'I' for Inactive)
REMARK    1  A    between atoms: C_1  and  O_2
REMARK    2  A    between atoms: O_2  and  C_3
REMARK    3  A    between atoms: C_5  and  C_6
REMARK    4  A    between atoms: C_13  and  C_14
REMARK    5  A    between atoms: N_16  and  C_17
REMARK    6  A    between atoms: C_17  and  C_18
REMARK                            x       y       z     vdW  Elec       q    Type
REMARK                         _______ _______ _______ _____ _____    ______ ____
ROOT
ATOM      1  C   UNL     1       0.598   9.762  20.436  0.00  0.00    +0.000 A 
ATOM      2  C   UNL     1      -0.458  10.681  20.593  0.00  0.00    +0.000 A 
ATOM      3  C   UNL     1      -1.172  11.179  19.496  0.00  0.00    +0.000 A 
ATOM      4  C   UNL     1      -0.814  10.760  18.217  0.00  0.00    +0.000 A 
ATOM      5  C   UNL     1       0.215   9.830  18.047  0.00  0.00    +0.000 A 
ATOM      6  C   UNL     1       0.924   9.301  19.148  0.00  0.00    +0.000 A 
ENDROOT
BRANCH   3   7
ATOM      7  C   UNL     1      -2.284  12.091  19.724  0.00  0.00    +0.000 A 
ATOM      8  C   UNL     1      -2.442  13.150  20.647  0.00  0.00    +0.000 A 
ATOM      9  N   UNL     1      -3.656  13.705  20.594  0.00  0.00    +0.000 NA
ATOM     10  N   UNL     1      -4.282  12.998  19.639  0.00  0.00    +0.000 N 
ATOM     11  C   UNL     1      -3.500  12.029  19.080  0.00  0.00    +0.000 A 
ATOM     12  H   UNL     1      -5.249  13.223  19.433  0.00  0.00    +0.000 HD
ENDBRANCH   3   7
BRANCH   6  13
ATOM     13  C   UNL     1       1.983   8.286  18.818  0.00  0.00    +0.000 C 
ATOM     14  O   UNL     1       2.659   8.426  17.800  0.00  0.00    +0.000 OA
ATOM     15  N   UNL     1       2.150   7.216  19.659  0.00  0.00    +0.000 N 
ATOM     16  H   UNL     1       1.545   7.146  20.477  0.00  0.00    +0.000 HD
BRANCH  15  17
ATOM     17  C   UNL     1       3.152   6.186  19.448  0.00  0.00    +0.000 C 
BRANCH  17  18
ATOM     18  C   UNL     1       2.520   4.885  19.048  0.00  0.00    +0.000 A 
ATOM     19  C   UNL     1       1.576   4.263  19.867  0.00  0.00    +0.000 A 
ATOM     20  F   UNL     1       1.162   4.873  20.987  0.00  0.00    +0.000 F 
ATOM     21  C   UNL     1       1.058   3.006  19.561  0.00  0.00    +0.000 A 
ATOM     22  C   UNL     1       1.476   2.346  18.407  0.00  0.00    +0.000 A 
ATOM     23  C   UNL     1       2.373   2.975  17.546  0.00  0.00    +0.000 A 
ATOM     24  C   UNL     1       2.877   4.237  17.865  0.00  0.00    +0.000 A 
ATOM     25  F   UNL     1       3.718   4.823  17.002  0.00  0.00    +0.000 F 
ENDBRANCH  17  18
ENDBRANCH  15  17
ENDBRANCH   6  13
BRANCH   1  27
ATOM     26  C   UNL     1       0.584   9.276  22.762  0.00  0.00    +0.000 C 
ATOM     27  O   UNL     1       1.288   9.268  21.519  0.00  0.00    +0.000 OA
ENDBRANCH   1  27
TORSDOF 5
ENDMDL
MODEL 7
REMARK VINA RESULT:      -7.7      6.776      8.106
REMARK  Name = 
REMARK  6 active torsions:
REMARK  status: ('A' for Active; 'I' for Inactive)
REMARK    1  A    between atoms: C_1  and  O_2
REMARK    2  A    between atoms: O_2  and  C_3
REMARK    3  A    between atoms: C_5  and  C_6
REMARK    4  A    between atoms: C_13  and  C_14
REMARK    5  A    between atoms: N_16  and  C_17
REMARK    6  A    between atoms: C_17  and  C_18
REMARK                            x       y       z     vdW  Elec       q    Type
REMARK                         _______ _______ _______ _____ _____    ______ ____
ROOT
ATOM      1  C   UNL     1       7.739   6.153  18.562  0.00  0.00    +0.000 A 
ATOM      2  C   UNL     1       8.379   7.387  18.795  0.00  0.00    +0.000 A 
ATOM      3  C   UNL     1       8.005   8.551  18.115  0.00  0.00    +0.000 A 
ATOM      4  C   UNL     1       6.981   8.479  17.174  0.00  0.00    +0.000 A 
ATOM      5  C   UNL     1       6.320   7.269  16.949  0.00  0.00    +0.000 A 
ATOM      6  C   UNL     1       6.671   6.093  17.650  0.00  0.00    +0.000 A 
ENDROOT
BRANCH   3   7
ATOM      7  C   UNL     1       8.672   9.807  18.431  0.00  0.00    +0.000 A 
ATOM      8  C   UNL     1       8.754  11.021  17.712  0.00  0.00    +0.000 A 
ATOM      9  N   UNL     1       9.535  11.925  18.311  0.00  0.00    +0.000 NA
ATOM     10  N   UNL     1       9.960  11.288  19.416  0.00  0.00    +0.000 N 
ATOM     11  C   UNL     1       9.462  10.024  19.539  0.00  0.00    +0.000 A 
ATOM     12  H   UNL     1      10.602  11.775  20.032  0.00  0.00    +0.000 HD
ENDBRANCH   3   7
BRANCH   6  13
ATOM     13  C   UNL     1       5.853   4.873  17.329  0.00  0.00    +0.000 C 
ATOM     14  O   UNL     1       5.970   4.338  16.228  0.00  0.00    +0.000 OA
ATOM     15  N   UNL     1       4.981   4.401  18.278  0.00  0.00    +0.000 N 
ATOM     16  H   UNL     1       4.916   4.900  19.164  0.00  0.00    +0.000 HD
BRANCH  15  17
ATOM     17  C   UNL     1       4.156   3.222  18.083  0.00  0.00    +0.000 C 
BRANCH  17  18
ATOM     18  C   UNL     1       3.124   3.096  19.165  0.00  0.00    +0.000 A 
ATOM     19  C   UNL     1       1.807   3.508  18.953  0.00  0.00    +0.000 A 
ATOM     20  F   UNL     1       1.433   3.945  17.741  0.00  0.00    +0.000 F 
ATOM     21  C   UNL     1       0.862   3.495  19.978  0.00  0.00    +0.000 A 
ATOM     22  C   UNL     1       1.225   3.052  21.249  0.00  0.00    +0.000 A 
ATOM     23  C   UNL     1       2.519   2.582  21.466  0.00  0.00    +0.000 A 
ATOM     24  C   UNL     1       3.449   2.596  20.427  0.00  0.00    +0.000 A 
ATOM     25  F   UNL     1       4.676   2.113  20.664  0.00  0.00    +0.000 F 
ENDBRANCH  17  18
ENDBRANCH  15  17
ENDBRANCH   6  13
BRANCH   1  27
ATOM     26  C   UNL     1       8.478   5.199  20.609  0.00  0.00    +0.000 C 
ATOM     27  O   UNL     1       8.104   5.014  19.243  0.00  0.00    +0.000 OA
ENDBRANCH   1  27
TORSDOF 5
ENDMDL
MODEL 8
REMARK VINA RESULT:      -7.6      3.335      4.474
REMARK  Name = 
REMARK  6 active torsions:
REMARK  status: ('A' for Active; 'I' for Inactive)
REMARK    1  A    between atoms: C_1  and  O_2
REMARK    2  A    between atoms: O_2  and  C_3
REMARK    3  A    between atoms: C_5  and  C_6
REMARK    4  A    between atoms: C_13  and  C_14
REMARK    5  A    between atoms: N_16  and  C_17
REMARK    6  A    between atoms: C_17  and  C_18
REMARK                            x       y       z     vdW  Elec       q    Type
REMARK                         _______ _______ _______ _____ _____    ______ ____
ROOT
ATOM      1  C   UNL     1       1.393   8.610  20.469  0.00  0.00    +0.000 A 
ATOM      2  C   UNL     1       0.829   9.863  20.157  0.00  0.00    +0.000 A 
ATOM      3  C   UNL     1       0.825  10.364  18.850  0.00  0.00    +0.000 A 
ATOM      4  C   UNL     1       1.408   9.605  17.838  0.00  0.00    +0.000 A 
ATOM      5  C   UNL     1       1.949   8.350  18.128  0.00  0.00    +0.000 A 
ATOM      6  C   UNL     1       1.934   7.822  19.438  0.00  0.00    +0.000 A 
ENDROOT
BRANCH   3   7
ATOM      7  C   UNL     1       0.186  11.645  18.580  0.00  0.00    +0.000 A 
ATOM      8  C   UNL     1       0.683  12.966  18.665  0.00  0.00    +0.000 A 
ATOM      9  N   UNL     1      -0.251  13.886  18.406  0.00  0.00    +0.000 NA
ATOM     10  N   UNL     1      -1.351  13.156  18.159  0.00  0.00    +0.000 N 
ATOM     11  C   UNL     1      -1.138  11.810  18.239  0.00  0.00    +0.000 A 
ATOM     12  H   UNL     1      -2.216  13.646  17.959  0.00  0.00    +0.000 HD
ENDBRANCH   3   7
BRANCH   6  13
ATOM     13  C   UNL     1       2.523   6.448  19.596  0.00  0.00    +0.000 C 
ATOM     14  O   UNL     1       1.792   5.509  19.906  0.00  0.00    +0.000 OA
ATOM     15  N   UNL     1       3.872   6.287  19.405  0.00  0.00    +0.000 N 
ATOM     16  H   UNL     1       4.427   7.108  19.168  0.00  0.00    +0.000 HD
BRANCH  15  17
ATOM     17  C   UNL     1       4.543   5.003  19.513  0.00  0.00    +0.000 C 
BRANCH  17  18
ATOM     18  C   UNL     1       5.310   4.683  18.264  0.00  0.00    +0.000 A 
ATOM     19  C   UNL     1       6.693   4.867  18.203  0.00  0.00    +0.000 A 
ATOM     20  F   UNL     1       7.362   5.255  19.299  0.00  0.00    +0.000 F 
ATOM     21  C   UNL     1       7.405   4.675  17.020  0.00  0.00    +0.000 A 
ATOM     22  C   UNL     1       6.733   4.278  15.864  0.00  0.00    +0.000 A 
ATOM     23  C   UNL     1       5.363   4.033  15.918  0.00  0.00    +0.000 A 
ATOM     24  C   UNL     1       4.668   4.225  17.113  0.00  0.00    +0.000 A 
ATOM     25  F   UNL     1       3.355   3.954  17.136  0.00  0.00    +0.000 F 
ENDBRANCH  17  18
ENDBRANCH  15  17
ENDBRANCH   6  13
BRANCH   1  27
ATOM     26  C   UNL     1       1.033   9.052  22.776  0.00  0.00    +0.000 C 
ATOM     27  O   UNL     1       1.383   8.118  21.754  0.00  0.00    +0.000 OA
ENDBRANCH   1  27
TORSDOF 5
ENDMDL
MODEL 9
REMARK VINA RESULT:      -7.6      3.295      4.537
REMARK  Name = 
REMARK  6 active torsions:
REMARK  status: ('A' for Active; 'I' for Inactive)
REMARK    1  A    between atoms: C_1  and  O_2
REMARK    2  A    between atoms: O_2  and  C_3
REMARK    3  A    between atoms: C_5  and  C_6
REMARK    4  A    between atoms: C_13  and  C_14
REMARK    5  A    between atoms: N_16  and  C_17
REMARK    6  A    between atoms: C_17  and  C_18
REMARK                            x       y       z     vdW  Elec       q    Type
REMARK                         _______ _______ _______ _____ _____    ______ ____
ROOT
ATOM      1  C   UNL     1       1.264   8.896  20.689  0.00  0.00    +0.000 A 
ATOM      2  C   UNL     1       0.786  10.181  20.360  0.00  0.00    +0.000 A 
ATOM      3  C   UNL     1       0.894  10.699  19.064  0.00  0.00    +0.000 A 
ATOM      4  C   UNL     1       1.504   9.923  18.081  0.00  0.00    +0.000 A 
ATOM      5  C   UNL     1       1.960   8.638  18.384  0.00  0.00    +0.000 A 
ATOM      6  C   UNL     1       1.832   8.095  19.682  0.00  0.00    +0.000 A 
ENDROOT
BRANCH   3   7
ATOM      7  C   UNL     1       0.340  12.014  18.774  0.00  0.00    +0.000 A 
ATOM      8  C   UNL     1       0.882  13.308  18.947  0.00  0.00    +0.000 A 
ATOM      9  N   UNL     1       0.018  14.277  18.629  0.00  0.00    +0.000 NA
ATOM     10  N   UNL     1      -1.083  13.604  18.254  0.00  0.00    +0.000 N 
ATOM     11  C   UNL     1      -0.936  12.248  18.312  0.00  0.00    +0.000 A 
ATOM     12  H   UNL     1      -1.902  14.138  17.987  0.00  0.00    +0.000 HD
ENDBRANCH   3   7
BRANCH   6  13
ATOM     13  C   UNL     1       2.338   6.690  19.856  0.00  0.00    +0.000 C 
ATOM     14  O   UNL     1       1.630   5.856  20.416  0.00  0.00    +0.000 OA
ATOM     15  N   UNL     1       3.594   6.385  19.395  0.00  0.00    +0.000 N 
ATOM     16  H   UNL     1       4.140   7.125  18.956  0.00  0.00    +0.000 HD
BRANCH  15  17
ATOM     17  C   UNL     1       4.176   5.058  19.493  0.00  0.00    +0.000 C 
BRANCH  17  18
ATOM     18  C   UNL     1       5.216   4.841  18.433  0.00  0.00    +0.000 A 
ATOM     19  C   UNL     1       4.865   4.358  17.171  0.00  0.00    +0.000 A 
ATOM     20  F   UNL     1       3.574   4.163  16.868  0.00  0.00    +0.000 F 
ATOM     21  C   UNL     1       5.829   4.052  16.211  0.00  0.00    +0.000 A 
ATOM     22  C   UNL     1       7.180   4.238  16.502  0.00  0.00    +0.000 A 
ATOM     23  C   UNL     1       7.547   4.774  17.734  0.00  0.00    +0.000 A 
ATOM     24  C   UNL     1       6.568   5.080  18.680  0.00  0.00    +0.000 A 
ATOM     25  F   UNL     1       6.956   5.619  19.845  0.00  0.00    +0.000 F 
ENDBRANCH  17  18
ENDBRANCH  15  17
ENDBRANCH   6  13
BRANCH   1  27
ATOM     26  C   UNL     1       0.500   9.238  22.913  0.00  0.00    +0.000 C 
ATOM     27  O   UNL     1       1.144   8.389  21.962  0.00  0.00    +0.000 OA
ENDBRANCH   1  27
TORSDOF 5
ENDMDL
