MODEL 1
REMARK VINA RESULT:      -7.1      0.000      0.000
REMARK  Name = 
REMARK  10 active torsions:
REMARK  status: ('A' for Active; 'I' for Inactive)
REMARK    1  A    between atoms: C_1  and  C_2
REMARK    2  A    between atoms: C_5  and  S_6
REMARK    3  A    between atoms: S_6  and  S_9
REMARK    4  A    between atoms: S_9  and  C_10
REMARK    5  A    between atoms: C_10  and  C_11
REMARK    6  A    between atoms: C_11  and  C_12
REMARK    7  A    between atoms: C_12  and  S_13
REMARK    8  A    between atoms: S_13  and  S_14
REMARK    9  A    between atoms: S_14  and  C_17
REMARK   10  A    between atoms: C_20  and  C_21
REMARK                            x       y       z     vdW  Elec       q    Type
REMARK                         _______ _______ _______ _____ _____    ______ ____
ROOT
ATOM      1  C   UNL     1       1.424   6.219  20.410  0.00  0.00    +0.000 C 
ENDROOT
BRANCH   1   2
ATOM      2  C   UNL     1       2.080   7.529  19.945  0.00  0.00    +0.000 C 
BRANCH   2   3
ATOM      3  S   UNL     1       0.978   8.926  20.384  0.00  0.00    +0.000 S 
BRANCH   3   4
ATOM      4  S   UNL     1       0.985  10.110  18.657  0.00  0.00    +0.000 S 
ATOM      5  O   UNL     1       1.486   9.284  17.575  0.00  0.00    +0.000 OA
ATOM      6  O   UNL     1       1.624  11.362  19.001  0.00  0.00    +0.000 OA
BRANCH   4  11
ATOM      7  C   UNL     1      -4.879  11.286  17.432  0.00  0.00    +0.000 C 
ATOM      8  C   UNL     1      -3.432  10.995  17.722  0.00  0.00    +0.000 A 
ATOM      9  C   UNL     1      -2.736  10.005  17.017  0.00  0.00    +0.000 A 
ATOM     10  C   UNL     1      -1.394   9.735  17.314  0.00  0.00    +0.000 A 
ATOM     11  C   UNL     1      -0.745  10.445  18.329  0.00  0.00    +0.000 A 
ATOM     12  C   UNL     1      -1.419  11.458  19.018  0.00  0.00    +0.000 A 
ATOM     13  C   UNL     1      -2.763  11.722  18.717  0.00  0.00    +0.000 A 
ENDBRANCH   4  11
ENDBRANCH   3   4
ENDBRANCH   2   3
ENDBRANCH   1   2
BRANCH   1  14
ATOM     14  C   UNL     1       2.418   5.086  20.720  0.00  0.00    +0.000 C 
BRANCH  14  15
ATOM     15  S   UNL     1       1.735   3.514  20.070  0.00  0.00    +0.000 S 
BRANCH  15  16
ATOM     16  S   UNL     1       2.250   3.562  18.042  0.00  0.00    +0.000 S 
ATOM     17  O   UNL     1       2.586   2.203  17.657  0.00  0.00    +0.000 OA
ATOM     18  O   UNL     1       1.215   4.299  17.350  0.00  0.00    +0.000 OA
BRANCH  16  19
ATOM     19  C   UNL     1       3.753   4.532  17.978  0.00  0.00    +0.000 A 
ATOM     20  C   UNL     1       4.943   3.980  18.470  0.00  0.00    +0.000 A 
ATOM     21  C   UNL     1       6.136   4.708  18.403  0.00  0.00    +0.000 A 
ATOM     22  C   UNL     1       6.156   5.986  17.834  0.00  0.00    +0.000 A 
ATOM     23  C   UNL     1       7.425   6.790  17.774  0.00  0.00    +0.000 C 
ATOM     24  C   UNL     1       4.967   6.520  17.316  0.00  0.00    +0.000 A 
ATOM     25  C   UNL     1       3.767   5.794  17.377  0.00  0.00    +0.000 A 
ENDBRANCH  16  19
ENDBRANCH  15  16
ENDBRANCH  14  15
ENDBRANCH   1  14
TORSDOF 8
ENDMDL
MODEL 2
REMARK VINA RESULT:      -6.9      4.056      7.309
REMARK  Name = 
REMARK  10 active torsions:
REMARK  status: ('A' for Active; 'I' for Inactive)
REMARK    1  A    between atoms: C_1  and  C_2
REMARK    2  A    between atoms: C_5  and  S_6
REMARK    3  A    between atoms: S_6  and  S_9
REMARK    4  A    between atoms: S_9  and  C_10
REMARK    5  A    between atoms: C_10  and  C_11
REMARK    6  A    between atoms: C_11  and  C_12
REMARK    7  A    between atoms: C_12  and  S_13
REMARK    8  A    between atoms: S_13  and  S_14
REMARK    9  A    between atoms: S_14  and  C_17
REMARK   10  A    between atoms: C_20  and  C_21
REMARK                            x       y       z     vdW  Elec       q    Type
REMARK                         _______ _______ _______ _____ _____    ______ ____
ROOT
ATOM      1  C   UNL     1       4.841   3.689  19.673  0.00  0.00    +0.000 C 
ENDROOT
BRANCH   1   2
ATOM      2  C   UNL     1       5.448   3.919  18.278  0.00  0.00    +0.000 C 
BRANCH   2   3
ATOM      3  S   UNL     1       6.882   5.047  18.441  0.00  0.00    +0.000 S 
BRANCH   3   4
ATOM      4  S   UNL     1       6.586   6.433  16.899  0.00  0.00    +0.000 S 
ATOM      5  O   UNL     1       7.823   7.174  16.748  0.00  0.00    +0.000 OA
ATOM      6  O   UNL     1       5.336   7.109  17.168  0.00  0.00    +0.000 OA
BRANCH   4  11
ATOM      7  C   UNL     1       5.828   2.934  11.954  0.00  0.00    +0.000 C 
ATOM      8  C   UNL     1       6.009   3.788  13.178  0.00  0.00    +0.000 A 
ATOM      9  C   UNL     1       4.964   3.976  14.092  0.00  0.00    +0.000 A 
ATOM     10  C   UNL     1       5.144   4.790  15.217  0.00  0.00    +0.000 A 
ATOM     11  C   UNL     1       6.368   5.434  15.427  0.00  0.00    +0.000 A 
ATOM     12  C   UNL     1       7.430   5.228  14.540  0.00  0.00    +0.000 A 
ATOM     13  C   UNL     1       7.242   4.413  13.414  0.00  0.00    +0.000 A 
ENDBRANCH   4  11
ENDBRANCH   3   4
ENDBRANCH   2   3
ENDBRANCH   1   2
BRANCH   1  14
ATOM     14  C   UNL     1       4.456   2.229  19.965  0.00  0.00    +0.000 C 
BRANCH  14  15
ATOM     15  S   UNL     1       3.119   1.734  18.814  0.00  0.00    +0.000 S 
BRANCH  15  16
ATOM     16  S   UNL     1       1.427   2.687  19.597  0.00  0.00    +0.000 S 
ATOM     17  O   UNL     1       0.288   2.241  18.814  0.00  0.00    +0.000 OA
ATOM     18  O   UNL     1       1.458   2.512  21.033  0.00  0.00    +0.000 OA
BRANCH  16  19
ATOM     19  C   UNL     1       1.681   4.423  19.247  0.00  0.00    +0.000 A 
ATOM     20  C   UNL     1       1.743   5.331  20.313  0.00  0.00    +0.000 A 
ATOM     21  C   UNL     1       1.971   6.689  20.067  0.00  0.00    +0.000 A 
ATOM     22  C   UNL     1       2.153   7.153  18.759  0.00  0.00    +0.000 A 
ATOM     23  C   UNL     1       2.377   8.612  18.475  0.00  0.00    +0.000 C 
ATOM     24  C   UNL     1       2.119   6.233  17.700  0.00  0.00    +0.000 A 
ATOM     25  C   UNL     1       1.894   4.868  17.940  0.00  0.00    +0.000 A 
ENDBRANCH  16  19
ENDBRANCH  15  16
ENDBRANCH  14  15
ENDBRANCH   1  14
TORSDOF 8
ENDMDL
MODEL 3
REMARK VINA RESULT:      -6.9      0.485      1.078
REMARK  Name = 
REMARK  10 active torsions:
REMARK  status: ('A' for Active; 'I' for Inactive)
REMARK    1  A    between atoms: C_1  and  C_2
REMARK    2  A    between atoms: C_5  and  S_6
REMARK    3  A    between atoms: S_6  and  S_9
REMARK    4  A    between atoms: S_9  and  C_10
REMARK    5  A    between atoms: C_10  and  C_11
REMARK    6  A    between atoms: C_11  and  C_12
REMARK    7  A    between atoms: C_12  and  S_13
REMARK    8  A    between atoms: S_13  and  S_14
REMARK    9  A    between atoms: S_14  and  C_17
REMARK   10  A    between atoms: C_20  and  C_21
REMARK                            x       y       z     vdW  Elec       q    Type
REMARK                         _______ _______ _______ _____ _____    ______ ____
ROOT
ATOM      1  C   UNL     1       1.215   6.571  20.465  0.00  0.00    +0.000 C 
ENDROOT
BRANCH   1   2
ATOM      2  C   UNL     1       1.650   7.911  21.083  0.00  0.00    +0.000 C 
BRANCH   2   3
ATOM      3  S   UNL     1       0.246   9.084  20.988  0.00  0.00    +0.000 S 
BRANCH   3   4
ATOM      4  S   UNL     1       0.658  10.194  19.260  0.00  0.00    +0.000 S 
ATOM      5  O   UNL     1       1.332   9.306  18.333  0.00  0.00    +0.000 OA
ATOM      6  O   UNL     1       1.268  11.435  19.686  0.00  0.00    +0.000 OA
BRANCH   4  11
ATOM      7  C   UNL     1      -4.877  11.458  17.016  0.00  0.00    +0.000 C 
ATOM      8  C   UNL     1      -3.518  11.147  17.580  0.00  0.00    +0.000 A 
ATOM      9  C   UNL     1      -3.044  11.792  18.730  0.00  0.00    +0.000 A 
ATOM     10  C   UNL     1      -1.769  11.504  19.229  0.00  0.00    +0.000 A 
ATOM     11  C   UNL     1      -0.952  10.577  18.573  0.00  0.00    +0.000 A 
ATOM     12  C   UNL     1      -1.426   9.902  17.443  0.00  0.00    +0.000 A 
ATOM     13  C   UNL     1      -2.703  10.197  16.947  0.00  0.00    +0.000 A 
ENDBRANCH   4  11
ENDBRANCH   3   4
ENDBRANCH   2   3
ENDBRANCH   1   2
BRANCH   1  14
ATOM     14  C   UNL     1       2.216   5.421  20.673  0.00  0.00    +0.000 C 
BRANCH  14  15
ATOM     15  S   UNL     1       1.424   3.855  20.147  0.00  0.00    +0.000 S 
BRANCH  15  16
ATOM     16  S   UNL     1       2.082   3.615  18.174  0.00  0.00    +0.000 S 
ATOM     17  O   UNL     1       2.401   2.209  18.000  0.00  0.00    +0.000 OA
ATOM     18  O   UNL     1       1.121   4.273  17.315  0.00  0.00    +0.000 OA
BRANCH  16  19
ATOM     19  C   UNL     1       3.615   4.535  18.092  0.00  0.00    +0.000 A 
ATOM     20  C   UNL     1       4.798   3.931  18.538  0.00  0.00    +0.000 A 
ATOM     21  C   UNL     1       6.013   4.619  18.455  0.00  0.00    +0.000 A 
ATOM     22  C   UNL     1       6.063   5.910  17.916  0.00  0.00    +0.000 A 
ATOM     23  C   UNL     1       7.356   6.672  17.840  0.00  0.00    +0.000 C 
ATOM     24  C   UNL     1       4.879   6.497  17.445  0.00  0.00    +0.000 A 
ATOM     25  C   UNL     1       3.656   5.810  17.521  0.00  0.00    +0.000 A 
ENDBRANCH  16  19
ENDBRANCH  15  16
ENDBRANCH  14  15
ENDBRANCH   1  14
TORSDOF 8
ENDMDL
MODEL 4
REMARK VINA RESULT:      -6.7      3.952      6.086
REMARK  Name = 
REMARK  10 active torsions:
REMARK  status: ('A' for Active; 'I' for Inactive)
REMARK    1  A    between atoms: C_1  and  C_2
REMARK    2  A    between atoms: C_5  and  S_6
REMARK    3  A    between atoms: S_6  and  S_9
REMARK    4  A    between atoms: S_9  and  C_10
REMARK    5  A    between atoms: C_10  and  C_11
REMARK    6  A    between atoms: C_11  and  C_12
REMARK    7  A    between atoms: C_12  and  S_13
REMARK    8  A    between atoms: S_13  and  S_14
REMARK    9  A    between atoms: S_14  and  C_17
REMARK   10  A    between atoms: C_20  and  C_21
REMARK                            x       y       z     vdW  Elec       q    Type
REMARK                         _______ _______ _______ _____ _____    ______ ____
ROOT
ATOM      1  C   UNL     1       4.611   3.551  17.934  0.00  0.00    +0.000 C 
ENDROOT
BRANCH   1   2
ATOM      2  C   UNL     1       4.119   2.218  18.523  0.00  0.00    +0.000 C 
BRANCH   2   3
ATOM      3  S   UNL     1       3.628   2.492  20.267  0.00  0.00    +0.000 S 
BRANCH   3   4
ATOM      4  S   UNL     1       1.652   3.168  20.113  0.00  0.00    +0.000 S 
ATOM      5  O   UNL     1       1.103   3.190  21.455  0.00  0.00    +0.000 OA
ATOM      6  O   UNL     1       1.021   2.406  19.059  0.00  0.00    +0.000 OA
BRANCH   4  11
ATOM      7  C   UNL     1       2.246   8.926  18.172  0.00  0.00    +0.000 C 
ATOM      8  C   UNL     1       2.107   7.504  18.641  0.00  0.00    +0.000 A 
ATOM      9  C   UNL     1       2.000   6.446  17.730  0.00  0.00    +0.000 A 
ATOM     10  C   UNL     1       1.852   5.130  18.185  0.00  0.00    +0.000 A 
ATOM     11  C   UNL     1       1.796   4.866  19.558  0.00  0.00    +0.000 A 
ATOM     12  C   UNL     1       1.934   5.910  20.479  0.00  0.00    +0.000 A 
ATOM     13  C   UNL     1       2.080   7.225  20.016  0.00  0.00    +0.000 A 
ENDBRANCH   4  11
ENDBRANCH   3   4
ENDBRANCH   2   3
ENDBRANCH   1   2
BRANCH   1  14
ATOM     14  C   UNL     1       5.411   4.423  18.918  0.00  0.00    +0.000 C 
BRANCH  14  15
ATOM     15  S   UNL     1       7.051   4.779  18.183  0.00  0.00    +0.000 S 
BRANCH  15  16
ATOM     16  S   UNL     1       6.624   6.197  16.704  0.00  0.00    +0.000 S 
ATOM     17  O   UNL     1       5.356   6.809  17.055  0.00  0.00    +0.000 OA
ATOM     18  O   UNL     1       7.814   7.000  16.519  0.00  0.00    +0.000 OA
BRANCH  16  19
ATOM     19  C   UNL     1       6.372   5.237  15.214  0.00  0.00    +0.000 A 
ATOM     20  C   UNL     1       7.381   5.208  14.242  0.00  0.00    +0.000 A 
ATOM     21  C   UNL     1       7.219   4.441  13.084  0.00  0.00    +0.000 A 
ATOM     22  C   UNL     1       6.057   3.686  12.889  0.00  0.00    +0.000 A 
ATOM     23  C   UNL     1       5.857   2.873  11.640  0.00  0.00    +0.000 C 
ATOM     24  C   UNL     1       5.064   3.696  13.881  0.00  0.00    +0.000 A 
ATOM     25  C   UNL     1       5.221   4.461  15.048  0.00  0.00    +0.000 A 
ENDBRANCH  16  19
ENDBRANCH  15  16
ENDBRANCH  14  15
ENDBRANCH   1  14
TORSDOF 8
ENDMDL
MODEL 5
REMARK VINA RESULT:      -6.6      2.317      3.427
REMARK  Name = 
REMARK  10 active torsions:
REMARK  status: ('A' for Active; 'I' for Inactive)
REMARK    1  A    between atoms: C_1  and  C_2
REMARK    2  A    between atoms: C_5  and  S_6
REMARK    3  A    between atoms: S_6  and  S_9
REMARK    4  A    between atoms: S_9  and  C_10
REMARK    5  A    between atoms: C_10  and  C_11
REMARK    6  A    between atoms: C_11  and  C_12
REMARK    7  A    between atoms: C_12  and  S_13
REMARK    8  A    between atoms: S_13  and  S_14
REMARK    9  A    between atoms: S_14  and  C_17
REMARK   10  A    between atoms: C_20  and  C_21
REMARK                            x       y       z     vdW  Elec       q    Type
REMARK                         _______ _______ _______ _____ _____    ______ ____
ROOT
ATOM      1  C   UNL     1       3.283   7.168  17.755  0.00  0.00    +0.000 C 
ENDROOT
BRANCH   1   2
ATOM      2  C   UNL     1       2.639   8.565  17.790  0.00  0.00    +0.000 C 
BRANCH   2   3
ATOM      3  S   UNL     1       1.501   8.650  19.224  0.00  0.00    +0.000 S 
BRANCH   3   4
ATOM      4  S   UNL     1       1.025  10.686  19.344  0.00  0.00    +0.000 S 
ATOM      5  O   UNL     1       1.877  11.380  18.397  0.00  0.00    +0.000 OA
ATOM      6  O   UNL     1       1.019  11.041  20.746  0.00  0.00    +0.000 OA
BRANCH   4  11
ATOM      7  C   UNL     1      -4.670  11.092  17.182  0.00  0.00    +0.000 C 
ATOM      8  C   UNL     1      -3.263  10.991  17.703  0.00  0.00    +0.000 A 
ATOM      9  C   UNL     1      -2.347  10.087  17.149  0.00  0.00    +0.000 A 
ATOM     10  C   UNL     1      -1.047   9.993  17.661  0.00  0.00    +0.000 A 
ATOM     11  C   UNL     1      -0.659  10.794  18.740  0.00  0.00    +0.000 A 
ATOM     12  C   UNL     1      -1.553  11.724  19.280  0.00  0.00    +0.000 A 
ATOM     13  C   UNL     1      -2.855  11.811  18.765  0.00  0.00    +0.000 A 
ENDBRANCH   4  11
ENDBRANCH   3   4
ENDBRANCH   2   3
ENDBRANCH   1   2
BRANCH   1  14
ATOM     14  C   UNL     1       4.808   7.178  17.552  0.00  0.00    +0.000 C 
BRANCH  14  15
ATOM     15  S   UNL     1       5.201   6.240  16.028  0.00  0.00    +0.000 S 
BRANCH  15  16
ATOM     16  S   UNL     1       5.781   4.362  16.748  0.00  0.00    +0.000 S 
ATOM     17  O   UNL     1       5.829   3.465  15.607  0.00  0.00    +0.000 OA
ATOM     18  O   UNL     1       6.942   4.561  17.589  0.00  0.00    +0.000 OA
BRANCH  16  19
ATOM     19  C   UNL     1       4.427   3.839  17.795  0.00  0.00    +0.000 A 
ATOM     20  C   UNL     1       3.185   3.553  17.212  0.00  0.00    +0.000 A 
ATOM     21  C   UNL     1       2.120   3.113  18.005  0.00  0.00    +0.000 A 
ATOM     22  C   UNL     1       2.287   2.942  19.384  0.00  0.00    +0.000 A 
ATOM     23  C   UNL     1       1.147   2.491  20.255  0.00  0.00    +0.000 C 
ATOM     24  C   UNL     1       3.541   3.201  19.956  0.00  0.00    +0.000 A 
ATOM     25  C   UNL     1       4.615   3.640  19.165  0.00  0.00    +0.000 A 
ENDBRANCH  16  19
ENDBRANCH  15  16
ENDBRANCH  14  15
ENDBRANCH   1  14
TORSDOF 8
ENDMDL
MODEL 6
REMARK VINA RESULT:      -6.6      1.282      1.823
REMARK  Name = 
REMARK  10 active torsions:
REMARK  status: ('A' for Active; 'I' for Inactive)
REMARK    1  A    between atoms: C_1  and  C_2
REMARK    2  A    between atoms: C_5  and  S_6
REMARK    3  A    between atoms: S_6  and  S_9
REMARK    4  A    between atoms: S_9  and  C_10
REMARK    5  A    between atoms: C_10  and  C_11
REMARK    6  A    between atoms: C_11  and  C_12
REMARK    7  A    between atoms: C_12  and  S_13
REMARK    8  A    between atoms: S_13  and  S_14
REMARK    9  A    between atoms: S_14  and  C_17
REMARK   10  A    between atoms: C_20  and  C_21
REMARK                            x       y       z     vdW  Elec       q    Type
REMARK                         _______ _______ _______ _____ _____    ______ ____
ROOT
ATOM      1  C   UNL     1       2.398   6.362  20.105  0.00  0.00    +0.000 C 
ENDROOT
BRANCH   1   2
ATOM      2  C   UNL     1       1.610   7.623  20.496  0.00  0.00    +0.000 C 
BRANCH   2   3
ATOM      3  S   UNL     1       1.594   8.772  19.069  0.00  0.00    +0.000 S 
BRANCH   3   4
ATOM      4  S   UNL     1       0.664  10.485  19.836  0.00  0.00    +0.000 S 
ATOM      5  O   UNL     1       1.539  11.607  19.557  0.00  0.00    +0.000 OA
ATOM      6  O   UNL     1       0.249  10.176  21.187  0.00  0.00    +0.000 OA
BRANCH   4  11
ATOM      7  C   UNL     1      -4.424  11.124  16.523  0.00  0.00    +0.000 C 
ATOM      8  C   UNL     1      -3.178  10.967  17.349  0.00  0.00    +0.000 A 
ATOM      9  C   UNL     1      -2.987  11.707  18.524  0.00  0.00    +0.000 A 
ATOM     10  C   UNL     1      -1.811  11.562  19.270  0.00  0.00    +0.000 A 
ATOM     11  C   UNL     1      -0.811  10.685  18.837  0.00  0.00    +0.000 A 
ATOM     12  C   UNL     1      -1.002   9.917  17.684  0.00  0.00    +0.000 A 
ATOM     13  C   UNL     1      -2.181  10.069  16.940  0.00  0.00    +0.000 A 
ENDBRANCH   4  11
ENDBRANCH   3   4
ENDBRANCH   2   3
ENDBRANCH   1   2
BRANCH   1  14
ATOM     14  C   UNL     1       1.545   5.084  20.012  0.00  0.00    +0.000 C 
BRANCH  14  15
ATOM     15  S   UNL     1       1.837   4.303  18.381  0.00  0.00    +0.000 S 
BRANCH  15  16
ATOM     16  S   UNL     1       3.714   3.403  18.601  0.00  0.00    +0.000 S 
ATOM     17  O   UNL     1       3.857   3.055  20.003  0.00  0.00    +0.000 OA
ATOM     18  O   UNL     1       3.835   2.398  17.567  0.00  0.00    +0.000 OA
BRANCH  16  19
ATOM     19  C   UNL     1       4.887   4.706  18.241  0.00  0.00    +0.000 A 
ATOM     20  C   UNL     1       5.990   4.884  19.087  0.00  0.00    +0.000 A 
ATOM     21  C   UNL     1       6.936   5.876  18.809  0.00  0.00    +0.000 A 
ATOM     22  C   UNL     1       6.800   6.691  17.680  0.00  0.00    +0.000 A 
ATOM     23  C   UNL     1       7.795   7.776  17.378  0.00  0.00    +0.000 C 
ATOM     24  C   UNL     1       5.709   6.487  16.821  0.00  0.00    +0.000 A 
ATOM     25  C   UNL     1       4.757   5.491  17.092  0.00  0.00    +0.000 A 
ENDBRANCH  16  19
ENDBRANCH  15  16
ENDBRANCH  14  15
ENDBRANCH   1  14
TORSDOF 8
ENDMDL
MODEL 7
REMARK VINA RESULT:      -6.6      6.328      9.944
REMARK  Name = 
REMARK  10 active torsions:
REMARK  status: ('A' for Active; 'I' for Inactive)
REMARK    1  A    between atoms: C_1  and  C_2
REMARK    2  A    between atoms: C_5  and  S_6
REMARK    3  A    between atoms: S_6  and  S_9
REMARK    4  A    between atoms: S_9  and  C_10
REMARK    5  A    between atoms: C_10  and  C_11
REMARK    6  A    between atoms: C_11  and  C_12
REMARK    7  A    between atoms: C_12  and  S_13
REMARK    8  A    between atoms: S_13  and  S_14
REMARK    9  A    between atoms: S_14  and  C_17
REMARK   10  A    between atoms: C_20  and  C_21
REMARK                            x       y       z     vdW  Elec       q    Type
REMARK                         _______ _______ _______ _____ _____    ______ ____
ROOT
ATOM      1  C   UNL     1       8.718   9.028  18.540  0.00  0.00    +0.000 C 
ENDROOT
BRANCH   1   2
ATOM      2  C   UNL     1       7.757   8.204  17.667  0.00  0.00    +0.000 C 
BRANCH   2   3
ATOM      3  S   UNL     1       7.657   6.506  18.347  0.00  0.00    +0.000 S 
BRANCH   3   4
ATOM      4  S   UNL     1       6.848   5.397  16.765  0.00  0.00    +0.000 S 
ATOM      5  O   UNL     1       7.831   4.395  16.400  0.00  0.00    +0.000 OA
ATOM      6  O   UNL     1       6.346   6.343  15.794  0.00  0.00    +0.000 OA
BRANCH   4  11
ATOM      7  C   UNL     1       1.995   2.575  19.164  0.00  0.00    +0.000 C 
ATOM      8  C   UNL     1       3.182   3.275  18.565  0.00  0.00    +0.000 A 
ATOM      9  C   UNL     1       3.305   3.442  17.180  0.00  0.00    +0.000 A 
ATOM     10  C   UNL     1       4.428   4.080  16.639  0.00  0.00    +0.000 A 
ATOM     11  C   UNL     1       5.444   4.543  17.481  0.00  0.00    +0.000 A 
ATOM     12  C   UNL     1       5.319   4.412  18.868  0.00  0.00    +0.000 A 
ATOM     13  C   UNL     1       4.193   3.770  19.403  0.00  0.00    +0.000 A 
ENDBRANCH   4  11
ENDBRANCH   3   4
ENDBRANCH   2   3
ENDBRANCH   1   2
BRANCH   1  14
ATOM     14  C   UNL     1       8.945  10.469  18.049  0.00  0.00    +0.000 C 
BRANCH  14  15
ATOM     15  S   UNL     1       9.494  11.490  19.468  0.00  0.00    +0.000 S 
BRANCH  15  16
ATOM     16  S   UNL     1      10.036  13.306  18.579  0.00  0.00    +0.000 S 
ATOM     17  O   UNL     1      11.006  13.936  19.457  0.00  0.00    +0.000 OA
ATOM     18  O   UNL     1      10.352  13.032  17.193  0.00  0.00    +0.000 OA
BRANCH  16  19
ATOM     19  C   UNL     1       8.544  14.294  18.618  0.00  0.00    +0.000 A 
ATOM     20  C   UNL     1       7.493  13.977  17.747  0.00  0.00    +0.000 A 
ATOM     21  C   UNL     1       6.306  14.715  17.780  0.00  0.00    +0.000 A 
ATOM     22  C   UNL     1       6.150  15.768  18.689  0.00  0.00    +0.000 A 
ATOM     23  C   UNL     1       4.889  16.586  18.723  0.00  0.00    +0.000 C 
ATOM     24  C   UNL     1       7.195  16.061  19.578  0.00  0.00    +0.000 A 
ATOM     25  C   UNL     1       8.388  15.321  19.553  0.00  0.00    +0.000 A 
ENDBRANCH  16  19
ENDBRANCH  15  16
ENDBRANCH  14  15
ENDBRANCH   1  14
TORSDOF 8
ENDMDL
MODEL 8
REMARK VINA RESULT:      -6.6      6.937      9.492
REMARK  Name = 
REMARK  10 active torsions:
REMARK  status: ('A' for Active; 'I' for Inactive)
REMARK    1  A    between atoms: C_1  and  C_2
REMARK    2  A    between atoms: C_5  and  S_6
REMARK    3  A    between atoms: S_6  and  S_9
REMARK    4  A    between atoms: S_9  and  C_10
REMARK    5  A    between atoms: C_10  and  C_11
REMARK    6  A    between atoms: C_11  and  C_12
REMARK    7  A    between atoms: C_12  and  S_13
REMARK    8  A    between atoms: S_13  and  S_14
REMARK    9  A    between atoms: S_14  and  C_17
REMARK   10  A    between atoms: C_20  and  C_21
REMARK                            x       y       z     vdW  Elec       q    Type
REMARK                         _______ _______ _______ _____ _____    ______ ____
ROOT
ATOM      1  C   UNL     1       7.968   9.140  17.966  0.00  0.00    +0.000 C 
ENDROOT
BRANCH   1   2
ATOM      2  C   UNL     1       9.113   9.874  18.684  0.00  0.00    +0.000 C 
BRANCH   2   3
ATOM      3  S   UNL     1       9.113  11.627  18.149  0.00  0.00    +0.000 S 
BRANCH   3   4
ATOM      4  S   UNL     1      10.982  12.327  18.783  0.00  0.00    +0.000 S 
ATOM      5  O   UNL     1      11.981  11.703  17.936  0.00  0.00    +0.000 OA
ATOM      6  O   UNL     1      11.026  12.184  20.221  0.00  0.00    +0.000 OA
BRANCH   4  11
ATOM      7  C   UNL     1      10.802  18.291  17.492  0.00  0.00    +0.000 C 
ATOM      8  C   UNL     1      10.835  16.823  17.815  0.00  0.00    +0.000 A 
ATOM      9  C   UNL     1      10.403  16.343  19.058  0.00  0.00    +0.000 A 
ATOM     10  C   UNL     1      10.460  14.975  19.349  0.00  0.00    +0.000 A 
ATOM     11  C   UNL     1      10.964  14.078  18.401  0.00  0.00    +0.000 A 
ATOM     12  C   UNL     1      11.369  14.540  17.145  0.00  0.00    +0.000 A 
ATOM     13  C   UNL     1      11.311  15.912  16.861  0.00  0.00    +0.000 A 
ENDBRANCH   4  11
ENDBRANCH   3   4
ENDBRANCH   2   3
ENDBRANCH   1   2
BRANCH   1  14
ATOM     14  C   UNL     1       8.013   7.608  18.100  0.00  0.00    +0.000 C 
BRANCH  14  15
ATOM     15  S   UNL     1       6.995   6.874  16.765  0.00  0.00    +0.000 S 
BRANCH  15  16
ATOM     16  S   UNL     1       6.918   4.844  17.272  0.00  0.00    +0.000 S 
ATOM     17  O   UNL     1       6.995   4.093  16.032  0.00  0.00    +0.000 OA
ATOM     18  O   UNL     1       7.876   4.628  18.335  0.00  0.00    +0.000 OA
BRANCH  16  19
ATOM     19  C   UNL     1       5.280   4.608  17.951  0.00  0.00    +0.000 A 
ATOM     20  C   UNL     1       4.952   5.217  19.169  0.00  0.00    +0.000 A 
ATOM     21  C   UNL     1       3.668   5.072  19.705  0.00  0.00    +0.000 A 
ATOM     22  C   UNL     1       2.695   4.329  19.026  0.00  0.00    +0.000 A 
ATOM     23  C   UNL     1       1.318   4.144  19.598  0.00  0.00    +0.000 C 
ATOM     24  C   UNL     1       3.022   3.747  17.792  0.00  0.00    +0.000 A 
ATOM     25  C   UNL     1       4.308   3.892  17.247  0.00  0.00    +0.000 A 
ENDBRANCH  16  19
ENDBRANCH  15  16
ENDBRANCH  14  15
ENDBRANCH   1  14
TORSDOF 8
ENDMDL
MODEL 9
REMARK VINA RESULT:      -6.5      7.097      9.573
REMARK  Name = 
REMARK  10 active torsions:
REMARK  status: ('A' for Active; 'I' for Inactive)
REMARK    1  A    between atoms: C_1  and  C_2
REMARK    2  A    between atoms: C_5  and  S_6
REMARK    3  A    between atoms: S_6  and  S_9
REMARK    4  A    between atoms: S_9  and  C_10
REMARK    5  A    between atoms: C_10  and  C_11
REMARK    6  A    between atoms: C_11  and  C_12
REMARK    7  A    between atoms: C_12  and  S_13
REMARK    8  A    between atoms: S_13  and  S_14
REMARK    9  A    between atoms: S_14  and  C_17
REMARK   10  A    between atoms: C_20  and  C_21
REMARK                            x       y       z     vdW  Elec       q    Type
REMARK                         _______ _______ _______ _____ _____    ______ ____
ROOT
ATOM      1  C   UNL     1       8.678   9.311  18.664  0.00  0.00    +0.000 C 
ENDROOT
BRANCH   1   2
ATOM      2  C   UNL     1       9.115  10.613  17.971  0.00  0.00    +0.000 C 
BRANCH   2   3
ATOM      3  S   UNL     1      10.011  11.652  19.185  0.00  0.00    +0.000 S 
BRANCH   3   4
ATOM      4  S   UNL     1       9.939  13.564  18.334  0.00  0.00    +0.000 S 
ATOM      5  O   UNL     1       8.569  13.796  17.921  0.00  0.00    +0.000 OA
ATOM      6  O   UNL     1      11.031  13.651  17.389  0.00  0.00    +0.000 OA
BRANCH   4  11
ATOM      7  C   UNL     1      11.261  17.350  22.936  0.00  0.00    +0.000 C 
ATOM      8  C   UNL     1      10.946  16.421  21.798  0.00  0.00    +0.000 A 
ATOM      9  C   UNL     1      11.239  16.770  20.473  0.00  0.00    +0.000 A 
ATOM     10  C   UNL     1      10.920  15.900  19.424  0.00  0.00    +0.000 A 
ATOM     11  C   UNL     1      10.294  14.679  19.692  0.00  0.00    +0.000 A 
ATOM     12  C   UNL     1      10.026  14.303  21.013  0.00  0.00    +0.000 A 
ATOM     13  C   UNL     1      10.345  15.181  22.059  0.00  0.00    +0.000 A 
ENDBRANCH   4  11
ENDBRANCH   3   4
ENDBRANCH   2   3
ENDBRANCH   1   2
BRANCH   1  14
ATOM     14  C   UNL     1       7.907   8.337  17.756  0.00  0.00    +0.000 C 
BRANCH  14  15
ATOM     15  S   UNL     1       7.838   6.701  18.579  0.00  0.00    +0.000 S 
BRANCH  15  16
ATOM     16  S   UNL     1       7.324   5.396  17.025  0.00  0.00    +0.000 S 
ATOM     17  O   UNL     1       7.404   6.154  15.790  0.00  0.00    +0.000 OA
ATOM     18  O   UNL     1       8.093   4.183  17.207  0.00  0.00    +0.000 OA
BRANCH  16  19
ATOM     19  C   UNL     1       5.602   5.004  17.313  0.00  0.00    +0.000 A 
ATOM     20  C   UNL     1       4.835   5.853  18.122  0.00  0.00    +0.000 A 
ATOM     21  C   UNL     1       3.479   5.584  18.336  0.00  0.00    +0.000 A 
ATOM     22  C   UNL     1       2.872   4.474  17.738  0.00  0.00    +0.000 A 
ATOM     23  C   UNL     1       1.422   4.157  17.975  0.00  0.00    +0.000 C 
ATOM     24  C   UNL     1       3.640   3.645  16.906  0.00  0.00    +0.000 A 
ATOM     25  C   UNL     1       5.000   3.911  16.683  0.00  0.00    +0.000 A 
ENDBRANCH  16  19
ENDBRANCH  15  16
ENDBRANCH  14  15
ENDBRANCH   1  14
TORSDOF 8
ENDMDL
