MODEL 1
REMARK VINA RESULT:      -7.6      0.000      0.000
REMARK  Name = 
REMARK  8 active torsions:
REMARK  status: ('A' for Active; 'I' for Inactive)
REMARK    1  A    between atoms: C_2  and  O_3
REMARK    2  A    between atoms: C_2  and  C_4
REMARK    3  A    between atoms: C_4  and  C_5
REMARK    4  A    between atoms: C_5  and  C_6
REMARK    5  A    between atoms: C_6  and  C_7
REMARK    6  A    between atoms: C_10  and  N_11
REMARK    7  A    between atoms: C_12  and  C_14
REMARK    8  A    between atoms: C_19  and  O_20
REMARK                            x       y       z     vdW  Elec       q    Type
REMARK                         _______ _______ _______ _____ _____    ______ ____
ROOT
ATOM      1  C   UNL     1       5.142   4.630  16.144  0.00  0.00    +0.000 A 
ATOM      2  C   UNL     1       4.113   4.018  16.860  0.00  0.00    +0.000 A 
ATOM      3  C   UNL     1       3.300   4.768  17.704  0.00  0.00    +0.000 A 
ATOM      4  C   UNL     1       3.502   6.137  17.880  0.00  0.00    +0.000 A 
ATOM      5  C   UNL     1       4.549   6.751  17.180  0.00  0.00    +0.000 A 
ATOM      6  C   UNL     1       5.366   6.001  16.321  0.00  0.00    +0.000 A 
ENDROOT
BRANCH   4   7
ATOM      7  N   UNL     1       2.691   6.929  18.725  0.00  0.00    +0.000 N 
ATOM      8  C   UNL     1       2.148   8.159  18.408  0.00  0.00    +0.000 C 
ATOM      9  O   UNL     1       2.271   8.737  17.329  0.00  0.00    +0.000 OA
ATOM     10  H   UNL     1       2.472   6.563  19.649  0.00  0.00    +0.000 HD
BRANCH   8  11
ATOM     11  C   UNL     1       1.350   8.861  19.457  0.00  0.00    +0.000 A 
ATOM     12  C   UNL     1       1.461   8.349  20.766  0.00  0.00    +0.000 A 
ATOM     13  C   UNL     1       0.731   8.891  21.819  0.00  0.00    +0.000 A 
ATOM     14  C   UNL     1      -0.120   9.964  21.581  0.00  0.00    +0.000 A 
ATOM     15  C   UNL     1      -0.233  10.499  20.294  0.00  0.00    +0.000 A 
ATOM     16  C   UNL     1       0.497   9.949  19.234  0.00  0.00    +0.000 A 
BRANCH  16  17
ATOM     17  O   UNL     1       0.357  10.488  17.982  0.00  0.00    +0.000 OA
ATOM     18  H   UNL     1       1.239  10.735  17.651  0.00  0.00    +0.000 HD
ENDBRANCH  16  17
ENDBRANCH   8  11
ENDBRANCH   4   7
BRANCH   1  19
ATOM     19  C   UNL     1       5.928   3.822  15.143  0.00  0.00    +0.000 C 
BRANCH  19  20
ATOM     20  C   UNL     1       5.771   4.373  13.715  0.00  0.00    +0.000 C 
BRANCH  20  21
ATOM     21  C   UNL     1       6.438   3.511  12.641  0.00  0.00    +0.000 C 
BRANCH  21  23
ATOM     22  O   UNL     1       4.362   3.134  11.452  0.00  0.00    +0.000 OA
ATOM     23  C   UNL     1       5.432   2.706  11.852  0.00  0.00    +0.000 C 
BRANCH  23  24
ATOM     24  O   UNL     1       5.845   1.445  11.598  0.00  0.00    +0.000 OA
ATOM     25  H   UNL     1       5.305   0.758  12.031  0.00  0.00    +0.000 HD
ENDBRANCH  23  24
ENDBRANCH  21  23
ENDBRANCH  20  21
ENDBRANCH  19  20
ENDBRANCH   1  19
TORSDOF 8
ENDMDL
MODEL 2
REMARK VINA RESULT:      -7.4      5.847      7.483
REMARK  Name = 
REMARK  8 active torsions:
REMARK  status: ('A' for Active; 'I' for Inactive)
REMARK    1  A    between atoms: C_2  and  O_3
REMARK    2  A    between atoms: C_2  and  C_4
REMARK    3  A    between atoms: C_4  and  C_5
REMARK    4  A    between atoms: C_5  and  C_6
REMARK    5  A    between atoms: C_6  and  C_7
REMARK    6  A    between atoms: C_10  and  N_11
REMARK    7  A    between atoms: C_12  and  C_14
REMARK    8  A    between atoms: C_19  and  O_20
REMARK                            x       y       z     vdW  Elec       q    Type
REMARK                         _______ _______ _______ _____ _____    ______ ____
ROOT
ATOM      1  C   UNL     1       6.217   5.307  17.552  0.00  0.00    +0.000 A 
ATOM      2  C   UNL     1       6.197   6.513  16.852  0.00  0.00    +0.000 A 
ATOM      3  C   UNL     1       7.045   7.553  17.218  0.00  0.00    +0.000 A 
ATOM      4  C   UNL     1       7.914   7.435  18.302  0.00  0.00    +0.000 A 
ATOM      5  C   UNL     1       7.922   6.233  19.022  0.00  0.00    +0.000 A 
ATOM      6  C   UNL     1       7.075   5.177  18.650  0.00  0.00    +0.000 A 
ENDROOT
BRANCH   4   7
ATOM      7  N   UNL     1       8.793   8.469  18.697  0.00  0.00    +0.000 N 
ATOM      8  C   UNL     1       8.667   9.807  18.379  0.00  0.00    +0.000 C 
ATOM      9  O   UNL     1       7.752  10.302  17.723  0.00  0.00    +0.000 OA
ATOM     10  H   UNL     1       9.589   8.216  19.280  0.00  0.00    +0.000 HD
BRANCH   8  11
ATOM     11  C   UNL     1       9.728  10.742  18.860  0.00  0.00    +0.000 A 
ATOM     12  C   UNL     1      10.520  11.345  17.863  0.00  0.00    +0.000 A 
ATOM     13  C   UNL     1      11.568  12.200  18.191  0.00  0.00    +0.000 A 
ATOM     14  C   UNL     1      11.837  12.472  19.527  0.00  0.00    +0.000 A 
ATOM     15  C   UNL     1      11.053  11.898  20.533  0.00  0.00    +0.000 A 
ATOM     16  C   UNL     1      10.003  11.033  20.202  0.00  0.00    +0.000 A 
BRANCH  16  17
ATOM     17  O   UNL     1       9.260  10.477  21.211  0.00  0.00    +0.000 OA
ATOM     18  H   UNL     1       8.436  10.125  20.829  0.00  0.00    +0.000 HD
ENDBRANCH  16  17
ENDBRANCH   8  11
ENDBRANCH   4   7
BRANCH   1  19
ATOM     19  C   UNL     1       5.381   4.153  17.060  0.00  0.00    +0.000 C 
BRANCH  19  20
ATOM     20  C   UNL     1       3.934   4.234  17.578  0.00  0.00    +0.000 C 
BRANCH  20  21
ATOM     21  C   UNL     1       3.765   3.763  19.024  0.00  0.00    +0.000 C 
BRANCH  21  23
ATOM     22  O   UNL     1       3.373   1.412  18.596  0.00  0.00    +0.000 OA
ATOM     23  C   UNL     1       4.009   2.280  19.171  0.00  0.00    +0.000 C 
BRANCH  23  24
ATOM     24  O   UNL     1       5.038   1.992  19.997  0.00  0.00    +0.000 OA
ATOM     25  H   UNL     1       5.903   1.945  19.549  0.00  0.00    +0.000 HD
ENDBRANCH  23  24
ENDBRANCH  21  23
ENDBRANCH  20  21
ENDBRANCH  19  20
ENDBRANCH   1  19
TORSDOF 8
ENDMDL
MODEL 3
REMARK VINA RESULT:      -7.4      0.912      1.464
REMARK  Name = 
REMARK  8 active torsions:
REMARK  status: ('A' for Active; 'I' for Inactive)
REMARK    1  A    between atoms: C_2  and  O_3
REMARK    2  A    between atoms: C_2  and  C_4
REMARK    3  A    between atoms: C_4  and  C_5
REMARK    4  A    between atoms: C_5  and  C_6
REMARK    5  A    between atoms: C_6  and  C_7
REMARK    6  A    between atoms: C_10  and  N_11
REMARK    7  A    between atoms: C_12  and  C_14
REMARK    8  A    between atoms: C_19  and  O_20
REMARK                            x       y       z     vdW  Elec       q    Type
REMARK                         _______ _______ _______ _____ _____    ______ ____
ROOT
ATOM      1  C   UNL     1       5.293   4.653  16.066  0.00  0.00    +0.000 A 
ATOM      2  C   UNL     1       4.269   4.029  16.779  0.00  0.00    +0.000 A 
ATOM      3  C   UNL     1       3.452   4.766  17.629  0.00  0.00    +0.000 A 
ATOM      4  C   UNL     1       3.646   6.135  17.817  0.00  0.00    +0.000 A 
ATOM      5  C   UNL     1       4.688   6.762  17.120  0.00  0.00    +0.000 A 
ATOM      6  C   UNL     1       5.508   6.024  16.253  0.00  0.00    +0.000 A 
ENDROOT
BRANCH   4   7
ATOM      7  N   UNL     1       2.832   6.915  18.669  0.00  0.00    +0.000 N 
ATOM      8  C   UNL     1       2.238   8.119  18.346  0.00  0.00    +0.000 C 
ATOM      9  O   UNL     1       2.310   8.680  17.253  0.00  0.00    +0.000 OA
ATOM     10  H   UNL     1       2.651   6.559  19.607  0.00  0.00    +0.000 HD
BRANCH   8  11
ATOM     11  C   UNL     1       1.445   8.813  19.405  0.00  0.00    +0.000 A 
ATOM     12  C   UNL     1       0.814  10.013  19.019  0.00  0.00    +0.000 A 
ATOM     13  C   UNL     1       0.085  10.771  19.930  0.00  0.00    +0.000 A 
ATOM     14  C   UNL     1      -0.032  10.336  21.245  0.00  0.00    +0.000 A 
ATOM     15  C   UNL     1       0.572   9.140  21.645  0.00  0.00    +0.000 A 
ATOM     16  C   UNL     1       1.310   8.381  20.730  0.00  0.00    +0.000 A 
BRANCH  16  17
ATOM     17  O   UNL     1       1.900   7.219  21.156  0.00  0.00    +0.000 OA
ATOM     18  H   UNL     1       1.557   7.006  22.042  0.00  0.00    +0.000 HD
ENDBRANCH  16  17
ENDBRANCH   8  11
ENDBRANCH   4   7
BRANCH   1  19
ATOM     19  C   UNL     1       6.081   3.858  15.057  0.00  0.00    +0.000 C 
BRANCH  19  20
ATOM     20  C   UNL     1       5.933   4.431  13.636  0.00  0.00    +0.000 C 
BRANCH  20  21
ATOM     21  C   UNL     1       6.491   3.522  12.539  0.00  0.00    +0.000 C 
BRANCH  21  23
ATOM     22  O   UNL     1       4.305   3.181  11.553  0.00  0.00    +0.000 OA
ATOM     23  C   UNL     1       5.404   2.738  11.842  0.00  0.00    +0.000 C 
BRANCH  23  24
ATOM     24  O   UNL     1       5.776   1.476  11.534  0.00  0.00    +0.000 OA
ATOM     25  H   UNL     1       6.741   1.334  11.550  0.00  0.00    +0.000 HD
ENDBRANCH  23  24
ENDBRANCH  21  23
ENDBRANCH  20  21
ENDBRANCH  19  20
ENDBRANCH   1  19
TORSDOF 8
ENDMDL
MODEL 4
REMARK VINA RESULT:      -7.3      0.934      1.799
REMARK  Name = 
REMARK  8 active torsions:
REMARK  status: ('A' for Active; 'I' for Inactive)
REMARK    1  A    between atoms: C_2  and  O_3
REMARK    2  A    between atoms: C_2  and  C_4
REMARK    3  A    between atoms: C_4  and  C_5
REMARK    4  A    between atoms: C_5  and  C_6
REMARK    5  A    between atoms: C_6  and  C_7
REMARK    6  A    between atoms: C_10  and  N_11
REMARK    7  A    between atoms: C_12  and  C_14
REMARK    8  A    between atoms: C_19  and  O_20
REMARK                            x       y       z     vdW  Elec       q    Type
REMARK                         _______ _______ _______ _____ _____    ______ ____
ROOT
ATOM      1  C   UNL     1       5.115   4.808  15.970  0.00  0.00    +0.000 A 
ATOM      2  C   UNL     1       5.263   6.192  16.059  0.00  0.00    +0.000 A 
ATOM      3  C   UNL     1       4.500   6.926  16.961  0.00  0.00    +0.000 A 
ATOM      4  C   UNL     1       3.551   6.311  17.778  0.00  0.00    +0.000 A 
ATOM      5  C   UNL     1       3.383   4.924  17.676  0.00  0.00    +0.000 A 
ATOM      6  C   UNL     1       4.158   4.178  16.774  0.00  0.00    +0.000 A 
ENDROOT
BRANCH   4   7
ATOM      7  N   UNL     1       2.763   7.025  18.710  0.00  0.00    +0.000 N 
ATOM      8  C   UNL     1       2.154   8.245  18.491  0.00  0.00    +0.000 C 
ATOM      9  O   UNL     1       2.187   8.881  17.438  0.00  0.00    +0.000 OA
ATOM     10  H   UNL     1       2.615   6.604  19.625  0.00  0.00    +0.000 HD
BRANCH   8  11
ATOM     11  C   UNL     1       1.394   8.858  19.621  0.00  0.00    +0.000 A 
ATOM     12  C   UNL     1       0.781  10.099  19.354  0.00  0.00    +0.000 A 
ATOM     13  C   UNL     1       0.083  10.788  20.341  0.00  0.00    +0.000 A 
ATOM     14  C   UNL     1      -0.020  10.242  21.615  0.00  0.00    +0.000 A 
ATOM     15  C   UNL     1       0.567   9.004  21.898  0.00  0.00    +0.000 A 
ATOM     16  C   UNL     1       1.273   8.314  20.906  0.00  0.00    +0.000 A 
BRANCH  16  17
ATOM     17  O   UNL     1       1.846   7.108  21.217  0.00  0.00    +0.000 OA
ATOM     18  H   UNL     1       1.307   6.400  20.823  0.00  0.00    +0.000 HD
ENDBRANCH  16  17
ENDBRANCH   8  11
ENDBRANCH   4   7
BRANCH   1  19
ATOM     19  C   UNL     1       6.040   4.022  15.076  0.00  0.00    +0.000 C 
BRANCH  19  20
ATOM     20  C   UNL     1       5.745   4.273  13.587  0.00  0.00    +0.000 C 
BRANCH  20  21
ATOM     21  C   UNL     1       6.403   3.261  12.645  0.00  0.00    +0.000 C 
BRANCH  21  23
ATOM     22  O   UNL     1       4.317   3.001  11.443  0.00  0.00    +0.000 OA
ATOM     23  C   UNL     1       5.390   2.536  11.791  0.00  0.00    +0.000 C 
BRANCH  23  24
ATOM     24  O   UNL     1       5.799   1.306  11.413  0.00  0.00    +0.000 OA
ATOM     25  H   UNL     1       5.454   0.585  11.974  0.00  0.00    +0.000 HD
ENDBRANCH  23  24
ENDBRANCH  21  23
ENDBRANCH  20  21
ENDBRANCH  19  20
ENDBRANCH   1  19
TORSDOF 8
ENDMDL
MODEL 5
REMARK VINA RESULT:      -7.2      5.560      6.938
REMARK  Name = 
REMARK  8 active torsions:
REMARK  status: ('A' for Active; 'I' for Inactive)
REMARK    1  A    between atoms: C_2  and  O_3
REMARK    2  A    between atoms: C_2  and  C_4
REMARK    3  A    between atoms: C_4  and  C_5
REMARK    4  A    between atoms: C_5  and  C_6
REMARK    5  A    between atoms: C_6  and  C_7
REMARK    6  A    between atoms: C_10  and  N_11
REMARK    7  A    between atoms: C_12  and  C_14
REMARK    8  A    between atoms: C_19  and  O_20
REMARK                            x       y       z     vdW  Elec       q    Type
REMARK                         _______ _______ _______ _____ _____    ______ ____
ROOT
ATOM      1  C   UNL     1       6.143   5.554  17.451  0.00  0.00    +0.000 A 
ATOM      2  C   UNL     1       5.991   6.852  16.964  0.00  0.00    +0.000 A 
ATOM      3  C   UNL     1       6.861   7.861  17.365  0.00  0.00    +0.000 A 
ATOM      4  C   UNL     1       7.886   7.615  18.278  0.00  0.00    +0.000 A 
ATOM      5  C   UNL     1       8.028   6.318  18.788  0.00  0.00    +0.000 A 
ATOM      6  C   UNL     1       7.159   5.295  18.379  0.00  0.00    +0.000 A 
ENDROOT
BRANCH   4   7
ATOM      7  N   UNL     1       8.790   8.615  18.703  0.00  0.00    +0.000 N 
ATOM      8  C   UNL     1       8.751   9.950  18.348  0.00  0.00    +0.000 C 
ATOM      9  O   UNL     1       7.902  10.472  17.625  0.00  0.00    +0.000 OA
ATOM     10  H   UNL     1       9.537   8.339  19.338  0.00  0.00    +0.000 HD
BRANCH   8  11
ATOM     11  C   UNL     1       9.827  10.843  18.871  0.00  0.00    +0.000 A 
ATOM     12  C   UNL     1      10.667  11.432  17.904  0.00  0.00    +0.000 A 
ATOM     13  C   UNL     1      11.732  12.249  18.273  0.00  0.00    +0.000 A 
ATOM     14  C   UNL     1      11.971  12.496  19.619  0.00  0.00    +0.000 A 
ATOM     15  C   UNL     1      11.140  11.935  20.595  0.00  0.00    +0.000 A 
ATOM     16  C   UNL     1      10.073  11.110  20.223  0.00  0.00    +0.000 A 
BRANCH  16  17
ATOM     17  O   UNL     1       9.283  10.566  21.203  0.00  0.00    +0.000 OA
ATOM     18  H   UNL     1       9.764  10.615  22.049  0.00  0.00    +0.000 HD
ENDBRANCH  16  17
ENDBRANCH   8  11
ENDBRANCH   4   7
BRANCH   1  19
ATOM     19  C   UNL     1       5.269   4.453  16.907  0.00  0.00    +0.000 C 
BRANCH  19  20
ATOM     20  C   UNL     1       5.982   3.648  15.807  0.00  0.00    +0.000 C 
BRANCH  20  21
ATOM     21  C   UNL     1       5.731   4.173  14.392  0.00  0.00    +0.000 C 
BRANCH  21  23
ATOM     22  O   UNL     1       7.805   5.424  14.373  0.00  0.00    +0.000 OA
ATOM     23  C   UNL     1       6.979   4.757  13.772  0.00  0.00    +0.000 C 
BRANCH  23  24
ATOM     24  O   UNL     1       7.118   4.443  12.465  0.00  0.00    +0.000 OA
ATOM     25  H   UNL     1       7.750   5.012  11.988  0.00  0.00    +0.000 HD
ENDBRANCH  23  24
ENDBRANCH  21  23
ENDBRANCH  20  21
ENDBRANCH  19  20
ENDBRANCH   1  19
TORSDOF 8
ENDMDL
MODEL 6
REMARK VINA RESULT:      -7.2      2.488      2.876
REMARK  Name = 
REMARK  8 active torsions:
REMARK  status: ('A' for Active; 'I' for Inactive)
REMARK    1  A    between atoms: C_2  and  O_3
REMARK    2  A    between atoms: C_2  and  C_4
REMARK    3  A    between atoms: C_4  and  C_5
REMARK    4  A    between atoms: C_5  and  C_6
REMARK    5  A    between atoms: C_6  and  C_7
REMARK    6  A    between atoms: C_10  and  N_11
REMARK    7  A    between atoms: C_12  and  C_14
REMARK    8  A    between atoms: C_19  and  O_20
REMARK                            x       y       z     vdW  Elec       q    Type
REMARK                         _______ _______ _______ _____ _____    ______ ____
ROOT
ATOM      1  C   UNL     1       4.017   4.448  17.648  0.00  0.00    +0.000 A 
ATOM      2  C   UNL     1       2.622   4.399  17.646  0.00  0.00    +0.000 A 
ATOM      3  C   UNL     1       1.886   5.277  18.434  0.00  0.00    +0.000 A 
ATOM      4  C   UNL     1       2.512   6.206  19.265  0.00  0.00    +0.000 A 
ATOM      5  C   UNL     1       3.912   6.244  19.288  0.00  0.00    +0.000 A 
ATOM      6  C   UNL     1       4.659   5.367  18.486  0.00  0.00    +0.000 A 
ENDROOT
BRANCH   4   7
ATOM      7  N   UNL     1       1.794   7.117  20.075  0.00  0.00    +0.000 N 
ATOM      8  C   UNL     1       1.516   8.434  19.766  0.00  0.00    +0.000 C 
ATOM      9  O   UNL     1       1.833   9.004  18.722  0.00  0.00    +0.000 OA
ATOM     10  H   UNL     1       1.435   6.777  20.965  0.00  0.00    +0.000 HD
BRANCH   8  11
ATOM     11  C   UNL     1       0.777   9.248  20.776  0.00  0.00    +0.000 A 
ATOM     12  C   UNL     1       0.864   8.804  22.111  0.00  0.00    +0.000 A 
ATOM     13  C   UNL     1       0.182   9.455  23.135  0.00  0.00    +0.000 A 
ATOM     14  C   UNL     1      -0.595  10.569  22.840  0.00  0.00    +0.000 A 
ATOM     15  C   UNL     1      -0.682  11.036  21.525  0.00  0.00    +0.000 A 
ATOM     16  C   UNL     1      -0.000  10.378  20.495  0.00  0.00    +0.000 A 
BRANCH  16  17
ATOM     17  O   UNL     1      -0.114  10.854  19.214  0.00  0.00    +0.000 OA
ATOM     18  H   UNL     1      -0.724  10.275  18.723  0.00  0.00    +0.000 HD
ENDBRANCH  16  17
ENDBRANCH   8  11
ENDBRANCH   4   7
BRANCH   1  19
ATOM     19  C   UNL     1       4.788   3.573  16.693  0.00  0.00    +0.000 C 
BRANCH  19  20
ATOM     20  C   UNL     1       5.171   4.329  15.409  0.00  0.00    +0.000 C 
BRANCH  20  21
ATOM     21  C   UNL     1       6.673   4.331  15.114  0.00  0.00    +0.000 C 
BRANCH  21  23
ATOM     22  O   UNL     1       8.112   4.234  17.060  0.00  0.00    +0.000 OA
ATOM     23  C   UNL     1       7.477   4.901  16.259  0.00  0.00    +0.000 C 
BRANCH  23  24
ATOM     24  O   UNL     1       7.453   6.251  16.303  0.00  0.00    +0.000 OA
ATOM     25  H   UNL     1       7.767   6.624  17.147  0.00  0.00    +0.000 HD
ENDBRANCH  23  24
ENDBRANCH  21  23
ENDBRANCH  20  21
ENDBRANCH  19  20
ENDBRANCH   1  19
TORSDOF 8
ENDMDL
MODEL 7
REMARK VINA RESULT:      -7.2      3.023      3.950
REMARK  Name = 
REMARK  8 active torsions:
REMARK  status: ('A' for Active; 'I' for Inactive)
REMARK    1  A    between atoms: C_2  and  O_3
REMARK    2  A    between atoms: C_2  and  C_4
REMARK    3  A    between atoms: C_4  and  C_5
REMARK    4  A    between atoms: C_5  and  C_6
REMARK    5  A    between atoms: C_6  and  C_7
REMARK    6  A    between atoms: C_10  and  N_11
REMARK    7  A    between atoms: C_12  and  C_14
REMARK    8  A    between atoms: C_19  and  O_20
REMARK                            x       y       z     vdW  Elec       q    Type
REMARK                         _______ _______ _______ _____ _____    ______ ____
ROOT
ATOM      1  C   UNL     1       4.767   5.298  16.654  0.00  0.00    +0.000 A 
ATOM      2  C   UNL     1       4.864   6.688  16.588  0.00  0.00    +0.000 A 
ATOM      3  C   UNL     1       4.010   7.490  17.337  0.00  0.00    +0.000 A 
ATOM      4  C   UNL     1       3.020   6.937  18.149  0.00  0.00    +0.000 A 
ATOM      5  C   UNL     1       2.904   5.542  18.202  0.00  0.00    +0.000 A 
ATOM      6  C   UNL     1       3.770   4.728  17.456  0.00  0.00    +0.000 A 
ENDROOT
BRANCH   4   7
ATOM      7  N   UNL     1       2.139   7.722  18.927  0.00  0.00    +0.000 N 
ATOM      8  C   UNL     1       1.673   8.982  18.604  0.00  0.00    +0.000 C 
ATOM      9  O   UNL     1       1.939   9.598  17.572  0.00  0.00    +0.000 OA
ATOM     10  H   UNL     1       1.802   7.327  19.803  0.00  0.00    +0.000 HD
BRANCH   8  11
ATOM     11  C   UNL     1       0.778   9.668  19.583  0.00  0.00    +0.000 A 
ATOM     12  C   UNL     1      -0.137  10.593  19.042  0.00  0.00    +0.000 A 
ATOM     13  C   UNL     1      -0.992  11.326  19.859  0.00  0.00    +0.000 A 
ATOM     14  C   UNL     1      -0.951  11.139  21.236  0.00  0.00    +0.000 A 
ATOM     15  C   UNL     1      -0.062  10.214  21.793  0.00  0.00    +0.000 A 
ATOM     16  C   UNL     1       0.801   9.482  20.971  0.00  0.00    +0.000 A 
BRANCH  16  17
ATOM     17  O   UNL     1       1.668   8.590  21.548  0.00  0.00    +0.000 OA
ATOM     18  H   UNL     1       2.570   8.796  21.243  0.00  0.00    +0.000 HD
ENDBRANCH  16  17
ENDBRANCH   8  11
ENDBRANCH   4   7
BRANCH   1  19
ATOM     19  C   UNL     1       5.783   4.450  15.933  0.00  0.00    +0.000 C 
BRANCH  19  20
ATOM     20  C   UNL     1       7.220   4.787  16.368  0.00  0.00    +0.000 C 
BRANCH  20  21
ATOM     21  C   UNL     1       7.514   4.474  17.837  0.00  0.00    +0.000 C 
BRANCH  21  23
ATOM     22  O   UNL     1       7.817   6.852  18.181  0.00  0.00    +0.000 OA
ATOM     23  C   UNL     1       7.842   5.717  18.629  0.00  0.00    +0.000 C 
BRANCH  23  24
ATOM     24  O   UNL     1       8.145   5.458  19.920  0.00  0.00    +0.000 OA
ATOM     25  H   UNL     1       8.969   4.951  20.038  0.00  0.00    +0.000 HD
ENDBRANCH  23  24
ENDBRANCH  21  23
ENDBRANCH  20  21
ENDBRANCH  19  20
ENDBRANCH   1  19
TORSDOF 8
ENDMDL
MODEL 8
REMARK VINA RESULT:      -7.0      5.684      7.420
REMARK  Name = 
REMARK  8 active torsions:
REMARK  status: ('A' for Active; 'I' for Inactive)
REMARK    1  A    between atoms: C_2  and  O_3
REMARK    2  A    between atoms: C_2  and  C_4
REMARK    3  A    between atoms: C_4  and  C_5
REMARK    4  A    between atoms: C_5  and  C_6
REMARK    5  A    between atoms: C_6  and  C_7
REMARK    6  A    between atoms: C_10  and  N_11
REMARK    7  A    between atoms: C_12  and  C_14
REMARK    8  A    between atoms: C_19  and  O_20
REMARK                            x       y       z     vdW  Elec       q    Type
REMARK                         _______ _______ _______ _____ _____    ______ ____
ROOT
ATOM      1  C   UNL     1       6.234   5.305  17.517  0.00  0.00    +0.000 A 
ATOM      2  C   UNL     1       7.053   5.123  18.631  0.00  0.00    +0.000 A 
ATOM      3  C   UNL     1       7.895   6.143  19.060  0.00  0.00    +0.000 A 
ATOM      4  C   UNL     1       7.967   7.359  18.381  0.00  0.00    +0.000 A 
ATOM      5  C   UNL     1       7.163   7.538  17.248  0.00  0.00    +0.000 A 
ATOM      6  C   UNL     1       6.304   6.515  16.817  0.00  0.00    +0.000 A 
ENDROOT
BRANCH   4   7
ATOM      7  N   UNL     1       8.808   8.419  18.792  0.00  0.00    +0.000 N 
ATOM      8  C   UNL     1       8.687   9.743  18.418  0.00  0.00    +0.000 C 
ATOM      9  O   UNL     1       7.809  10.201  17.687  0.00  0.00    +0.000 OA
ATOM     10  H   UNL     1       9.568   8.198  19.433  0.00  0.00    +0.000 HD
BRANCH   8  11
ATOM     11  C   UNL     1       9.705  10.709  18.930  0.00  0.00    +0.000 A 
ATOM     12  C   UNL     1      10.521  11.321  17.958  0.00  0.00    +0.000 A 
ATOM     13  C   UNL     1      11.534  12.205  18.318  0.00  0.00    +0.000 A 
ATOM     14  C   UNL     1      11.742  12.498  19.660  0.00  0.00    +0.000 A 
ATOM     15  C   UNL     1      10.934  11.914  20.641  0.00  0.00    +0.000 A 
ATOM     16  C   UNL     1       9.919  11.021  20.278  0.00  0.00    +0.000 A 
BRANCH  16  17
ATOM     17  O   UNL     1       9.150  10.457  21.263  0.00  0.00    +0.000 OA
ATOM     18  H   UNL     1       9.577   9.631  21.553  0.00  0.00    +0.000 HD
ENDBRANCH  16  17
ENDBRANCH   8  11
ENDBRANCH   4   7
BRANCH   1  19
ATOM     19  C   UNL     1       5.240   4.233  17.147  0.00  0.00    +0.000 C 
BRANCH  19  20
ATOM     20  C   UNL     1       3.794   4.666  17.448  0.00  0.00    +0.000 C 
BRANCH  20  21
ATOM     21  C   UNL     1       3.279   4.206  18.813  0.00  0.00    +0.000 C 
BRANCH  21  23
ATOM     22  O   UNL     1       1.969   2.343  19.638  0.00  0.00    +0.000 OA
ATOM     23  C   UNL     1       2.336   3.032  18.699  0.00  0.00    +0.000 C 
BRANCH  23  24
ATOM     24  O   UNL     1       1.901   2.822  17.438  0.00  0.00    +0.000 OA
ATOM     25  H   UNL     1       0.931   2.754  17.361  0.00  0.00    +0.000 HD
ENDBRANCH  23  24
ENDBRANCH  21  23
ENDBRANCH  20  21
ENDBRANCH  19  20
ENDBRANCH   1  19
TORSDOF 8
ENDMDL
MODEL 9
REMARK VINA RESULT:      -7.0      3.221      4.454
REMARK  Name = 
REMARK  8 active torsions:
REMARK  status: ('A' for Active; 'I' for Inactive)
REMARK    1  A    between atoms: C_2  and  O_3
REMARK    2  A    between atoms: C_2  and  C_4
REMARK    3  A    between atoms: C_4  and  C_5
REMARK    4  A    between atoms: C_5  and  C_6
REMARK    5  A    between atoms: C_6  and  C_7
REMARK    6  A    between atoms: C_10  and  N_11
REMARK    7  A    between atoms: C_12  and  C_14
REMARK    8  A    between atoms: C_19  and  O_20
REMARK                            x       y       z     vdW  Elec       q    Type
REMARK                         _______ _______ _______ _____ _____    ______ ____
ROOT
ATOM      1  C   UNL     1       3.473   6.679  18.189  0.00  0.00    +0.000 A 
ATOM      2  C   UNL     1       2.910   6.377  19.429  0.00  0.00    +0.000 A 
ATOM      3  C   UNL     1       1.979   7.234  20.007  0.00  0.00    +0.000 A 
ATOM      4  C   UNL     1       1.603   8.424  19.385  0.00  0.00    +0.000 A 
ATOM      5  C   UNL     1       2.183   8.742  18.150  0.00  0.00    +0.000 A 
ATOM      6  C   UNL     1       3.115   7.876  17.558  0.00  0.00    +0.000 A 
ENDROOT
BRANCH   4   7
ATOM      7  N   UNL     1       0.657   9.315  19.941  0.00  0.00    +0.000 N 
ATOM      8  C   UNL     1       0.793  10.007  21.128  0.00  0.00    +0.000 C 
ATOM      9  O   UNL     1       1.776   9.969  21.868  0.00  0.00    +0.000 OA
ATOM     10  H   UNL     1      -0.204   9.477  19.420  0.00  0.00    +0.000 HD
BRANCH   8  11
ATOM     11  C   UNL     1      -0.343  10.872  21.567  0.00  0.00    +0.000 A 
ATOM     12  C   UNL     1      -0.778  11.839  20.640  0.00  0.00    +0.000 A 
ATOM     13  C   UNL     1      -1.800  12.731  20.952  0.00  0.00    +0.000 A 
ATOM     14  C   UNL     1      -2.409  12.666  22.199  0.00  0.00    +0.000 A 
ATOM     15  C   UNL     1      -2.004  11.703  23.129  0.00  0.00    +0.000 A 
ATOM     16  C   UNL     1      -0.973  10.810  22.816  0.00  0.00    +0.000 A 
BRANCH  16  17
ATOM     17  O   UNL     1      -0.591   9.884  23.753  0.00  0.00    +0.000 OA
ATOM     18  H   UNL     1      -0.997   9.029  23.525  0.00  0.00    +0.000 HD
ENDBRANCH  16  17
ENDBRANCH   8  11
ENDBRANCH   4   7
BRANCH   1  19
ATOM     19  C   UNL     1       4.382   5.675  17.527  0.00  0.00    +0.000 C 
BRANCH  19  20
ATOM     20  C   UNL     1       5.472   6.361  16.684  0.00  0.00    +0.000 C 
BRANCH  20  21
ATOM     21  C   UNL     1       6.840   6.419  17.367  0.00  0.00    +0.000 C 
BRANCH  21  23
ATOM     22  O   UNL     1       7.684   4.455  18.506  0.00  0.00    +0.000 OA
ATOM     23  C   UNL     1       7.486   5.057  17.463  0.00  0.00    +0.000 C 
BRANCH  23  24
ATOM     24  O   UNL     1       7.808   4.537  16.258  0.00  0.00    +0.000 OA
ATOM     25  H   UNL     1       8.030   5.207  15.586  0.00  0.00    +0.000 HD
ENDBRANCH  23  24
ENDBRANCH  21  23
ENDBRANCH  20  21
ENDBRANCH  19  20
ENDBRANCH   1  19
TORSDOF 8
ENDMDL
