MODEL 1
REMARK VINA RESULT:      -8.2      0.000      0.000
REMARK  Name = 
REMARK  13 active torsions:
REMARK  status: ('A' for Active; 'I' for Inactive)
REMARK    1  A    between atoms: C_1  and  C_2
REMARK    2  A    between atoms: C_2  and  O_3
REMARK    3  A    between atoms: O_3  and  C_4
REMARK    4  A    between atoms: C_4  and  C_6
REMARK    5  A    between atoms: C_6  and  C_23
REMARK    6  A    between atoms: C_7  and  C_8
REMARK    7  A    between atoms: C_12  and  O_13
REMARK    8  A    between atoms: O_13  and  C_14
REMARK    9  A    between atoms: C_14  and  C_15
REMARK   10  A    between atoms: C_19  and  C_20
REMARK   11  A    between atoms: C_23  and  O_25
REMARK   12  A    between atoms: O_25  and  C_26
REMARK   13  A    between atoms: C_26  and  C_27
REMARK                            x       y       z     vdW  Elec       q    Type
REMARK                         _______ _______ _______ _____ _____    ______ ____
ROOT
ATOM      1  C   UNL     1       4.337   4.879  17.190  0.00  0.00    +0.000 A 
ATOM      2  C   UNL     1       4.355   3.802  18.078  0.00  0.00    +0.000 A 
ATOM      3  C   UNL     1       3.767   3.932  19.335  0.00  0.00    +0.000 A 
ATOM      4  C   UNL     1       3.155   5.133  19.701  0.00  0.00    +0.000 A 
ATOM      5  C   UNL     1       3.105   6.207  18.810  0.00  0.00    +0.000 A 
ATOM      6  C   UNL     1       3.710   6.079  17.557  0.00  0.00    +0.000 A 
ENDROOT
BRANCH   1   8
ATOM      7  C   UNL     1       6.342   4.926  15.636  0.00  0.00    +0.000 C 
ATOM      8  C   UNL     1       5.024   4.764  15.899  0.00  0.00    +0.000 C 
BRANCH   7   9
ATOM      9  C   UNL     1       7.399   5.209  16.635  0.00  0.00    +0.000 C 
ATOM     10  O   UNL     1       7.871   4.367  17.384  0.00  0.00    +0.000 OA
BRANCH   9  11
ATOM     11  O   UNL     1       7.675   6.535  16.678  0.00  0.00    +0.000 OA
BRANCH  11  13
ATOM     12  C   UNL     1       7.950   8.629  17.752  0.00  0.00    +0.000 C 
ATOM     13  C   UNL     1       7.658   7.156  17.969  0.00  0.00    +0.000 C 
ENDBRANCH  11  13
ENDBRANCH   9  11
ENDBRANCH   7   9
BRANCH   7  14
ATOM     14  C   UNL     1       6.700   4.729  14.210  0.00  0.00    +0.000 C 
ATOM     15  O   UNL     1       7.540   5.390  13.613  0.00  0.00    +0.000 OA
BRANCH  14  16
ATOM     16  O   UNL     1       5.856   3.836  13.637  0.00  0.00    +0.000 OA
BRANCH  16  17
ATOM     17  C   UNL     1       6.180   3.429  12.300  0.00  0.00    +0.000 C 
ATOM     18  C   UNL     1       4.927   2.839  11.683  0.00  0.00    +0.000 C 
ENDBRANCH  16  17
ENDBRANCH  14  16
ENDBRANCH   7  14
ENDBRANCH   1   8
BRANCH   5  19
ATOM     19  O   UNL     1       2.505   7.343  19.289  0.00  0.00    +0.000 OA
BRANCH  19  20
ATOM     20  C   UNL     1       2.412   8.429  18.364  0.00  0.00    +0.000 C 
BRANCH  20  21
ATOM     21  C   UNL     1       1.167   9.259  18.597  0.00  0.00    +0.000 A 
ATOM     22  C   UNL     1       0.931   9.807  19.867  0.00  0.00    +0.000 A 
ATOM     23  C   UNL     1      -0.268  10.463  20.149  0.00  0.00    +0.000 A 
ATOM     24  C   UNL     1      -1.252  10.573  19.167  0.00  0.00    +0.000 A 
ATOM     25  C   UNL     1      -1.042  10.036  17.893  0.00  0.00    +0.000 A 
ATOM     26  C   UNL     1      -2.102  10.138  16.835  0.00  0.00    +0.000 C 
ATOM     27  C   UNL     1       0.170   9.383  17.615  0.00  0.00    +0.000 A 
ENDBRANCH  20  21
ENDBRANCH  19  20
ENDBRANCH   5  19
TORSDOF 10
ENDMDL
MODEL 2
REMARK VINA RESULT:      -8.1      1.402      1.974
REMARK  Name = 
REMARK  13 active torsions:
REMARK  status: ('A' for Active; 'I' for Inactive)
REMARK    1  A    between atoms: C_1  and  C_2
REMARK    2  A    between atoms: C_2  and  O_3
REMARK    3  A    between atoms: O_3  and  C_4
REMARK    4  A    between atoms: C_4  and  C_6
REMARK    5  A    between atoms: C_6  and  C_23
REMARK    6  A    between atoms: C_7  and  C_8
REMARK    7  A    between atoms: C_12  and  O_13
REMARK    8  A    between atoms: O_13  and  C_14
REMARK    9  A    between atoms: C_14  and  C_15
REMARK   10  A    between atoms: C_19  and  C_20
REMARK   11  A    between atoms: C_23  and  O_25
REMARK   12  A    between atoms: O_25  and  C_26
REMARK   13  A    between atoms: C_26  and  C_27
REMARK                            x       y       z     vdW  Elec       q    Type
REMARK                         _______ _______ _______ _____ _____    ______ ____
ROOT
ATOM      1  C   UNL     1       3.863   3.620  17.238  0.00  0.00    +0.000 A 
ATOM      2  C   UNL     1       3.676   2.318  17.708  0.00  0.00    +0.000 A 
ATOM      3  C   UNL     1       2.859   2.094  18.816  0.00  0.00    +0.000 A 
ATOM      4  C   UNL     1       2.226   3.167  19.447  0.00  0.00    +0.000 A 
ATOM      5  C   UNL     1       2.382   4.470  18.968  0.00  0.00    +0.000 A 
ATOM      6  C   UNL     1       3.214   4.692  17.868  0.00  0.00    +0.000 A 
ENDROOT
BRANCH   1   8
ATOM      7  C   UNL     1       6.004   4.443  16.155  0.00  0.00    +0.000 C 
ATOM      8  C   UNL     1       4.783   3.860  16.122  0.00  0.00    +0.000 C 
BRANCH   7   9
ATOM      9  C   UNL     1       6.705   4.925  17.369  0.00  0.00    +0.000 C 
ATOM     10  O   UNL     1       7.182   4.187  18.218  0.00  0.00    +0.000 OA
BRANCH   9  11
ATOM     11  O   UNL     1       6.635   6.275  17.459  0.00  0.00    +0.000 OA
BRANCH  11  13
ATOM     12  C   UNL     1       7.755   8.360  17.568  0.00  0.00    +0.000 C 
ATOM     13  C   UNL     1       7.734   6.938  18.095  0.00  0.00    +0.000 C 
ENDBRANCH  11  13
ENDBRANCH   9  11
ENDBRANCH   7   9
BRANCH   7  14
ATOM     14  C   UNL     1       6.672   4.520  14.833  0.00  0.00    +0.000 C 
ATOM     15  O   UNL     1       7.367   5.458  14.466  0.00  0.00    +0.000 OA
BRANCH  14  16
ATOM     16  O   UNL     1       6.268   3.491  14.047  0.00  0.00    +0.000 OA
BRANCH  16  17
ATOM     17  C   UNL     1       6.425   3.678  12.633  0.00  0.00    +0.000 C 
ATOM     18  C   UNL     1       5.052   3.563  12.000  0.00  0.00    +0.000 C 
ENDBRANCH  16  17
ENDBRANCH  14  16
ENDBRANCH   7  14
ENDBRANCH   1   8
BRANCH   5  19
ATOM     19  O   UNL     1       1.736   5.443  19.684  0.00  0.00    +0.000 OA
BRANCH  19  20
ATOM     20  C   UNL     1       2.537   6.563  20.067  0.00  0.00    +0.000 C 
BRANCH  20  21
ATOM     21  C   UNL     1       1.946   7.869  19.579  0.00  0.00    +0.000 A 
ATOM     22  C   UNL     1       2.210   8.298  18.270  0.00  0.00    +0.000 A 
ATOM     23  C   UNL     1       1.791   9.556  17.834  0.00  0.00    +0.000 A 
ATOM     24  C   UNL     1       1.111  10.406  18.704  0.00  0.00    +0.000 A 
ATOM     25  C   UNL     1       0.835  10.003  20.015  0.00  0.00    +0.000 A 
ATOM     26  C   UNL     1       0.115  10.918  20.962  0.00  0.00    +0.000 C 
ATOM     27  C   UNL     1       1.254   8.733  20.443  0.00  0.00    +0.000 A 
ENDBRANCH  20  21
ENDBRANCH  19  20
ENDBRANCH   5  19
TORSDOF 10
ENDMDL
MODEL 3
REMARK VINA RESULT:      -7.9      0.982      1.112
REMARK  Name = 
REMARK  13 active torsions:
REMARK  status: ('A' for Active; 'I' for Inactive)
REMARK    1  A    between atoms: C_1  and  C_2
REMARK    2  A    between atoms: C_2  and  O_3
REMARK    3  A    between atoms: O_3  and  C_4
REMARK    4  A    between atoms: C_4  and  C_6
REMARK    5  A    between atoms: C_6  and  C_23
REMARK    6  A    between atoms: C_7  and  C_8
REMARK    7  A    between atoms: C_12  and  O_13
REMARK    8  A    between atoms: O_13  and  C_14
REMARK    9  A    between atoms: C_14  and  C_15
REMARK   10  A    between atoms: C_19  and  C_20
REMARK   11  A    between atoms: C_23  and  O_25
REMARK   12  A    between atoms: O_25  and  C_26
REMARK   13  A    between atoms: C_26  and  C_27
REMARK                            x       y       z     vdW  Elec       q    Type
REMARK                         _______ _______ _______ _____ _____    ______ ____
ROOT
ATOM      1  C   UNL     1       4.441   4.228  17.143  0.00  0.00    +0.000 A 
ATOM      2  C   UNL     1       4.684   3.166  18.017  0.00  0.00    +0.000 A 
ATOM      3  C   UNL     1       4.109   3.170  19.287  0.00  0.00    +0.000 A 
ATOM      4  C   UNL     1       3.287   4.229  19.680  0.00  0.00    +0.000 A 
ATOM      5  C   UNL     1       3.013   5.282  18.804  0.00  0.00    +0.000 A 
ATOM      6  C   UNL     1       3.604   5.282  17.538  0.00  0.00    +0.000 A 
ENDROOT
BRANCH   1   8
ATOM      7  C   UNL     1       6.387   4.607  15.560  0.00  0.00    +0.000 C 
ATOM      8  C   UNL     1       5.109   4.259  15.838  0.00  0.00    +0.000 C 
BRANCH   7   9
ATOM      9  C   UNL     1       7.419   4.990  16.554  0.00  0.00    +0.000 C 
ATOM     10  O   UNL     1       7.996   4.194  17.278  0.00  0.00    +0.000 OA
BRANCH   9  11
ATOM     11  O   UNL     1       7.539   6.338  16.624  0.00  0.00    +0.000 OA
BRANCH  11  13
ATOM     12  C   UNL     1       7.978   8.365  17.769  0.00  0.00    +0.000 C 
ATOM     13  C   UNL     1       7.558   6.917  17.934  0.00  0.00    +0.000 C 
ENDBRANCH  11  13
ENDBRANCH   9  11
ENDBRANCH   7   9
BRANCH   7  14
ATOM     14  C   UNL     1       6.738   4.518  14.122  0.00  0.00    +0.000 C 
ATOM     15  O   UNL     1       7.460   5.315  13.538  0.00  0.00    +0.000 OA
BRANCH  14  16
ATOM     16  O   UNL     1       6.018   3.533  13.528  0.00  0.00    +0.000 OA
BRANCH  16  17
ATOM     17  C   UNL     1       5.998   3.545  12.094  0.00  0.00    +0.000 C 
ATOM     18  C   UNL     1       5.772   2.119  11.627  0.00  0.00    +0.000 C 
ENDBRANCH  16  17
ENDBRANCH  14  16
ENDBRANCH   7  14
ENDBRANCH   1   8
BRANCH   5  19
ATOM     19  O   UNL     1       2.217   6.277  19.309  0.00  0.00    +0.000 OA
BRANCH  19  20
ATOM     20  C   UNL     1       2.392   7.567  18.719  0.00  0.00    +0.000 C 
BRANCH  20  21
ATOM     21  C   UNL     1       1.565   8.623  19.422  0.00  0.00    +0.000 A 
ATOM     22  C   UNL     1       1.222   8.444  20.771  0.00  0.00    +0.000 A 
ATOM     23  C   UNL     1       0.353   9.330  21.409  0.00  0.00    +0.000 A 
ATOM     24  C   UNL     1      -0.192  10.403  20.705  0.00  0.00    +0.000 A 
ATOM     25  C   UNL     1       0.133  10.604  19.360  0.00  0.00    +0.000 A 
ATOM     26  C   UNL     1      -0.460  11.748  18.591  0.00  0.00    +0.000 C 
ATOM     27  C   UNL     1       1.014   9.711  18.727  0.00  0.00    +0.000 A 
ENDBRANCH  20  21
ENDBRANCH  19  20
ENDBRANCH   5  19
TORSDOF 10
ENDMDL
MODEL 4
REMARK VINA RESULT:      -7.8      1.251      1.597
REMARK  Name = 
REMARK  13 active torsions:
REMARK  status: ('A' for Active; 'I' for Inactive)
REMARK    1  A    between atoms: C_1  and  C_2
REMARK    2  A    between atoms: C_2  and  O_3
REMARK    3  A    between atoms: O_3  and  C_4
REMARK    4  A    between atoms: C_4  and  C_6
REMARK    5  A    between atoms: C_6  and  C_23
REMARK    6  A    between atoms: C_7  and  C_8
REMARK    7  A    between atoms: C_12  and  O_13
REMARK    8  A    between atoms: O_13  and  C_14
REMARK    9  A    between atoms: C_14  and  C_15
REMARK   10  A    between atoms: C_19  and  C_20
REMARK   11  A    between atoms: C_23  and  O_25
REMARK   12  A    between atoms: O_25  and  C_26
REMARK   13  A    between atoms: C_26  and  C_27
REMARK                            x       y       z     vdW  Elec       q    Type
REMARK                         _______ _______ _______ _____ _____    ______ ____
ROOT
ATOM      1  C   UNL     1       3.986   5.025  17.690  0.00  0.00    +0.000 A 
ATOM      2  C   UNL     1       3.614   3.898  18.427  0.00  0.00    +0.000 A 
ATOM      3  C   UNL     1       2.849   4.049  19.582  0.00  0.00    +0.000 A 
ATOM      4  C   UNL     1       2.450   5.322  19.996  0.00  0.00    +0.000 A 
ATOM      5  C   UNL     1       2.792   6.453  19.252  0.00  0.00    +0.000 A 
ATOM      6  C   UNL     1       3.572   6.300  18.104  0.00  0.00    +0.000 A 
ENDROOT
BRANCH   1   8
ATOM      7  C   UNL     1       6.203   4.982  16.457  0.00  0.00    +0.000 C 
ATOM      8  C   UNL     1       4.856   4.869  16.520  0.00  0.00    +0.000 C 
BRANCH   7   9
ATOM      9  C   UNL     1       7.107   5.243  17.602  0.00  0.00    +0.000 C 
ATOM     10  O   UNL     1       7.889   4.420  18.055  0.00  0.00    +0.000 OA
BRANCH   9  11
ATOM     11  O   UNL     1       6.860   6.462  18.140  0.00  0.00    +0.000 OA
BRANCH  11  13
ATOM     12  C   UNL     1       8.232   8.392  18.055  0.00  0.00    +0.000 C 
ATOM     13  C   UNL     1       7.163   7.601  17.326  0.00  0.00    +0.000 C 
ENDBRANCH  11  13
ENDBRANCH   9  11
ENDBRANCH   7   9
BRANCH   7  14
ATOM     14  C   UNL     1       6.766   4.754  15.104  0.00  0.00    +0.000 C 
ATOM     15  O   UNL     1       7.607   5.470  14.578  0.00  0.00    +0.000 OA
BRANCH  14  16
ATOM     16  O   UNL     1       6.098   3.747  14.486  0.00  0.00    +0.000 OA
BRANCH  16  17
ATOM     17  C   UNL     1       6.350   3.592  13.083  0.00  0.00    +0.000 C 
ATOM     18  C   UNL     1       5.017   3.681  12.365  0.00  0.00    +0.000 C 
ENDBRANCH  16  17
ENDBRANCH  14  16
ENDBRANCH   7  14
ENDBRANCH   1   8
BRANCH   5  19
ATOM     19  O   UNL     1       2.370   7.650  19.770  0.00  0.00    +0.000 OA
BRANCH  19  20
ATOM     20  C   UNL     1       1.417   7.562  20.832  0.00  0.00    +0.000 C 
BRANCH  20  21
ATOM     21  C   UNL     1       0.719   8.885  21.071  0.00  0.00    +0.000 A 
ATOM     22  C   UNL     1       0.420   9.278  22.384  0.00  0.00    +0.000 A 
ATOM     23  C   UNL     1      -0.337  10.424  22.630  0.00  0.00    +0.000 A 
ATOM     24  C   UNL     1      -0.814  11.189  21.566  0.00  0.00    +0.000 A 
ATOM     25  C   UNL     1      -0.530  10.818  20.247  0.00  0.00    +0.000 A 
ATOM     26  C   UNL     1      -1.051  11.627  19.096  0.00  0.00    +0.000 C 
ATOM     27  C   UNL     1       0.238   9.667  20.009  0.00  0.00    +0.000 A 
ENDBRANCH  20  21
ENDBRANCH  19  20
ENDBRANCH   5  19
TORSDOF 10
ENDMDL
MODEL 5
REMARK VINA RESULT:      -7.8      2.335      4.679
REMARK  Name = 
REMARK  13 active torsions:
REMARK  status: ('A' for Active; 'I' for Inactive)
REMARK    1  A    between atoms: C_1  and  C_2
REMARK    2  A    between atoms: C_2  and  O_3
REMARK    3  A    between atoms: O_3  and  C_4
REMARK    4  A    between atoms: C_4  and  C_6
REMARK    5  A    between atoms: C_6  and  C_23
REMARK    6  A    between atoms: C_7  and  C_8
REMARK    7  A    between atoms: C_12  and  O_13
REMARK    8  A    between atoms: O_13  and  C_14
REMARK    9  A    between atoms: C_14  and  C_15
REMARK   10  A    between atoms: C_19  and  C_20
REMARK   11  A    between atoms: C_23  and  O_25
REMARK   12  A    between atoms: O_25  and  C_26
REMARK   13  A    between atoms: C_26  and  C_27
REMARK                            x       y       z     vdW  Elec       q    Type
REMARK                         _______ _______ _______ _____ _____    ______ ____
ROOT
ATOM      1  C   UNL     1       2.696   7.274  18.608  0.00  0.00    +0.000 A 
ATOM      2  C   UNL     1       2.372   6.938  19.923  0.00  0.00    +0.000 A 
ATOM      3  C   UNL     1       1.509   7.754  20.653  0.00  0.00    +0.000 A 
ATOM      4  C   UNL     1       0.965   8.900  20.066  0.00  0.00    +0.000 A 
ATOM      5  C   UNL     1       1.260   9.230  18.742  0.00  0.00    +0.000 A 
ATOM      6  C   UNL     1       2.138   8.419  18.019  0.00  0.00    +0.000 A 
ENDROOT
BRANCH   1   8
ATOM      7  C   UNL     1       3.591   5.138  17.571  0.00  0.00    +0.000 C 
ATOM      8  C   UNL     1       3.665   6.456  17.870  0.00  0.00    +0.000 C 
BRANCH   7   9
ATOM      9  C   UNL     1       2.460   4.236  17.892  0.00  0.00    +0.000 C 
ATOM     10  O   UNL     1       1.398   4.234  17.287  0.00  0.00    +0.000 OA
BRANCH   9  11
ATOM     11  O   UNL     1       2.724   3.513  19.007  0.00  0.00    +0.000 OA
BRANCH  11  13
ATOM     12  C   UNL     1       1.213   3.458  20.831  0.00  0.00    +0.000 C 
ATOM     13  C   UNL     1       1.640   2.755  19.557  0.00  0.00    +0.000 C 
ENDBRANCH  11  13
ENDBRANCH   9  11
ENDBRANCH   7   9
BRANCH   7  14
ATOM     14  C   UNL     1       4.752   4.629  16.801  0.00  0.00    +0.000 C 
ATOM     15  O   UNL     1       4.754   4.461  15.589  0.00  0.00    +0.000 OA
BRANCH  14  16
ATOM     16  O   UNL     1       5.733   4.228  17.648  0.00  0.00    +0.000 OA
BRANCH  16  17
ATOM     17  C   UNL     1       7.058   4.683  17.339  0.00  0.00    +0.000 C 
ATOM     18  C   UNL     1       7.523   5.554  18.489  0.00  0.00    +0.000 C 
ENDBRANCH  16  17
ENDBRANCH  14  16
ENDBRANCH   7  14
ENDBRANCH   1   8
BRANCH   5  19
ATOM     19  O   UNL     1       0.692  10.390  18.283  0.00  0.00    +0.000 OA
BRANCH  19  20
ATOM     20  C   UNL     1      -0.393  10.897  19.062  0.00  0.00    +0.000 C 
BRANCH  20  21
ATOM     21  C   UNL     1      -1.662  11.020  18.244  0.00  0.00    +0.000 A 
ATOM     22  C   UNL     1      -2.804  11.590  18.826  0.00  0.00    +0.000 A 
ATOM     23  C   UNL     1      -4.023  11.598  18.145  0.00  0.00    +0.000 A 
ATOM     24  C   UNL     1      -4.118  11.028  16.877  0.00  0.00    +0.000 A 
ATOM     25  C   UNL     1      -2.994  10.453  16.274  0.00  0.00    +0.000 A 
ATOM     26  C   UNL     1      -3.092   9.825  14.915  0.00  0.00    +0.000 C 
ATOM     27  C   UNL     1      -1.770  10.456  16.963  0.00  0.00    +0.000 A 
ENDBRANCH  20  21
ENDBRANCH  19  20
ENDBRANCH   5  19
TORSDOF 10
ENDMDL
MODEL 6
REMARK VINA RESULT:      -7.7      1.592      2.382
REMARK  Name = 
REMARK  13 active torsions:
REMARK  status: ('A' for Active; 'I' for Inactive)
REMARK    1  A    between atoms: C_1  and  C_2
REMARK    2  A    between atoms: C_2  and  O_3
REMARK    3  A    between atoms: O_3  and  C_4
REMARK    4  A    between atoms: C_4  and  C_6
REMARK    5  A    between atoms: C_6  and  C_23
REMARK    6  A    between atoms: C_7  and  C_8
REMARK    7  A    between atoms: C_12  and  O_13
REMARK    8  A    between atoms: O_13  and  C_14
REMARK    9  A    between atoms: C_14  and  C_15
REMARK   10  A    between atoms: C_19  and  C_20
REMARK   11  A    between atoms: C_23  and  O_25
REMARK   12  A    between atoms: O_25  and  C_26
REMARK   13  A    between atoms: C_26  and  C_27
REMARK                            x       y       z     vdW  Elec       q    Type
REMARK                         _______ _______ _______ _____ _____    ______ ____
ROOT
ATOM      1  C   UNL     1       3.646   3.869  17.135  0.00  0.00    +0.000 A 
ATOM      2  C   UNL     1       2.845   2.730  17.239  0.00  0.00    +0.000 A 
ATOM      3  C   UNL     1       1.800   2.702  18.160  0.00  0.00    +0.000 A 
ATOM      4  C   UNL     1       1.551   3.811  18.971  0.00  0.00    +0.000 A 
ATOM      5  C   UNL     1       2.327   4.967  18.856  0.00  0.00    +0.000 A 
ATOM      6  C   UNL     1       3.384   4.986  17.943  0.00  0.00    +0.000 A 
ENDROOT
BRANCH   1   8
ATOM      7  C   UNL     1       5.503   4.926  15.766  0.00  0.00    +0.000 C 
ATOM      8  C   UNL     1       4.792   3.867  16.220  0.00  0.00    +0.000 C 
BRANCH   7   9
ATOM      9  C   UNL     1       5.296   6.342  16.153  0.00  0.00    +0.000 C 
ATOM     10  O   UNL     1       4.866   7.199  15.395  0.00  0.00    +0.000 OA
BRANCH   9  11
ATOM     11  O   UNL     1       5.756   6.568  17.407  0.00  0.00    +0.000 OA
BRANCH  11  13
ATOM     12  C   UNL     1       7.694   6.193  18.718  0.00  0.00    +0.000 C 
ATOM     13  C   UNL     1       7.131   6.951  17.531  0.00  0.00    +0.000 C 
ENDBRANCH  11  13
ENDBRANCH   9  11
ENDBRANCH   7   9
BRANCH   7  14
ATOM     14  C   UNL     1       6.612   4.561  14.851  0.00  0.00    +0.000 C 
ATOM     15  O   UNL     1       7.615   5.240  14.679  0.00  0.00    +0.000 OA
BRANCH  14  16
ATOM     16  O   UNL     1       6.274   3.466  14.125  0.00  0.00    +0.000 OA
BRANCH  16  17
ATOM     17  C   UNL     1       6.394   3.592  12.701  0.00  0.00    +0.000 C 
ATOM     18  C   UNL     1       5.007   3.437  12.109  0.00  0.00    +0.000 C 
ENDBRANCH  16  17
ENDBRANCH  14  16
ENDBRANCH   7  14
ENDBRANCH   1   8
BRANCH   5  19
ATOM     19  O   UNL     1       2.009   5.980  19.723  0.00  0.00    +0.000 OA
BRANCH  19  20
ATOM     20  C   UNL     1       2.477   7.278  19.353  0.00  0.00    +0.000 C 
BRANCH  20  21
ATOM     21  C   UNL     1       1.558   8.372  19.858  0.00  0.00    +0.000 A 
ATOM     22  C   UNL     1       1.237   9.445  19.015  0.00  0.00    +0.000 A 
ATOM     23  C   UNL     1       0.502  10.532  19.493  0.00  0.00    +0.000 A 
ATOM     24  C   UNL     1       0.086  10.563  20.823  0.00  0.00    +0.000 A 
ATOM     25  C   UNL     1       0.394   9.505  21.684  0.00  0.00    +0.000 A 
ATOM     26  C   UNL     1      -0.039   9.538  23.121  0.00  0.00    +0.000 C 
ATOM     27  C   UNL     1       1.127   8.413  21.194  0.00  0.00    +0.000 A 
ENDBRANCH  20  21
ENDBRANCH  19  20
ENDBRANCH   5  19
TORSDOF 10
ENDMDL
MODEL 7
REMARK VINA RESULT:      -7.4      1.180      1.937
REMARK  Name = 
REMARK  13 active torsions:
REMARK  status: ('A' for Active; 'I' for Inactive)
REMARK    1  A    between atoms: C_1  and  C_2
REMARK    2  A    between atoms: C_2  and  O_3
REMARK    3  A    between atoms: O_3  and  C_4
REMARK    4  A    between atoms: C_4  and  C_6
REMARK    5  A    between atoms: C_6  and  C_23
REMARK    6  A    between atoms: C_7  and  C_8
REMARK    7  A    between atoms: C_12  and  O_13
REMARK    8  A    between atoms: O_13  and  C_14
REMARK    9  A    between atoms: C_14  and  C_15
REMARK   10  A    between atoms: C_19  and  C_20
REMARK   11  A    between atoms: C_23  and  O_25
REMARK   12  A    between atoms: O_25  and  C_26
REMARK   13  A    between atoms: C_26  and  C_27
REMARK                            x       y       z     vdW  Elec       q    Type
REMARK                         _______ _______ _______ _____ _____    ______ ____
ROOT
ATOM      1  C   UNL     1       3.962   5.521  17.123  0.00  0.00    +0.000 A 
ATOM      2  C   UNL     1       3.318   4.466  17.774  0.00  0.00    +0.000 A 
ATOM      3  C   UNL     1       2.437   4.734  18.820  0.00  0.00    +0.000 A 
ATOM      4  C   UNL     1       2.194   6.053  19.210  0.00  0.00    +0.000 A 
ATOM      5  C   UNL     1       2.810   7.118  18.548  0.00  0.00    +0.000 A 
ATOM      6  C   UNL     1       3.705   6.844  17.511  0.00  0.00    +0.000 A 
ENDROOT
BRANCH   1   8
ATOM      7  C   UNL     1       6.266   4.966  16.218  0.00  0.00    +0.000 C 
ATOM      8  C   UNL     1       4.947   5.231  16.076  0.00  0.00    +0.000 C 
BRANCH   7   9
ATOM      9  C   UNL     1       6.998   4.860  17.504  0.00  0.00    +0.000 C 
ATOM     10  O   UNL     1       6.667   4.118  18.416  0.00  0.00    +0.000 OA
BRANCH   9  11
ATOM     11  O   UNL     1       7.996   5.775  17.564  0.00  0.00    +0.000 OA
BRANCH  11  13
ATOM     12  C   UNL     1       7.786   8.135  17.592  0.00  0.00    +0.000 C 
ATOM     13  C   UNL     1       7.802   6.884  18.450  0.00  0.00    +0.000 C 
ENDBRANCH  11  13
ENDBRANCH   9  11
ENDBRANCH   7   9
BRANCH   7  14
ATOM     14  C   UNL     1       6.972   4.709  14.940  0.00  0.00    +0.000 C 
ATOM     15  O   UNL     1       7.846   5.431  14.477  0.00  0.00    +0.000 OA
BRANCH  14  16
ATOM     16  O   UNL     1       6.397   3.664  14.292  0.00  0.00    +0.000 OA
BRANCH  16  17
ATOM     17  C   UNL     1       5.801   3.961  13.022  0.00  0.00    +0.000 C 
ATOM     18  C   UNL     1       6.024   2.762  12.120  0.00  0.00    +0.000 C 
ENDBRANCH  16  17
ENDBRANCH  14  16
ENDBRANCH   7  14
ENDBRANCH   1   8
BRANCH   5  19
ATOM     19  O   UNL     1       2.518   8.365  19.036  0.00  0.00    +0.000 OA
BRANCH  19  20
ATOM     20  C   UNL     1       1.431   9.039  18.398  0.00  0.00    +0.000 C 
BRANCH  20  21
ATOM     21  C   UNL     1       0.534   9.733  19.403  0.00  0.00    +0.000 A 
ATOM     22  C   UNL     1      -0.168  10.886  19.018  0.00  0.00    +0.000 A 
ATOM     23  C   UNL     1      -0.895  11.622  19.954  0.00  0.00    +0.000 A 
ATOM     24  C   UNL     1      -0.924  11.222  21.289  0.00  0.00    +0.000 A 
ATOM     25  C   UNL     1      -0.233  10.077  21.698  0.00  0.00    +0.000 A 
ATOM     26  C   UNL     1      -0.247   9.648  23.136  0.00  0.00    +0.000 C 
ATOM     27  C   UNL     1       0.492   9.337  20.749  0.00  0.00    +0.000 A 
ENDBRANCH  20  21
ENDBRANCH  19  20
ENDBRANCH   5  19
TORSDOF 10
ENDMDL
MODEL 8
REMARK VINA RESULT:      -7.4      4.011      6.931
REMARK  Name = 
REMARK  13 active torsions:
REMARK  status: ('A' for Active; 'I' for Inactive)
REMARK    1  A    between atoms: C_1  and  C_2
REMARK    2  A    between atoms: C_2  and  O_3
REMARK    3  A    between atoms: O_3  and  C_4
REMARK    4  A    between atoms: C_4  and  C_6
REMARK    5  A    between atoms: C_6  and  C_23
REMARK    6  A    between atoms: C_7  and  C_8
REMARK    7  A    between atoms: C_12  and  O_13
REMARK    8  A    between atoms: O_13  and  C_14
REMARK    9  A    between atoms: C_14  and  C_15
REMARK   10  A    between atoms: C_19  and  C_20
REMARK   11  A    between atoms: C_23  and  O_25
REMARK   12  A    between atoms: O_25  and  C_26
REMARK   13  A    between atoms: C_26  and  C_27
REMARK                            x       y       z     vdW  Elec       q    Type
REMARK                         _______ _______ _______ _____ _____    ______ ____
ROOT
ATOM      1  C   UNL     1       5.604   5.672  17.805  0.00  0.00    +0.000 A 
ATOM      2  C   UNL     1       6.515   4.906  18.536  0.00  0.00    +0.000 A 
ATOM      3  C   UNL     1       7.751   5.448  18.884  0.00  0.00    +0.000 A 
ATOM      4  C   UNL     1       8.074   6.755  18.510  0.00  0.00    +0.000 A 
ATOM      5  C   UNL     1       7.160   7.540  17.805  0.00  0.00    +0.000 A 
ATOM      6  C   UNL     1       5.928   6.988  17.443  0.00  0.00    +0.000 A 
ENDROOT
BRANCH   1   8
ATOM      7  C   UNL     1       3.190   4.942  18.081  0.00  0.00    +0.000 C 
ATOM      8  C   UNL     1       4.338   5.073  17.374  0.00  0.00    +0.000 C 
BRANCH   7   9
ATOM      9  C   UNL     1       2.956   5.439  19.457  0.00  0.00    +0.000 C 
ATOM     10  O   UNL     1       2.756   6.612  19.733  0.00  0.00    +0.000 OA
BRANCH   9  11
ATOM     11  O   UNL     1       3.113   4.441  20.360  0.00  0.00    +0.000 OA
BRANCH  11  13
ATOM     12  C   UNL     1       2.166   2.717  21.682  0.00  0.00    +0.000 C 
ATOM     13  C   UNL     1       1.987   4.142  21.195  0.00  0.00    +0.000 C 
ENDBRANCH  11  13
ENDBRANCH   9  11
ENDBRANCH   7   9
BRANCH   7  14
ATOM     14  C   UNL     1       2.091   4.288  17.330  0.00  0.00    +0.000 C 
ATOM     15  O   UNL     1       0.985   4.783  17.158  0.00  0.00    +0.000 OA
BRANCH  14  16
ATOM     16  O   UNL     1       2.436   3.015  17.014  0.00  0.00    +0.000 OA
BRANCH  16  17
ATOM     17  C   UNL     1       2.245   2.035  18.044  0.00  0.00    +0.000 C 
ATOM     18  C   UNL     1       3.609   1.484  18.412  0.00  0.00    +0.000 C 
ENDBRANCH  16  17
ENDBRANCH  14  16
ENDBRANCH   7  14
ENDBRANCH   1   8
BRANCH   5  19
ATOM     19  O   UNL     1       7.597   8.795  17.468  0.00  0.00    +0.000 OA
BRANCH  19  20
ATOM     20  C   UNL     1       8.625   9.335  18.300  0.00  0.00    +0.000 C 
BRANCH  20  21
ATOM     21  C   UNL     1       8.943  10.771  17.939  0.00  0.00    +0.000 A 
ATOM     22  C   UNL     1      10.283  11.176  17.837  0.00  0.00    +0.000 A 
ATOM     23  C   UNL     1      10.608  12.518  17.636  0.00  0.00    +0.000 A 
ATOM     24  C   UNL     1       9.600  13.476  17.544  0.00  0.00    +0.000 A 
ATOM     25  C   UNL     1       8.257  13.099  17.643  0.00  0.00    +0.000 A 
ATOM     26  C   UNL     1       7.165  14.126  17.558  0.00  0.00    +0.000 C 
ATOM     27  C   UNL     1       7.937  11.745  17.837  0.00  0.00    +0.000 A 
ENDBRANCH  20  21
ENDBRANCH  19  20
ENDBRANCH   5  19
TORSDOF 10
ENDMDL
MODEL 9
REMARK VINA RESULT:      -7.4      1.600      3.142
REMARK  Name = 
REMARK  13 active torsions:
REMARK  status: ('A' for Active; 'I' for Inactive)
REMARK    1  A    between atoms: C_1  and  C_2
REMARK    2  A    between atoms: C_2  and  O_3
REMARK    3  A    between atoms: O_3  and  C_4
REMARK    4  A    between atoms: C_4  and  C_6
REMARK    5  A    between atoms: C_6  and  C_23
REMARK    6  A    between atoms: C_7  and  C_8
REMARK    7  A    between atoms: C_12  and  O_13
REMARK    8  A    between atoms: O_13  and  C_14
REMARK    9  A    between atoms: C_14  and  C_15
REMARK   10  A    between atoms: C_19  and  C_20
REMARK   11  A    between atoms: C_23  and  O_25
REMARK   12  A    between atoms: O_25  and  C_26
REMARK   13  A    between atoms: C_26  and  C_27
REMARK                            x       y       z     vdW  Elec       q    Type
REMARK                         _______ _______ _______ _____ _____    ______ ____
ROOT
ATOM      1  C   UNL     1       3.602   6.958  17.730  0.00  0.00    +0.000 A 
ATOM      2  C   UNL     1       3.327   6.163  18.844  0.00  0.00    +0.000 A 
ATOM      3  C   UNL     1       2.421   6.609  19.805  0.00  0.00    +0.000 A 
ATOM      4  C   UNL     1       1.786   7.844  19.649  0.00  0.00    +0.000 A 
ATOM      5  C   UNL     1       2.032   8.634  18.524  0.00  0.00    +0.000 A 
ATOM      6  C   UNL     1       2.952   8.191  17.572  0.00  0.00    +0.000 A 
ENDROOT
BRANCH   1   8
ATOM      7  C   UNL     1       5.343   5.381  16.770  0.00  0.00    +0.000 C 
ATOM      8  C   UNL     1       4.613   6.521  16.761  0.00  0.00    +0.000 C 
BRANCH   7   9
ATOM      9  C   UNL     1       5.230   4.284  17.762  0.00  0.00    +0.000 C 
ATOM     10  O   UNL     1       5.938   4.185  18.752  0.00  0.00    +0.000 OA
BRANCH   9  11
ATOM     11  O   UNL     1       4.325   3.361  17.354  0.00  0.00    +0.000 OA
BRANCH  11  13
ATOM     12  C   UNL     1       2.310   2.224  17.865  0.00  0.00    +0.000 C 
ATOM     13  C   UNL     1       3.693   2.581  18.375  0.00  0.00    +0.000 C 
ENDBRANCH  11  13
ENDBRANCH   9  11
ENDBRANCH   7   9
BRANCH   7  14
ATOM     14  C   UNL     1       6.277   5.253  15.626  0.00  0.00    +0.000 C 
ATOM     15  O   UNL     1       7.410   5.714  15.606  0.00  0.00    +0.000 OA
BRANCH  14  16
ATOM     16  O   UNL     1       5.637   4.703  14.563  0.00  0.00    +0.000 OA
BRANCH  16  17
ATOM     17  C   UNL     1       6.442   3.900  13.689  0.00  0.00    +0.000 C 
ATOM     18  C   UNL     1       5.580   3.504  12.505  0.00  0.00    +0.000 C 
ENDBRANCH  16  17
ENDBRANCH  14  16
ENDBRANCH   7  14
ENDBRANCH   1   8
BRANCH   5  19
ATOM     19  O   UNL     1       1.374   9.836  18.493  0.00  0.00    +0.000 OA
BRANCH  19  20
ATOM     20  C   UNL     1       0.244   9.944  19.361  0.00  0.00    +0.000 C 
BRANCH  20  21
ATOM     21  C   UNL     1      -0.973  10.478  18.634  0.00  0.00    +0.000 A 
ATOM     22  C   UNL     1      -1.809  11.403  19.278  0.00  0.00    +0.000 A 
ATOM     23  C   UNL     1      -3.006  11.812  18.688  0.00  0.00    +0.000 A 
ATOM     24  C   UNL     1      -3.388  11.295  17.451  0.00  0.00    +0.000 A 
ATOM     25  C   UNL     1      -2.573  10.372  16.788  0.00  0.00    +0.000 A 
ATOM     26  C   UNL     1      -2.983   9.801  15.463  0.00  0.00    +0.000 C 
ATOM     27  C   UNL     1      -1.366   9.971  17.385  0.00  0.00    +0.000 A 
ENDBRANCH  20  21
ENDBRANCH  19  20
ENDBRANCH   5  19
TORSDOF 10
ENDMDL
