MODEL 1
REMARK VINA RESULT:      -8.0      0.000      0.000
REMARK  Name = 
REMARK  6 active torsions:
REMARK  status: ('A' for Active; 'I' for Inactive)
REMARK    1  A    between atoms: C_1  and  N_2
REMARK    2  A    between atoms: C_6  and  C_7
REMARK    3  A    between atoms: C_7  and  N_8
REMARK    4  A    between atoms: C_12  and  C_13
REMARK    5  A    between atoms: C_17  and  O_18
REMARK    6  A    between atoms: O_18  and  C_19
REMARK                            x       y       z     vdW  Elec       q    Type
REMARK                         _______ _______ _______ _____ _____    ______ ____
ROOT
ATOM      1  C   UNL     1       4.727   5.649  18.234  0.00  0.00    +0.000 A 
ATOM      2  C   UNL     1       5.515   5.330  19.334  0.00  0.00    +0.000 A 
ATOM      3  N   UNL     1       6.863   5.198  19.268  0.00  0.00    +0.000 NA
ATOM      4  C   UNL     1       7.401   5.393  18.040  0.00  0.00    +0.000 A 
ATOM      5  C   UNL     1       6.627   5.663  16.923  0.00  0.00    +0.000 A 
ATOM      6  N   UNL     1       5.283   5.815  16.998  0.00  0.00    +0.000 NA
ENDROOT
BRANCH   1  11
ATOM      7  N   UNL     1       2.742   6.209  19.774  0.00  0.00    +0.000 NA
ATOM      8  C   UNL     1       2.509   7.662  19.875  0.00  0.00    +0.000 C 
ATOM      9  C   UNL     1       2.125   8.138  18.489  0.00  0.00    +0.000 C 
ATOM     10  C   UNL     1       2.984   7.288  17.580  0.00  0.00    +0.000 C 
ATOM     11  C   UNL     1       3.253   5.995  18.370  0.00  0.00    +0.000 C 
BRANCH   7  12
ATOM     12  C   UNL     1       1.510   5.411  19.937  0.00  0.00    +0.000 C 
BRANCH  12  18
ATOM     13  C   UNL     1       2.499   2.755  21.497  0.00  0.00    +0.000 C 
ATOM     14  N   UNL     1       2.057   2.886  20.132  0.00  0.00    +0.000 N 
ATOM     15  C   UNL     1       2.107   1.858  19.226  0.00  0.00    +0.000 A 
ATOM     16  N   UNL     1       1.537   2.182  18.092  0.00  0.00    +0.000 NA
ATOM     17  C   UNL     1       1.169   3.488  18.245  0.00  0.00    +0.000 A 
ATOM     18  C   UNL     1       1.529   3.983  19.489  0.00  0.00    +0.000 A 
ENDBRANCH  12  18
ENDBRANCH   7  12
ENDBRANCH   1  11
BRANCH   5  19
ATOM     19  O   UNL     1       7.279   5.858  15.716  0.00  0.00    +0.000 OA
BRANCH  19  20
ATOM     20  C   UNL     1       6.904   5.088  14.642  0.00  0.00    +0.000 A 
ATOM     21  C   UNL     1       7.690   5.218  13.490  0.00  0.00    +0.000 A 
ATOM     22  C   UNL     1       7.410   4.441  12.362  0.00  0.00    +0.000 A 
ATOM     23  C   UNL     1       6.359   3.536  12.399  0.00  0.00    +0.000 A 
ATOM     24  F   UNL     1       6.091   2.794  11.316  0.00  0.00    +0.000 F 
ATOM     25  C   UNL     1       5.587   3.380  13.540  0.00  0.00    +0.000 A 
ATOM     26  C   UNL     1       5.866   4.149  14.674  0.00  0.00    +0.000 A 
ENDBRANCH  19  20
ENDBRANCH   5  19
TORSDOF 5
ENDMDL
MODEL 2
REMARK VINA RESULT:      -8.0      4.222      7.851
REMARK  Name = 
REMARK  6 active torsions:
REMARK  status: ('A' for Active; 'I' for Inactive)
REMARK    1  A    between atoms: C_1  and  N_2
REMARK    2  A    between atoms: C_6  and  C_7
REMARK    3  A    between atoms: C_7  and  N_8
REMARK    4  A    between atoms: C_12  and  C_13
REMARK    5  A    between atoms: C_17  and  O_18
REMARK    6  A    between atoms: O_18  and  C_19
REMARK                            x       y       z     vdW  Elec       q    Type
REMARK                         _______ _______ _______ _____ _____    ______ ____
ROOT
ATOM      1  C   UNL     1       2.386   6.732  19.168  0.00  0.00    +0.000 A 
ATOM      2  C   UNL     1       1.976   6.646  20.494  0.00  0.00    +0.000 A 
ATOM      3  N   UNL     1       1.333   7.651  21.139  0.00  0.00    +0.000 NA
ATOM      4  C   UNL     1       1.116   8.764  20.398  0.00  0.00    +0.000 A 
ATOM      5  C   UNL     1       1.560   8.887  19.091  0.00  0.00    +0.000 A 
ATOM      6  N   UNL     1       2.183   7.873  18.445  0.00  0.00    +0.000 NA
ENDROOT
BRANCH   1  11
ATOM      7  N   UNL     1       3.752   4.551  19.197  0.00  0.00    +0.000 NA
ATOM      8  C   UNL     1       2.896   3.360  19.355  0.00  0.00    +0.000 C 
ATOM      9  C   UNL     1       2.010   3.296  18.127  0.00  0.00    +0.000 C 
ATOM     10  C   UNL     1       1.716   4.750  17.835  0.00  0.00    +0.000 C 
ATOM     11  C   UNL     1       2.915   5.528  18.407  0.00  0.00    +0.000 C 
BRANCH   7  12
ATOM     12  C   UNL     1       4.985   4.282  18.428  0.00  0.00    +0.000 C 
BRANCH  12  18
ATOM     13  C   UNL     1       5.347   6.507  16.108  0.00  0.00    +0.000 C 
ATOM     14  N   UNL     1       6.191   6.247  17.247  0.00  0.00    +0.000 N 
ATOM     15  C   UNL     1       7.392   6.876  17.449  0.00  0.00    +0.000 A 
ATOM     16  N   UNL     1       7.913   6.566  18.611  0.00  0.00    +0.000 NA
ATOM     17  C   UNL     1       7.053   5.653  19.148  0.00  0.00    +0.000 A 
ATOM     18  C   UNL     1       5.991   5.382  18.300  0.00  0.00    +0.000 A 
ENDBRANCH  12  18
ENDBRANCH   7  12
ENDBRANCH   1  11
BRANCH   5  19
ATOM     19  O   UNL     1       1.275  10.064  18.419  0.00  0.00    +0.000 OA
BRANCH  19  20
ATOM     20  C   UNL     1      -0.037  10.455  18.315  0.00  0.00    +0.000 A 
ATOM     21  C   UNL     1      -0.358  11.689  18.894  0.00  0.00    +0.000 A 
ATOM     22  C   UNL     1      -1.660  12.188  18.799  0.00  0.00    +0.000 A 
ATOM     23  C   UNL     1      -2.625  11.458  18.120  0.00  0.00    +0.000 A 
ATOM     24  F   UNL     1      -3.873  11.936  18.033  0.00  0.00    +0.000 F 
ATOM     25  C   UNL     1      -2.316  10.245  17.523  0.00  0.00    +0.000 A 
ATOM     26  C   UNL     1      -1.014   9.743  17.608  0.00  0.00    +0.000 A 
ENDBRANCH  19  20
ENDBRANCH   5  19
TORSDOF 5
ENDMDL
MODEL 3
REMARK VINA RESULT:      -7.9      0.363      1.013
REMARK  Name = 
REMARK  6 active torsions:
REMARK  status: ('A' for Active; 'I' for Inactive)
REMARK    1  A    between atoms: C_1  and  N_2
REMARK    2  A    between atoms: C_6  and  C_7
REMARK    3  A    between atoms: C_7  and  N_8
REMARK    4  A    between atoms: C_12  and  C_13
REMARK    5  A    between atoms: C_17  and  O_18
REMARK    6  A    between atoms: O_18  and  C_19
REMARK                            x       y       z     vdW  Elec       q    Type
REMARK                         _______ _______ _______ _____ _____    ______ ____
ROOT
ATOM      1  C   UNL     1       4.883   5.505  18.225  0.00  0.00    +0.000 A 
ATOM      2  C   UNL     1       5.715   5.225  19.303  0.00  0.00    +0.000 A 
ATOM      3  N   UNL     1       7.068   5.190  19.206  0.00  0.00    +0.000 NA
ATOM      4  C   UNL     1       7.563   5.445  17.972  0.00  0.00    +0.000 A 
ATOM      5  C   UNL     1       6.748   5.678  16.876  0.00  0.00    +0.000 A 
ATOM      6  N   UNL     1       5.399   5.732  16.982  0.00  0.00    +0.000 NA
ENDROOT
BRANCH   1  11
ATOM      7  N   UNL     1       2.930   6.125  19.784  0.00  0.00    +0.000 NA
ATOM      8  C   UNL     1       2.569   7.552  19.681  0.00  0.00    +0.000 C 
ATOM      9  C   UNL     1       2.076   7.776  18.266  0.00  0.00    +0.000 C 
ATOM     10  C   UNL     1       2.967   6.872  17.443  0.00  0.00    +0.000 C 
ATOM     11  C   UNL     1       3.392   5.743  18.398  0.00  0.00    +0.000 C 
BRANCH   7  12
ATOM     12  C   UNL     1       1.786   5.261  20.137  0.00  0.00    +0.000 C 
BRANCH  12  18
ATOM     13  C   UNL     1       3.523   2.634  20.878  0.00  0.00    +0.000 C 
ATOM     14  N   UNL     1       2.564   2.811  19.816  0.00  0.00    +0.000 N 
ATOM     15  C   UNL     1       2.330   1.864  18.853  0.00  0.00    +0.000 A 
ATOM     16  N   UNL     1       1.330   2.200  18.074  0.00  0.00    +0.000 NA
ATOM     17  C   UNL     1       0.953   3.439  18.506  0.00  0.00    +0.000 A 
ATOM     18  C   UNL     1       1.738   3.881  19.559  0.00  0.00    +0.000 A 
ENDBRANCH  12  18
ENDBRANCH   7  12
ENDBRANCH   1  11
BRANCH   5  19
ATOM     19  O   UNL     1       7.358   5.940  15.660  0.00  0.00    +0.000 OA
BRANCH  19  20
ATOM     20  C   UNL     1       7.049   5.136  14.590  0.00  0.00    +0.000 A 
ATOM     21  C   UNL     1       5.952   4.281  14.762  0.00  0.00    +0.000 A 
ATOM     22  C   UNL     1       5.537   3.458  13.711  0.00  0.00    +0.000 A 
ATOM     23  C   UNL     1       6.212   3.503  12.499  0.00  0.00    +0.000 A 
ATOM     24  F   UNL     1       5.815   2.711  11.494  0.00  0.00    +0.000 F 
ATOM     25  C   UNL     1       7.285   4.361  12.308  0.00  0.00    +0.000 A 
ATOM     26  C   UNL     1       7.701   5.192  13.353  0.00  0.00    +0.000 A 
ENDBRANCH  19  20
ENDBRANCH   5  19
TORSDOF 5
ENDMDL
MODEL 4
REMARK VINA RESULT:      -7.9      0.663      1.627
REMARK  Name = 
REMARK  6 active torsions:
REMARK  status: ('A' for Active; 'I' for Inactive)
REMARK    1  A    between atoms: C_1  and  N_2
REMARK    2  A    between atoms: C_6  and  C_7
REMARK    3  A    between atoms: C_7  and  N_8
REMARK    4  A    between atoms: C_12  and  C_13
REMARK    5  A    between atoms: C_17  and  O_18
REMARK    6  A    between atoms: O_18  and  C_19
REMARK                            x       y       z     vdW  Elec       q    Type
REMARK                         _______ _______ _______ _____ _____    ______ ____
ROOT
ATOM      1  C   UNL     1       4.791   5.556  18.130  0.00  0.00    +0.000 A 
ATOM      2  C   UNL     1       5.576   5.169  19.210  0.00  0.00    +0.000 A 
ATOM      3  N   UNL     1       6.921   5.016  19.132  0.00  0.00    +0.000 NA
ATOM      4  C   UNL     1       7.459   5.264  17.914  0.00  0.00    +0.000 A 
ATOM      5  C   UNL     1       6.688   5.604  16.815  0.00  0.00    +0.000 A 
ATOM      6  N   UNL     1       5.347   5.775  16.902  0.00  0.00    +0.000 NA
ENDROOT
BRANCH   1  11
ATOM      7  N   UNL     1       2.903   6.430  19.645  0.00  0.00    +0.000 NA
ATOM      8  C   UNL     1       2.653   7.871  19.448  0.00  0.00    +0.000 C 
ATOM      9  C   UNL     1       2.171   8.037  18.022  0.00  0.00    +0.000 C 
ATOM     10  C   UNL     1       2.982   7.014  17.260  0.00  0.00    +0.000 C 
ATOM     11  C   UNL     1       3.324   5.921  18.288  0.00  0.00    +0.000 C 
BRANCH   7  12
ATOM     12  C   UNL     1       1.697   5.683  20.058  0.00  0.00    +0.000 C 
BRANCH  12  18
ATOM     13  C   UNL     1       1.081   2.914  18.504  0.00  0.00    +0.000 C 
ATOM     14  N   UNL     1       1.492   3.108  19.871  0.00  0.00    +0.000 N 
ATOM     15  C   UNL     1       1.574   2.085  20.782  0.00  0.00    +0.000 A 
ATOM     16  N   UNL     1       2.087   2.487  21.918  0.00  0.00    +0.000 NA
ATOM     17  C   UNL     1       2.278   3.829  21.761  0.00  0.00    +0.000 A 
ATOM     18  C   UNL     1       1.865   4.267  20.513  0.00  0.00    +0.000 A 
ENDBRANCH  12  18
ENDBRANCH   7  12
ENDBRANCH   1  11
BRANCH   5  19
ATOM     19  O   UNL     1       7.340   5.847  15.617  0.00  0.00    +0.000 OA
BRANCH  19  20
ATOM     20  C   UNL     1       7.031   5.059  14.535  0.00  0.00    +0.000 A 
ATOM     21  C   UNL     1       5.927   4.212  14.689  0.00  0.00    +0.000 A 
ATOM     22  C   UNL     1       5.512   3.405  13.626  0.00  0.00    +0.000 A 
ATOM     23  C   UNL     1       6.195   3.460  12.419  0.00  0.00    +0.000 A 
ATOM     24  F   UNL     1       5.798   2.684  11.401  0.00  0.00    +0.000 F 
ATOM     25  C   UNL     1       7.276   4.312  12.245  0.00  0.00    +0.000 A 
ATOM     26  C   UNL     1       7.691   5.126  13.302  0.00  0.00    +0.000 A 
ENDBRANCH  19  20
ENDBRANCH   5  19
TORSDOF 5
ENDMDL
MODEL 5
REMARK VINA RESULT:      -7.9      3.918      7.640
REMARK  Name = 
REMARK  6 active torsions:
REMARK  status: ('A' for Active; 'I' for Inactive)
REMARK    1  A    between atoms: C_1  and  N_2
REMARK    2  A    between atoms: C_6  and  C_7
REMARK    3  A    between atoms: C_7  and  N_8
REMARK    4  A    between atoms: C_12  and  C_13
REMARK    5  A    between atoms: C_17  and  O_18
REMARK    6  A    between atoms: O_18  and  C_19
REMARK                            x       y       z     vdW  Elec       q    Type
REMARK                         _______ _______ _______ _____ _____    ______ ____
ROOT
ATOM      1  C   UNL     1       2.454   5.749  18.666  0.00  0.00    +0.000 A 
ATOM      2  C   UNL     1       2.144   5.653  20.017  0.00  0.00    +0.000 A 
ATOM      3  N   UNL     1       1.811   6.724  20.780  0.00  0.00    +0.000 NA
ATOM      4  C   UNL     1       1.805   7.913  20.132  0.00  0.00    +0.000 A 
ATOM      5  C   UNL     1       2.158   8.035  18.798  0.00  0.00    +0.000 A 
ATOM      6  N   UNL     1       2.469   6.960  18.035  0.00  0.00    +0.000 NA
ENDROOT
BRANCH   1  11
ATOM      7  N   UNL     1       3.943   3.802  17.882  0.00  0.00    +0.000 NA
ATOM      8  C   UNL     1       3.641   2.548  18.598  0.00  0.00    +0.000 C 
ATOM      9  C   UNL     1       2.218   2.172  18.237  0.00  0.00    +0.000 C 
ATOM     10  C   UNL     1       1.518   3.510  18.153  0.00  0.00    +0.000 C 
ATOM     11  C   UNL     1       2.619   4.521  17.786  0.00  0.00    +0.000 C 
BRANCH   7  12
ATOM     12  C   UNL     1       4.441   3.580  16.509  0.00  0.00    +0.000 C 
BRANCH  12  18
ATOM     13  C   UNL     1       5.821   3.728  13.586  0.00  0.00    +0.000 C 
ATOM     14  N   UNL     1       6.197   4.416  14.796  0.00  0.00    +0.000 N 
ATOM     15  C   UNL     1       7.326   5.186  14.901  0.00  0.00    +0.000 A 
ATOM     16  N   UNL     1       7.386   5.805  16.054  0.00  0.00    +0.000 NA
ATOM     17  C   UNL     1       6.294   5.365  16.745  0.00  0.00    +0.000 A 
ATOM     18  C   UNL     1       5.554   4.449  16.014  0.00  0.00    +0.000 A 
ENDBRANCH  12  18
ENDBRANCH   7  12
ENDBRANCH   1  11
BRANCH   5  19
ATOM     19  O   UNL     1       2.107   9.297  18.227  0.00  0.00    +0.000 OA
BRANCH  19  20
ATOM     20  C   UNL     1       0.971  10.047  18.406  0.00  0.00    +0.000 A 
ATOM     21  C   UNL     1       1.140  11.267  19.074  0.00  0.00    +0.000 A 
ATOM     22  C   UNL     1       0.047  12.117  19.262  0.00  0.00    +0.000 A 
ATOM     23  C   UNL     1      -1.199  11.748  18.772  0.00  0.00    +0.000 A 
ATOM     24  F   UNL     1      -2.246  12.563  18.956  0.00  0.00    +0.000 F 
ATOM     25  C   UNL     1      -1.375  10.555  18.089  0.00  0.00    +0.000 A 
ATOM     26  C   UNL     1      -0.285   9.703  17.891  0.00  0.00    +0.000 A 
ENDBRANCH  19  20
ENDBRANCH   5  19
TORSDOF 5
ENDMDL
MODEL 6
REMARK VINA RESULT:      -7.8      1.534      3.674
REMARK  Name = 
REMARK  6 active torsions:
REMARK  status: ('A' for Active; 'I' for Inactive)
REMARK    1  A    between atoms: C_1  and  N_2
REMARK    2  A    between atoms: C_6  and  C_7
REMARK    3  A    between atoms: C_7  and  N_8
REMARK    4  A    between atoms: C_12  and  C_13
REMARK    5  A    between atoms: C_17  and  O_18
REMARK    6  A    between atoms: O_18  and  C_19
REMARK                            x       y       z     vdW  Elec       q    Type
REMARK                         _______ _______ _______ _____ _____    ______ ____
ROOT
ATOM      1  C   UNL     1       5.140   4.881  18.469  0.00  0.00    +0.000 A 
ATOM      2  C   UNL     1       6.292   4.470  19.129  0.00  0.00    +0.000 A 
ATOM      3  N   UNL     1       7.529   4.539  18.577  0.00  0.00    +0.000 NA
ATOM      4  C   UNL     1       7.570   5.037  17.318  0.00  0.00    +0.000 A 
ATOM      5  C   UNL     1       6.428   5.406  16.626  0.00  0.00    +0.000 A 
ATOM      6  N   UNL     1       5.197   5.355  17.190  0.00  0.00    +0.000 NA
ENDROOT
BRANCH   1  11
ATOM      7  N   UNL     1       2.730   5.783  18.466  0.00  0.00    +0.000 NA
ATOM      8  C   UNL     1       1.759   4.775  17.999  0.00  0.00    +0.000 C 
ATOM      9  C   UNL     1       1.792   3.642  19.003  0.00  0.00    +0.000 C 
ATOM     10  C   UNL     1       3.250   3.570  19.397  0.00  0.00    +0.000 C 
ATOM     11  C   UNL     1       3.800   4.990  19.176  0.00  0.00    +0.000 C 
BRANCH   7  12
ATOM     12  C   UNL     1       2.153   6.739  19.433  0.00  0.00    +0.000 C 
BRANCH  12  18
ATOM     13  C   UNL     1       0.673   9.200  20.923  0.00  0.00    +0.000 C 
ATOM     14  N   UNL     1       1.255   9.163  19.605  0.00  0.00    +0.000 N 
ATOM     15  C   UNL     1       1.154  10.199  18.712  0.00  0.00    +0.000 A 
ATOM     16  N   UNL     1       1.867   9.982  17.634  0.00  0.00    +0.000 NA
ATOM     17  C   UNL     1       2.390   8.733  17.807  0.00  0.00    +0.000 A 
ATOM     18  C   UNL     1       1.984   8.163  19.003  0.00  0.00    +0.000 A 
ENDBRANCH  12  18
ENDBRANCH   7  12
ENDBRANCH   1  11
BRANCH   5  19
ATOM     19  O   UNL     1       6.583   5.915  15.347  0.00  0.00    +0.000 OA
BRANCH  19  20
ATOM     20  C   UNL     1       6.553   5.039  14.289  0.00  0.00    +0.000 A 
ATOM     21  C   UNL     1       5.444   4.187  14.229  0.00  0.00    +0.000 A 
ATOM     22  C   UNL     1       5.307   3.292  13.164  0.00  0.00    +0.000 A 
ATOM     23  C   UNL     1       6.271   3.265  12.166  0.00  0.00    +0.000 A 
ATOM     24  F   UNL     1       6.140   2.404  11.148  0.00  0.00    +0.000 F 
ATOM     25  C   UNL     1       7.363   4.119  12.201  0.00  0.00    +0.000 A 
ATOM     26  C   UNL     1       7.502   5.021  13.260  0.00  0.00    +0.000 A 
ENDBRANCH  19  20
ENDBRANCH   5  19
TORSDOF 5
ENDMDL
MODEL 7
REMARK VINA RESULT:      -7.8      1.531      3.554
REMARK  Name = 
REMARK  6 active torsions:
REMARK  status: ('A' for Active; 'I' for Inactive)
REMARK    1  A    between atoms: C_1  and  N_2
REMARK    2  A    between atoms: C_6  and  C_7
REMARK    3  A    between atoms: C_7  and  N_8
REMARK    4  A    between atoms: C_12  and  C_13
REMARK    5  A    between atoms: C_17  and  O_18
REMARK    6  A    between atoms: O_18  and  C_19
REMARK                            x       y       z     vdW  Elec       q    Type
REMARK                         _______ _______ _______ _____ _____    ______ ____
ROOT
ATOM      1  C   UNL     1       5.113   4.966  18.665  0.00  0.00    +0.000 A 
ATOM      2  C   UNL     1       6.307   4.499  19.202  0.00  0.00    +0.000 A 
ATOM      3  N   UNL     1       7.488   4.548  18.538  0.00  0.00    +0.000 NA
ATOM      4  C   UNL     1       7.429   5.085  17.296  0.00  0.00    +0.000 A 
ATOM      5  C   UNL     1       6.241   5.511  16.726  0.00  0.00    +0.000 A 
ATOM      6  N   UNL     1       5.066   5.479  17.400  0.00  0.00    +0.000 NA
ENDROOT
BRANCH   1  11
ATOM      7  N   UNL     1       2.646   5.686  18.804  0.00  0.00    +0.000 NA
ATOM      8  C   UNL     1       1.723   4.551  18.610  0.00  0.00    +0.000 C 
ATOM      9  C   UNL     1       1.958   3.597  19.763  0.00  0.00    +0.000 C 
ATOM     10  C   UNL     1       3.450   3.690  19.992  0.00  0.00    +0.000 C 
ATOM     11  C   UNL     1       3.848   5.093  19.498  0.00  0.00    +0.000 C 
BRANCH   7  12
ATOM     12  C   UNL     1       2.091   6.742  19.677  0.00  0.00    +0.000 C 
BRANCH  12  18
ATOM     13  C   UNL     1       0.711   9.378  20.945  0.00  0.00    +0.000 C 
ATOM     14  N   UNL     1       1.279   9.201  19.632  0.00  0.00    +0.000 N 
ATOM     15  C   UNL     1       1.206  10.154  18.649  0.00  0.00    +0.000 A 
ATOM     16  N   UNL     1       1.901   9.815  17.591  0.00  0.00    +0.000 NA
ATOM     17  C   UNL     1       2.382   8.569  17.874  0.00  0.00    +0.000 A 
ATOM     18  C   UNL     1       1.968   8.125  19.120  0.00  0.00    +0.000 A 
ENDBRANCH  12  18
ENDBRANCH   7  12
ENDBRANCH   1  11
BRANCH   5  19
ATOM     19  O   UNL     1       6.293   6.056  15.453  0.00  0.00    +0.000 OA
BRANCH  19  20
ATOM     20  C   UNL     1       6.355   5.201  14.380  0.00  0.00    +0.000 A 
ATOM     21  C   UNL     1       7.493   5.312  13.572  0.00  0.00    +0.000 A 
ATOM     22  C   UNL     1       7.664   4.453  12.483  0.00  0.00    +0.000 A 
ATOM     23  C   UNL     1       6.704   3.486  12.218  0.00  0.00    +0.000 A 
ATOM     24  F   UNL     1       6.868   2.665  11.172  0.00  0.00    +0.000 F 
ATOM     25  C   UNL     1       5.583   3.349  13.024  0.00  0.00    +0.000 A 
ATOM     26  C   UNL     1       5.411   4.201  14.119  0.00  0.00    +0.000 A 
ENDBRANCH  19  20
ENDBRANCH   5  19
TORSDOF 5
ENDMDL
MODEL 8
REMARK VINA RESULT:      -7.7      4.076      7.632
REMARK  Name = 
REMARK  6 active torsions:
REMARK  status: ('A' for Active; 'I' for Inactive)
REMARK    1  A    between atoms: C_1  and  N_2
REMARK    2  A    between atoms: C_6  and  C_7
REMARK    3  A    between atoms: C_7  and  N_8
REMARK    4  A    between atoms: C_12  and  C_13
REMARK    5  A    between atoms: C_17  and  O_18
REMARK    6  A    between atoms: O_18  and  C_19
REMARK                            x       y       z     vdW  Elec       q    Type
REMARK                         _______ _______ _______ _____ _____    ______ ____
ROOT
ATOM      1  C   UNL     1       2.443   6.393  19.003  0.00  0.00    +0.000 A 
ATOM      2  C   UNL     1       2.034   6.309  20.329  0.00  0.00    +0.000 A 
ATOM      3  N   UNL     1       1.490   7.351  21.006  0.00  0.00    +0.000 NA
ATOM      4  C   UNL     1       1.375   8.500  20.297  0.00  0.00    +0.000 A 
ATOM      5  C   UNL     1       1.822   8.617  18.992  0.00  0.00    +0.000 A 
ATOM      6  N   UNL     1       2.345   7.567  18.313  0.00  0.00    +0.000 NA
ENDROOT
BRANCH   1  11
ATOM      7  N   UNL     1       3.740   4.172  18.916  0.00  0.00    +0.000 NA
ATOM      8  C   UNL     1       2.870   3.009  19.177  0.00  0.00    +0.000 C 
ATOM      9  C   UNL     1       1.859   2.961  18.049  0.00  0.00    +0.000 C 
ATOM     10  C   UNL     1       1.579   4.421  17.772  0.00  0.00    +0.000 C 
ATOM     11  C   UNL     1       2.854   5.167  18.206  0.00  0.00    +0.000 C 
BRANCH   7  12
ATOM     12  C   UNL     1       4.877   3.858  18.026  0.00  0.00    +0.000 C 
BRANCH  12  18
ATOM     13  C   UNL     1       7.241   5.589  19.397  0.00  0.00    +0.000 C 
ATOM     14  N   UNL     1       6.603   5.787  18.120  0.00  0.00    +0.000 N 
ATOM     15  C   UNL     1       6.856   6.869  17.317  0.00  0.00    +0.000 A 
ATOM     16  N   UNL     1       6.253   6.764  16.157  0.00  0.00    +0.000 NA
ATOM     17  C   UNL     1       5.532   5.609  16.242  0.00  0.00    +0.000 A 
ATOM     18  C   UNL     1       5.678   4.996  17.476  0.00  0.00    +0.000 A 
ENDBRANCH  12  18
ENDBRANCH   7  12
ENDBRANCH   1  11
BRANCH   5  19
ATOM     19  O   UNL     1       1.646   9.834  18.353  0.00  0.00    +0.000 OA
BRANCH  19  20
ATOM     20  C   UNL     1       0.408  10.425  18.408  0.00  0.00    +0.000 A 
ATOM     21  C   UNL     1      -0.623   9.755  17.736  0.00  0.00    +0.000 A 
ATOM     22  C   UNL     1      -1.925  10.259  17.774  0.00  0.00    +0.000 A 
ATOM     23  C   UNL     1      -2.189  11.419  18.490  0.00  0.00    +0.000 A 
ATOM     24  F   UNL     1      -3.438  11.902  18.523  0.00  0.00    +0.000 F 
ATOM     25  C   UNL     1      -1.183  12.080  19.179  0.00  0.00    +0.000 A 
ATOM     26  C   UNL     1       0.120  11.577  19.151  0.00  0.00    +0.000 A 
ENDBRANCH  19  20
ENDBRANCH   5  19
TORSDOF 5
ENDMDL
MODEL 9
REMARK VINA RESULT:      -7.7      4.936      7.858
REMARK  Name = 
REMARK  6 active torsions:
REMARK  status: ('A' for Active; 'I' for Inactive)
REMARK    1  A    between atoms: C_1  and  N_2
REMARK    2  A    between atoms: C_6  and  C_7
REMARK    3  A    between atoms: C_7  and  N_8
REMARK    4  A    between atoms: C_12  and  C_13
REMARK    5  A    between atoms: C_17  and  O_18
REMARK    6  A    between atoms: O_18  and  C_19
REMARK                            x       y       z     vdW  Elec       q    Type
REMARK                         _______ _______ _______ _____ _____    ______ ____
ROOT
ATOM      1  C   UNL     1       0.791   9.736  19.582  0.00  0.00    +0.000 A 
ATOM      2  C   UNL     1       0.211   9.762  20.845  0.00  0.00    +0.000 A 
ATOM      3  N   UNL     1       0.456   8.823  21.793  0.00  0.00    +0.000 NA
ATOM      4  C   UNL     1       1.312   7.841  21.422  0.00  0.00    +0.000 A 
ATOM      5  C   UNL     1       1.861   7.772  20.153  0.00  0.00    +0.000 A 
ATOM      6  N   UNL     1       1.630   8.723  19.216  0.00  0.00    +0.000 NA
ENDROOT
BRANCH   1  11
ATOM      7  N   UNL     1      -0.040  12.130  19.131  0.00  0.00    +0.000 NA
ATOM      8  C   UNL     1       1.028  13.132  19.311  0.00  0.00    +0.000 C 
ATOM      9  C   UNL     1       2.081  12.839  18.262  0.00  0.00    +0.000 C 
ATOM     10  C   UNL     1       2.082  11.329  18.185  0.00  0.00    +0.000 C 
ATOM     11  C   UNL     1       0.667  10.901  18.613  0.00  0.00    +0.000 C 
BRANCH   7  12
ATOM     12  C   UNL     1      -1.049  12.531  18.130  0.00  0.00    +0.000 C 
BRANCH  12  18
ATOM     13  C   UNL     1      -2.485  10.471  16.090  0.00  0.00    +0.000 C 
ATOM     14  N   UNL     1      -3.032  11.109  17.261  0.00  0.00    +0.000 N 
ATOM     15  C   UNL     1      -4.350  11.004  17.625  0.00  0.00    +0.000 A 
ATOM     16  N   UNL     1      -4.579  11.564  18.787  0.00  0.00    +0.000 NA
ATOM     17  C   UNL     1      -3.383  12.110  19.154  0.00  0.00    +0.000 A 
ATOM     18  C   UNL     1      -2.402  11.896  18.198  0.00  0.00    +0.000 A 
ENDBRANCH  12  18
ENDBRANCH   7  12
ENDBRANCH   1  11
BRANCH   5  19
ATOM     19  O   UNL     1       2.735   6.731  19.881  0.00  0.00    +0.000 OA
BRANCH  19  20
ATOM     20  C   UNL     1       2.209   5.526  19.486  0.00  0.00    +0.000 A 
ATOM     21  C   UNL     1       1.684   4.722  20.505  0.00  0.00    +0.000 A 
ATOM     22  C   UNL     1       1.089   3.497  20.193  0.00  0.00    +0.000 A 
ATOM     23  C   UNL     1       1.012   3.092  18.867  0.00  0.00    +0.000 A 
ATOM     24  F   UNL     1       0.443   1.917  18.569  0.00  0.00    +0.000 F 
ATOM     25  C   UNL     1       1.507   3.889  17.845  0.00  0.00    +0.000 A 
ATOM     26  C   UNL     1       2.097   5.119  18.151  0.00  0.00    +0.000 A 
ENDBRANCH  19  20
ENDBRANCH   5  19
TORSDOF 5
ENDMDL
