MODEL 1
REMARK VINA RESULT:      -6.9      0.000      0.000
REMARK  Name = 
REMARK  18 active torsions:
REMARK  status: ('A' for Active; 'I' for Inactive)
REMARK    1  A    between atoms: C_1  and  O_2
REMARK    2  A    between atoms: O_2  and  C_3
REMARK    3  A    between atoms: C_3  and  C_4
REMARK    4  A    between atoms: C_3  and  C_5
REMARK    5  A    between atoms: C_3  and  C_6
REMARK    6  A    between atoms: C_6  and  O_7
REMARK    7  A    between atoms: C_6  and  C_8
REMARK    8  A    between atoms: C_8  and  C_9
REMARK    9  A    between atoms: C_9  and  C_10
REMARK   10  A    between atoms: C_10  and  C_11
REMARK   11  A    between atoms: C_12  and  C_13
REMARK   12  A    between atoms: C_13  and  C_14
REMARK   13  A    between atoms: C_14  and  C_15
REMARK   14  A    between atoms: C_15  and  C_16
REMARK   15  A    between atoms: C_22  and  C_23
REMARK   16  A    between atoms: C_24  and  C_25
REMARK   17  A    between atoms: C_25  and  O_27
REMARK   18  A    between atoms: C_28  and  O_29
REMARK                            x       y       z     vdW  Elec       q    Type
REMARK                         _______ _______ _______ _____ _____    ______ ____
ROOT
ATOM      1  C   UNL     1       2.216   5.635  19.602  0.00  0.00    +0.000 C 
ATOM      2  C   UNL     1       1.294   4.409  19.569  0.00  0.00    +0.000 C 
ATOM      3  C   UNL     1       2.356   6.177  18.196  0.00  0.00    +0.000 C 
ATOM      4  C   UNL     1       2.140   7.456  17.884  0.00  0.00    +0.000 C 
ATOM      5  C   UNL     1       1.705   8.363  18.940  0.00  0.00    +0.000 A 
ATOM      6  C   UNL     1       1.441   7.844  20.204  0.00  0.00    +0.000 A 
ATOM      7  C   UNL     1       0.960   8.668  21.221  0.00  0.00    +0.000 A 
ATOM      8  C   UNL     1       0.754  10.044  21.022  0.00  0.00    +0.000 A 
ATOM      9  C   UNL     1       0.240  10.826  22.200  0.00  0.00    +0.000 C 
ATOM     10  C   UNL     1       1.058  10.592  19.754  0.00  0.00    +0.000 A 
ATOM     11  C   UNL     1       1.535   9.740  18.726  0.00  0.00    +0.000 A 
ATOM     12  O   UNL     1       1.609   6.535  20.550  0.00  0.00    +0.000 OA
ENDROOT
BRANCH  10  13
ATOM     13  C   UNL     1       0.986  12.044  19.432  0.00  0.00    +0.000 C 
ATOM     14  O   UNL     1       2.004  12.710  19.300  0.00  0.00    +0.000 OA
BRANCH  13  15
ATOM     15  O   UNL     1      -0.236  12.556  19.206  0.00  0.00    +0.000 OA
ATOM     16  H   UNL     1      -0.744  12.779  20.005  0.00  0.00    +0.000 HD
ENDBRANCH  13  15
ENDBRANCH  10  13
BRANCH  11  17
ATOM     17  O   UNL     1       1.853  10.224  17.474  0.00  0.00    +0.000 OA
ATOM     18  H   UNL     1       1.677   9.526  16.805  0.00  0.00    +0.000 HD
ENDBRANCH  11  17
BRANCH   1  19
ATOM     19  C   UNL     1       3.634   5.285  20.109  0.00  0.00    +0.000 C 
BRANCH  19  20
ATOM     20  C   UNL     1       4.137   3.913  19.659  0.00  0.00    +0.000 C 
BRANCH  20  23
ATOM     21  C   UNL     1       4.625   3.624  17.190  0.00  0.00    +0.000 C 
ATOM     22  C   UNL     1       3.249   3.090  16.887  0.00  0.00    +0.000 C 
ATOM     23  C   UNL     1       4.993   4.009  18.427  0.00  0.00    +0.000 C 
BRANCH  21  24
ATOM     24  C   UNL     1       5.604   3.690  16.041  0.00  0.00    +0.000 C 
BRANCH  24  25
ATOM     25  C   UNL     1       6.964   4.263  16.456  0.00  0.00    +0.000 C 
BRANCH  25  26
ATOM     26  C   UNL     1       7.093   5.740  16.052  0.00  0.00    +0.000 C 
BRANCH  26  27
ATOM     27  C   UNL     1       7.176   6.745  17.250  0.00  0.00    +0.000 C 
ATOM     28  C   UNL     1       7.690   6.066  18.531  0.00  0.00    +0.000 C 
ATOM     29  C   UNL     1       5.799   7.364  17.559  0.00  0.00    +0.000 C 
BRANCH  27  31
ATOM     30  C   UNL     1       7.950   8.987  17.836  0.00  0.00    +0.000 C 
ATOM     31  O   UNL     1       8.005   7.887  16.939  0.00  0.00    +0.000 OA
ENDBRANCH  27  31
ENDBRANCH  26  27
BRANCH  26  32
ATOM     32  O   UNL     1       6.004   6.068  15.177  0.00  0.00    +0.000 OA
ATOM     33  H   UNL     1       5.481   6.774  15.591  0.00  0.00    +0.000 HD
ENDBRANCH  26  32
ENDBRANCH  25  26
ENDBRANCH  24  25
ENDBRANCH  21  24
ENDBRANCH  20  23
ENDBRANCH  19  20
ENDBRANCH   1  19
TORSDOF 12
ENDMDL
MODEL 2
REMARK VINA RESULT:      -6.6      3.382      6.330
REMARK  Name = 
REMARK  18 active torsions:
REMARK  status: ('A' for Active; 'I' for Inactive)
REMARK    1  A    between atoms: C_1  and  O_2
REMARK    2  A    between atoms: O_2  and  C_3
REMARK    3  A    between atoms: C_3  and  C_4
REMARK    4  A    between atoms: C_3  and  C_5
REMARK    5  A    between atoms: C_3  and  C_6
REMARK    6  A    between atoms: C_6  and  O_7
REMARK    7  A    between atoms: C_6  and  C_8
REMARK    8  A    between atoms: C_8  and  C_9
REMARK    9  A    between atoms: C_9  and  C_10
REMARK   10  A    between atoms: C_10  and  C_11
REMARK   11  A    between atoms: C_12  and  C_13
REMARK   12  A    between atoms: C_13  and  C_14
REMARK   13  A    between atoms: C_14  and  C_15
REMARK   14  A    between atoms: C_15  and  C_16
REMARK   15  A    between atoms: C_22  and  C_23
REMARK   16  A    between atoms: C_24  and  C_25
REMARK   17  A    between atoms: C_25  and  O_27
REMARK   18  A    between atoms: C_28  and  O_29
REMARK                            x       y       z     vdW  Elec       q    Type
REMARK                         _______ _______ _______ _____ _____    ______ ____
ROOT
ATOM      1  C   UNL     1       0.575  11.597  20.198  0.00  0.00    +0.000 C 
ATOM      2  C   UNL     1       1.800  12.448  19.836  0.00  0.00    +0.000 C 
ATOM      3  C   UNL     1      -0.396  12.450  20.984  0.00  0.00    +0.000 C 
ATOM      4  C   UNL     1      -1.685  12.573  20.661  0.00  0.00    +0.000 C 
ATOM      5  C   UNL     1      -2.169  11.886  19.469  0.00  0.00    +0.000 A 
ATOM      6  C   UNL     1      -1.254  11.214  18.664  0.00  0.00    +0.000 A 
ATOM      7  C   UNL     1      -1.668  10.602  17.481  0.00  0.00    +0.000 A 
ATOM      8  C   UNL     1      -3.013  10.614  17.074  0.00  0.00    +0.000 A 
ATOM      9  C   UNL     1      -3.334   9.911  15.783  0.00  0.00    +0.000 C 
ATOM     10  C   UNL     1      -3.960  11.258  17.904  0.00  0.00    +0.000 A 
ATOM     11  C   UNL     1      -3.523  11.886  19.098  0.00  0.00    +0.000 A 
ATOM     12  O   UNL     1       0.077  11.103  18.939  0.00  0.00    +0.000 OA
ENDROOT
BRANCH  10  13
ATOM     13  C   UNL     1      -5.428  11.262  17.652  0.00  0.00    +0.000 C 
ATOM     14  O   UNL     1      -6.185  10.587  18.337  0.00  0.00    +0.000 OA
BRANCH  13  15
ATOM     15  O   UNL     1      -5.879  12.104  16.706  0.00  0.00    +0.000 OA
ATOM     16  H   UNL     1      -6.284  11.676  15.933  0.00  0.00    +0.000 HD
ENDBRANCH  13  15
ENDBRANCH  10  13
BRANCH  11  17
ATOM     17  O   UNL     1      -4.405  12.522  19.947  0.00  0.00    +0.000 OA
ATOM     18  H   UNL     1      -5.313  12.453  19.579  0.00  0.00    +0.000 HD
ENDBRANCH  11  17
BRANCH   1  19
ATOM     19  C   UNL     1       0.947  10.383  21.079  0.00  0.00    +0.000 C 
BRANCH  19  20
ATOM     20  C   UNL     1       0.402   9.049  20.566  0.00  0.00    +0.000 C 
BRANCH  20  23
ATOM     21  C   UNL     1       2.136   7.648  19.363  0.00  0.00    +0.000 C 
ATOM     22  C   UNL     1       1.899   8.327  18.039  0.00  0.00    +0.000 C 
ATOM     23  C   UNL     1       1.477   8.002  20.483  0.00  0.00    +0.000 C 
BRANCH  21  24
ATOM     24  C   UNL     1       3.140   6.518  19.386  0.00  0.00    +0.000 C 
BRANCH  24  25
ATOM     25  C   UNL     1       2.971   5.554  18.206  0.00  0.00    +0.000 C 
BRANCH  25  26
ATOM     26  C   UNL     1       1.915   4.480  18.511  0.00  0.00    +0.000 C 
BRANCH  26  27
ATOM     27  C   UNL     1       2.493   3.112  19.007  0.00  0.00    +0.000 C 
ATOM     28  C   UNL     1       3.891   3.274  19.627  0.00  0.00    +0.000 C 
ATOM     29  C   UNL     1       2.598   2.095  17.854  0.00  0.00    +0.000 C 
BRANCH  27  31
ATOM     30  C   UNL     1       1.844   2.731  21.332  0.00  0.00    +0.000 C 
ATOM     31  O   UNL     1       1.613   2.468  19.955  0.00  0.00    +0.000 OA
ENDBRANCH  27  31
ENDBRANCH  26  27
BRANCH  26  32
ATOM     32  O   UNL     1       1.098   4.302  17.344  0.00  0.00    +0.000 OA
ATOM     33  H   UNL     1       1.682   4.172  16.579  0.00  0.00    +0.000 HD
ENDBRANCH  26  32
ENDBRANCH  25  26
ENDBRANCH  24  25
ENDBRANCH  21  24
ENDBRANCH  20  23
ENDBRANCH  19  20
ENDBRANCH   1  19
TORSDOF 12
ENDMDL
MODEL 3
REMARK VINA RESULT:      -6.6      3.348      6.267
REMARK  Name = 
REMARK  18 active torsions:
REMARK  status: ('A' for Active; 'I' for Inactive)
REMARK    1  A    between atoms: C_1  and  O_2
REMARK    2  A    between atoms: O_2  and  C_3
REMARK    3  A    between atoms: C_3  and  C_4
REMARK    4  A    between atoms: C_3  and  C_5
REMARK    5  A    between atoms: C_3  and  C_6
REMARK    6  A    between atoms: C_6  and  O_7
REMARK    7  A    between atoms: C_6  and  C_8
REMARK    8  A    between atoms: C_8  and  C_9
REMARK    9  A    between atoms: C_9  and  C_10
REMARK   10  A    between atoms: C_10  and  C_11
REMARK   11  A    between atoms: C_12  and  C_13
REMARK   12  A    between atoms: C_13  and  C_14
REMARK   13  A    between atoms: C_14  and  C_15
REMARK   14  A    between atoms: C_15  and  C_16
REMARK   15  A    between atoms: C_22  and  C_23
REMARK   16  A    between atoms: C_24  and  C_25
REMARK   17  A    between atoms: C_25  and  O_27
REMARK   18  A    between atoms: C_28  and  O_29
REMARK                            x       y       z     vdW  Elec       q    Type
REMARK                         _______ _______ _______ _____ _____    ______ ____
ROOT
ATOM      1  C   UNL     1       0.684  11.739  19.894  0.00  0.00    +0.000 C 
ATOM      2  C   UNL     1       1.909  12.531  19.419  0.00  0.00    +0.000 C 
ATOM      3  C   UNL     1      -0.241  12.673  20.642  0.00  0.00    +0.000 C 
ATOM      4  C   UNL     1      -1.539  12.795  20.358  0.00  0.00    +0.000 C 
ATOM      5  C   UNL     1      -2.080  12.023  19.245  0.00  0.00    +0.000 A 
ATOM      6  C   UNL     1      -1.209  11.268  18.465  0.00  0.00    +0.000 A 
ATOM      7  C   UNL     1      -1.677  10.571  17.353  0.00  0.00    +0.000 A 
ATOM      8  C   UNL     1      -3.037  10.577  16.995  0.00  0.00    +0.000 A 
ATOM      9  C   UNL     1      -3.419   9.778  15.779  0.00  0.00    +0.000 C 
ATOM     10  C   UNL     1      -3.940  11.306  17.803  0.00  0.00    +0.000 A 
ATOM     11  C   UNL     1      -3.447  12.020  18.925  0.00  0.00    +0.000 A 
ATOM     12  O   UNL     1       0.130  11.153  18.699  0.00  0.00    +0.000 OA
ENDROOT
BRANCH  10  13
ATOM     13  C   UNL     1      -5.416  11.319  17.605  0.00  0.00    +0.000 C 
ATOM     14  O   UNL     1      -6.152  10.657  18.324  0.00  0.00    +0.000 OA
BRANCH  13  15
ATOM     15  O   UNL     1      -5.895  12.157  16.669  0.00  0.00    +0.000 OA
ATOM     16  H   UNL     1      -5.456  12.101  15.803  0.00  0.00    +0.000 HD
ENDBRANCH  13  15
ENDBRANCH  10  13
BRANCH  11  17
ATOM     17  O   UNL     1      -4.285  12.742  19.749  0.00  0.00    +0.000 OA
ATOM     18  H   UNL     1      -4.267  13.687  19.479  0.00  0.00    +0.000 HD
ENDBRANCH  11  17
BRANCH   1  19
ATOM     19  C   UNL     1       1.068  10.593  20.858  0.00  0.00    +0.000 C 
BRANCH  19  20
ATOM     20  C   UNL     1       0.422   9.249  20.519  0.00  0.00    +0.000 C 
BRANCH  20  23
ATOM     21  C   UNL     1       2.094   7.716  19.390  0.00  0.00    +0.000 C 
ATOM     22  C   UNL     1       1.927   8.373  18.046  0.00  0.00    +0.000 C 
ATOM     23  C   UNL     1       1.434   8.137  20.486  0.00  0.00    +0.000 C 
BRANCH  21  24
ATOM     24  C   UNL     1       3.027   6.528  19.464  0.00  0.00    +0.000 C 
BRANCH  24  25
ATOM     25  C   UNL     1       3.038   5.705  18.170  0.00  0.00    +0.000 C 
BRANCH  25  26
ATOM     26  C   UNL     1       3.721   4.345  18.381  0.00  0.00    +0.000 C 
BRANCH  26  27
ATOM     27  C   UNL     1       2.766   3.194  18.844  0.00  0.00    +0.000 C 
ATOM     28  C   UNL     1       3.205   1.829  18.285  0.00  0.00    +0.000 C 
ATOM     29  C   UNL     1       1.316   3.450  18.388  0.00  0.00    +0.000 C 
BRANCH  27  31
ATOM     30  C   UNL     1       1.362   3.026  20.836  0.00  0.00    +0.000 C 
ATOM     31  O   UNL     1       2.667   3.120  20.283  0.00  0.00    +0.000 OA
ENDBRANCH  27  31
ENDBRANCH  26  27
BRANCH  26  32
ATOM     32  O   UNL     1       4.804   4.520  19.306  0.00  0.00    +0.000 OA
ATOM     33  H   UNL     1       5.239   5.367  19.112  0.00  0.00    +0.000 HD
ENDBRANCH  26  32
ENDBRANCH  25  26
ENDBRANCH  24  25
ENDBRANCH  21  24
ENDBRANCH  20  23
ENDBRANCH  19  20
ENDBRANCH   1  19
TORSDOF 12
ENDMDL
MODEL 4
REMARK VINA RESULT:      -6.5      2.127      3.754
REMARK  Name = 
REMARK  18 active torsions:
REMARK  status: ('A' for Active; 'I' for Inactive)
REMARK    1  A    between atoms: C_1  and  O_2
REMARK    2  A    between atoms: O_2  and  C_3
REMARK    3  A    between atoms: C_3  and  C_4
REMARK    4  A    between atoms: C_3  and  C_5
REMARK    5  A    between atoms: C_3  and  C_6
REMARK    6  A    between atoms: C_6  and  O_7
REMARK    7  A    between atoms: C_6  and  C_8
REMARK    8  A    between atoms: C_8  and  C_9
REMARK    9  A    between atoms: C_9  and  C_10
REMARK   10  A    between atoms: C_10  and  C_11
REMARK   11  A    between atoms: C_12  and  C_13
REMARK   12  A    between atoms: C_13  and  C_14
REMARK   13  A    between atoms: C_14  and  C_15
REMARK   14  A    between atoms: C_15  and  C_16
REMARK   15  A    between atoms: C_22  and  C_23
REMARK   16  A    between atoms: C_24  and  C_25
REMARK   17  A    between atoms: C_25  and  O_27
REMARK   18  A    between atoms: C_28  and  O_29
REMARK                            x       y       z     vdW  Elec       q    Type
REMARK                         _______ _______ _______ _____ _____    ______ ____
ROOT
ATOM      1  C   UNL     1       2.819   6.384  18.440  0.00  0.00    +0.000 C 
ATOM      2  C   UNL     1       2.215   5.047  17.991  0.00  0.00    +0.000 C 
ATOM      3  C   UNL     1       2.564   7.418  17.367  0.00  0.00    +0.000 C 
ATOM      4  C   UNL     1       2.003   8.604  17.615  0.00  0.00    +0.000 C 
ATOM      5  C   UNL     1       1.577   8.896  18.978  0.00  0.00    +0.000 A 
ATOM      6  C   UNL     1       1.680   7.898  19.943  0.00  0.00    +0.000 A 
ATOM      7  C   UNL     1       1.221   8.117  21.241  0.00  0.00    +0.000 A 
ATOM      8  C   UNL     1       0.669   9.350  21.632  0.00  0.00    +0.000 A 
ATOM      9  C   UNL     1       0.218   9.464  23.062  0.00  0.00    +0.000 C 
ATOM     10  C   UNL     1       0.596  10.386  20.672  0.00  0.00    +0.000 A 
ATOM     11  C   UNL     1       1.056  10.145  19.353  0.00  0.00    +0.000 A 
ATOM     12  O   UNL     1       2.209   6.660  19.717  0.00  0.00    +0.000 OA
ENDROOT
BRANCH  10  13
ATOM     13  C   UNL     1       0.132  11.769  20.970  0.00  0.00    +0.000 C 
ATOM     14  O   UNL     1      -1.002  12.127  20.681  0.00  0.00    +0.000 OA
BRANCH  13  15
ATOM     15  O   UNL     1       0.980  12.562  21.647  0.00  0.00    +0.000 OA
ATOM     16  H   UNL     1       1.923  12.403  21.469  0.00  0.00    +0.000 HD
ENDBRANCH  13  15
ENDBRANCH  10  13
BRANCH  11  17
ATOM     17  O   UNL     1       1.014  11.123  18.380  0.00  0.00    +0.000 OA
ATOM     18  H   UNL     1       0.250  11.716  18.553  0.00  0.00    +0.000 HD
ENDBRANCH  11  17
BRANCH   1  19
ATOM     19  C   UNL     1       4.348   6.294  18.647  0.00  0.00    +0.000 C 
BRANCH  19  20
ATOM     20  C   UNL     1       5.159   6.381  17.353  0.00  0.00    +0.000 C 
BRANCH  20  23
ATOM     21  C   UNL     1       7.474   7.002  18.173  0.00  0.00    +0.000 C 
ATOM     22  C   UNL     1       7.700   5.665  18.827  0.00  0.00    +0.000 C 
ATOM     23  C   UNL     1       6.345   7.293  17.499  0.00  0.00    +0.000 C 
BRANCH  21  24
ATOM     24  C   UNL     1       8.567   8.035  18.324  0.00  0.00    +0.000 C 
BRANCH  24  25
ATOM     25  C   UNL     1       8.088   9.454  17.998  0.00  0.00    +0.000 C 
BRANCH  25  26
ATOM     26  C   UNL     1       8.659  10.477  18.993  0.00  0.00    +0.000 C 
BRANCH  26  27
ATOM     27  C   UNL     1       9.258  11.767  18.339  0.00  0.00    +0.000 C 
ATOM     28  C   UNL     1       9.641  12.818  19.396  0.00  0.00    +0.000 C 
ATOM     29  C   UNL     1       8.259  12.418  17.363  0.00  0.00    +0.000 C 
BRANCH  27  31
ATOM     30  C   UNL     1      11.444  12.439  17.478  0.00  0.00    +0.000 C 
ATOM     31  O   UNL     1      10.405  11.470  17.511  0.00  0.00    +0.000 OA
ENDBRANCH  27  31
ENDBRANCH  26  27
BRANCH  26  32
ATOM     32  O   UNL     1       9.632   9.816  19.815  0.00  0.00    +0.000 OA
ATOM     33  H   UNL     1      10.463   9.754  19.315  0.00  0.00    +0.000 HD
ENDBRANCH  26  32
ENDBRANCH  25  26
ENDBRANCH  24  25
ENDBRANCH  21  24
ENDBRANCH  20  23
ENDBRANCH  19  20
ENDBRANCH   1  19
TORSDOF 12
ENDMDL
MODEL 5
REMARK VINA RESULT:      -6.5      2.157      3.701
REMARK  Name = 
REMARK  18 active torsions:
REMARK  status: ('A' for Active; 'I' for Inactive)
REMARK    1  A    between atoms: C_1  and  O_2
REMARK    2  A    between atoms: O_2  and  C_3
REMARK    3  A    between atoms: C_3  and  C_4
REMARK    4  A    between atoms: C_3  and  C_5
REMARK    5  A    between atoms: C_3  and  C_6
REMARK    6  A    between atoms: C_6  and  O_7
REMARK    7  A    between atoms: C_6  and  C_8
REMARK    8  A    between atoms: C_8  and  C_9
REMARK    9  A    between atoms: C_9  and  C_10
REMARK   10  A    between atoms: C_10  and  C_11
REMARK   11  A    between atoms: C_12  and  C_13
REMARK   12  A    between atoms: C_13  and  C_14
REMARK   13  A    between atoms: C_14  and  C_15
REMARK   14  A    between atoms: C_15  and  C_16
REMARK   15  A    between atoms: C_22  and  C_23
REMARK   16  A    between atoms: C_24  and  C_25
REMARK   17  A    between atoms: C_25  and  O_27
REMARK   18  A    between atoms: C_28  and  O_29
REMARK                            x       y       z     vdW  Elec       q    Type
REMARK                         _______ _______ _______ _____ _____    ______ ____
ROOT
ATOM      1  C   UNL     1       3.451   5.037  18.972  0.00  0.00    +0.000 C 
ATOM      2  C   UNL     1       2.863   3.650  18.680  0.00  0.00    +0.000 C 
ATOM      3  C   UNL     1       3.548   5.808  17.675  0.00  0.00    +0.000 C 
ATOM      4  C   UNL     1       3.045   7.034  17.516  0.00  0.00    +0.000 C 
ATOM      5  C   UNL     1       2.330   7.639  18.633  0.00  0.00    +0.000 A 
ATOM      6  C   UNL     1       2.116   6.883  19.782  0.00  0.00    +0.000 A 
ATOM      7  C   UNL     1       1.379   7.403  20.845  0.00  0.00    +0.000 A 
ATOM      8  C   UNL     1       0.854   8.707  20.812  0.00  0.00    +0.000 A 
ATOM      9  C   UNL     1       0.085   9.155  22.025  0.00  0.00    +0.000 C 
ATOM     10  C   UNL     1       1.101   9.501  19.668  0.00  0.00    +0.000 A 
ATOM     11  C   UNL     1       1.842   8.954  18.590  0.00  0.00    +0.000 A 
ATOM     12  O   UNL     1       2.578   5.612  19.965  0.00  0.00    +0.000 OA
ENDROOT
BRANCH  10  13
ATOM     13  C   UNL     1       0.696  10.928  19.538  0.00  0.00    +0.000 C 
ATOM     14  O   UNL     1       1.416  11.826  19.954  0.00  0.00    +0.000 OA
BRANCH  13  15
ATOM     15  O   UNL     1      -0.442  11.178  18.866  0.00  0.00    +0.000 OA
ATOM     16  H   UNL     1      -0.334  11.700  18.054  0.00  0.00    +0.000 HD
ENDBRANCH  13  15
ENDBRANCH  10  13
BRANCH  11  17
ATOM     17  O   UNL     1       2.116   9.687  17.454  0.00  0.00    +0.000 OA
ATOM     18  H   UNL     1       1.439   9.486  16.770  0.00  0.00    +0.000 HD
ENDBRANCH  11  17
BRANCH   1  19
ATOM     19  C   UNL     1       4.872   4.953  19.573  0.00  0.00    +0.000 C 
BRANCH  19  20
ATOM     20  C   UNL     1       5.994   5.045  18.536  0.00  0.00    +0.000 C 
BRANCH  20  23
ATOM     21  C   UNL     1       7.544   6.960  17.947  0.00  0.00    +0.000 C 
ATOM     22  C   UNL     1       7.245   6.869  16.474  0.00  0.00    +0.000 C 
ATOM     23  C   UNL     1       6.957   6.155  18.853  0.00  0.00    +0.000 C 
BRANCH  21  24
ATOM     24  C   UNL     1       8.564   7.988  18.380  0.00  0.00    +0.000 C 
BRANCH  24  25
ATOM     25  C   UNL     1       8.204   9.406  17.921  0.00  0.00    +0.000 C 
BRANCH  25  26
ATOM     26  C   UNL     1       8.629  10.453  18.962  0.00  0.00    +0.000 C 
BRANCH  26  27
ATOM     27  C   UNL     1       9.180  11.791  18.363  0.00  0.00    +0.000 C 
ATOM     28  C   UNL     1       8.195  12.415  17.359  0.00  0.00    +0.000 C 
ATOM     29  C   UNL     1      10.522  11.572  17.640  0.00  0.00    +0.000 C 
BRANCH  27  31
ATOM     30  C   UNL     1       8.564  13.804  19.604  0.00  0.00    +0.000 C 
ATOM     31  O   UNL     1       9.497  12.753  19.394  0.00  0.00    +0.000 OA
ENDBRANCH  27  31
ENDBRANCH  26  27
BRANCH  26  32
ATOM     32  O   UNL     1       9.585   9.852  19.847  0.00  0.00    +0.000 OA
ATOM     33  H   UNL     1       9.181   9.775  20.727  0.00  0.00    +0.000 HD
ENDBRANCH  26  32
ENDBRANCH  25  26
ENDBRANCH  24  25
ENDBRANCH  21  24
ENDBRANCH  20  23
ENDBRANCH  19  20
ENDBRANCH   1  19
TORSDOF 12
ENDMDL
MODEL 6
REMARK VINA RESULT:      -6.5      2.407      4.029
REMARK  Name = 
REMARK  18 active torsions:
REMARK  status: ('A' for Active; 'I' for Inactive)
REMARK    1  A    between atoms: C_1  and  O_2
REMARK    2  A    between atoms: O_2  and  C_3
REMARK    3  A    between atoms: C_3  and  C_4
REMARK    4  A    between atoms: C_3  and  C_5
REMARK    5  A    between atoms: C_3  and  C_6
REMARK    6  A    between atoms: C_6  and  O_7
REMARK    7  A    between atoms: C_6  and  C_8
REMARK    8  A    between atoms: C_8  and  C_9
REMARK    9  A    between atoms: C_9  and  C_10
REMARK   10  A    between atoms: C_10  and  C_11
REMARK   11  A    between atoms: C_12  and  C_13
REMARK   12  A    between atoms: C_13  and  C_14
REMARK   13  A    between atoms: C_14  and  C_15
REMARK   14  A    between atoms: C_15  and  C_16
REMARK   15  A    between atoms: C_22  and  C_23
REMARK   16  A    between atoms: C_24  and  C_25
REMARK   17  A    between atoms: C_25  and  O_27
REMARK   18  A    between atoms: C_28  and  O_29
REMARK                            x       y       z     vdW  Elec       q    Type
REMARK                         _______ _______ _______ _____ _____    ______ ____
ROOT
ATOM      1  C   UNL     1       3.034   6.166  18.554  0.00  0.00    +0.000 C 
ATOM      2  C   UNL     1       2.446   4.819  18.112  0.00  0.00    +0.000 C 
ATOM      3  C   UNL     1       2.856   7.166  17.433  0.00  0.00    +0.000 C 
ATOM      4  C   UNL     1       2.293   8.363  17.607  0.00  0.00    +0.000 C 
ATOM      5  C   UNL     1       1.786   8.704  18.932  0.00  0.00    +0.000 A 
ATOM      6  C   UNL     1       1.820   7.738  19.932  0.00  0.00    +0.000 A 
ATOM      7  C   UNL     1       1.284   8.003  21.192  0.00  0.00    +0.000 A 
ATOM      8  C   UNL     1       0.721   9.253  21.507  0.00  0.00    +0.000 A 
ATOM      9  C   UNL     1       0.184   9.418  22.902  0.00  0.00    +0.000 C 
ATOM     10  C   UNL     1       0.718  10.257  20.512  0.00  0.00    +0.000 A 
ATOM     11  C   UNL     1       1.256   9.969  19.232  0.00  0.00    +0.000 A 
ATOM     12  O   UNL     1       2.349   6.489  19.780  0.00  0.00    +0.000 OA
ENDROOT
BRANCH  10  13
ATOM     13  C   UNL     1       0.250  11.653  20.735  0.00  0.00    +0.000 C 
ATOM     14  O   UNL     1       0.910  12.439  21.401  0.00  0.00    +0.000 OA
BRANCH  13  15
ATOM     15  O   UNL     1      -0.873  12.026  20.096  0.00  0.00    +0.000 OA
ATOM     16  H   UNL     1      -1.690  11.942  20.617  0.00  0.00    +0.000 HD
ENDBRANCH  13  15
ENDBRANCH  10  13
BRANCH  11  17
ATOM     17  O   UNL     1       1.284  10.914  18.227  0.00  0.00    +0.000 OA
ATOM     18  H   UNL     1       2.196  10.976  17.869  0.00  0.00    +0.000 HD
ENDBRANCH  11  17
BRANCH   1  19
ATOM     19  C   UNL     1       4.546   6.070  18.858  0.00  0.00    +0.000 C 
BRANCH  19  20
ATOM     20  C   UNL     1       5.434   6.061  17.612  0.00  0.00    +0.000 C 
BRANCH  20  23
ATOM     21  C   UNL     1       7.365   7.662  17.963  0.00  0.00    +0.000 C 
ATOM     22  C   UNL     1       8.164   6.667  18.764  0.00  0.00    +0.000 C 
ATOM     23  C   UNL     1       6.162   7.364  17.437  0.00  0.00    +0.000 C 
BRANCH  21  24
ATOM     24  C   UNL     1       7.961   9.040  17.789  0.00  0.00    +0.000 C 
BRANCH  24  25
ATOM     25  C   UNL     1       9.142   9.296  18.733  0.00  0.00    +0.000 C 
BRANCH  25  26
ATOM     26  C   UNL     1       8.979  10.630  19.479  0.00  0.00    +0.000 C 
BRANCH  26  27
ATOM     27  C   UNL     1       9.761  11.834  18.855  0.00  0.00    +0.000 C 
ATOM     28  C   UNL     1       8.811  12.869  18.229  0.00  0.00    +0.000 C 
ATOM     29  C   UNL     1      10.738  11.361  17.760  0.00  0.00    +0.000 C 
BRANCH  27  31
ATOM     30  C   UNL     1      11.181  13.731  19.450  0.00  0.00    +0.000 C 
ATOM     31  O   UNL     1      10.616  12.482  19.823  0.00  0.00    +0.000 OA
ENDBRANCH  27  31
ENDBRANCH  26  27
BRANCH  26  32
ATOM     32  O   UNL     1       9.348  10.430  20.851  0.00  0.00    +0.000 OA
ATOM     33  H   UNL     1      10.206  10.862  21.003  0.00  0.00    +0.000 HD
ENDBRANCH  26  32
ENDBRANCH  25  26
ENDBRANCH  24  25
ENDBRANCH  21  24
ENDBRANCH  20  23
ENDBRANCH  19  20
ENDBRANCH   1  19
TORSDOF 12
ENDMDL
MODEL 7
REMARK VINA RESULT:      -6.5      1.826      7.684
REMARK  Name = 
REMARK  18 active torsions:
REMARK  status: ('A' for Active; 'I' for Inactive)
REMARK    1  A    between atoms: C_1  and  O_2
REMARK    2  A    between atoms: O_2  and  C_3
REMARK    3  A    between atoms: C_3  and  C_4
REMARK    4  A    between atoms: C_3  and  C_5
REMARK    5  A    between atoms: C_3  and  C_6
REMARK    6  A    between atoms: C_6  and  O_7
REMARK    7  A    between atoms: C_6  and  C_8
REMARK    8  A    between atoms: C_8  and  C_9
REMARK    9  A    between atoms: C_9  and  C_10
REMARK   10  A    between atoms: C_10  and  C_11
REMARK   11  A    between atoms: C_12  and  C_13
REMARK   12  A    between atoms: C_13  and  C_14
REMARK   13  A    between atoms: C_14  and  C_15
REMARK   14  A    between atoms: C_15  and  C_16
REMARK   15  A    between atoms: C_22  and  C_23
REMARK   16  A    between atoms: C_24  and  C_25
REMARK   17  A    between atoms: C_25  and  O_27
REMARK   18  A    between atoms: C_28  and  O_29
REMARK                            x       y       z     vdW  Elec       q    Type
REMARK                         _______ _______ _______ _____ _____    ______ ____
ROOT
ATOM      1  C   UNL     1       1.683   4.156  19.873  0.00  0.00    +0.000 C 
ATOM      2  C   UNL     1       0.799   2.930  20.139  0.00  0.00    +0.000 C 
ATOM      3  C   UNL     1       2.845   4.138  20.842  0.00  0.00    +0.000 C 
ATOM      4  C   UNL     1       4.118   4.245  20.456  0.00  0.00    +0.000 C 
ATOM      5  C   UNL     1       4.402   4.338  19.029  0.00  0.00    +0.000 A 
ATOM      6  C   UNL     1       3.352   4.216  18.125  0.00  0.00    +0.000 A 
ATOM      7  C   UNL     1       3.593   4.233  16.752  0.00  0.00    +0.000 A 
ATOM      8  C   UNL     1       4.888   4.403  16.231  0.00  0.00    +0.000 A 
ATOM      9  C   UNL     1       5.017   4.412  14.732  0.00  0.00    +0.000 C 
ATOM     10  C   UNL     1       5.959   4.570  17.138  0.00  0.00    +0.000 A 
ATOM     11  C   UNL     1       5.700   4.539  18.532  0.00  0.00    +0.000 A 
ATOM     12  O   UNL     1       2.044   4.063  18.481  0.00  0.00    +0.000 OA
ENDROOT
BRANCH  10  13
ATOM     13  C   UNL     1       7.362   4.860  16.731  0.00  0.00    +0.000 C 
ATOM     14  O   UNL     1       7.629   5.840  16.049  0.00  0.00    +0.000 OA
BRANCH  13  15
ATOM     15  O   UNL     1       8.317   4.051  17.223  0.00  0.00    +0.000 OA
ATOM     16  H   UNL     1       9.044   4.504  17.683  0.00  0.00    +0.000 HD
ENDBRANCH  13  15
ENDBRANCH  10  13
BRANCH  11  17
ATOM     17  O   UNL     1       6.708   4.703  19.460  0.00  0.00    +0.000 OA
ATOM     18  H   UNL     1       7.006   3.820  19.772  0.00  0.00    +0.000 HD
ENDBRANCH  11  17
BRANCH   1  19
ATOM     19  C   UNL     1       0.920   5.483  20.086  0.00  0.00    +0.000 C 
BRANCH  19  20
ATOM     20  C   UNL     1       1.809   6.655  20.505  0.00  0.00    +0.000 C 
BRANCH  20  23
ATOM     21  C   UNL     1       1.996   8.377  18.657  0.00  0.00    +0.000 C 
ATOM     22  C   UNL     1       3.062   7.608  17.922  0.00  0.00    +0.000 C 
ATOM     23  C   UNL     1       1.432   7.923  19.793  0.00  0.00    +0.000 C 
BRANCH  21  24
ATOM     24  C   UNL     1       1.591   9.714  18.079  0.00  0.00    +0.000 C 
BRANCH  24  25
ATOM     25  C   UNL     1       0.186  10.146  18.516  0.00  0.00    +0.000 C 
BRANCH  25  26
ATOM     26  C   UNL     1       0.193  11.577  19.077  0.00  0.00    +0.000 C 
BRANCH  26  27
ATOM     27  C   UNL     1      -0.581  11.758  20.426  0.00  0.00    +0.000 C 
ATOM     28  C   UNL     1      -2.018  12.258  20.198  0.00  0.00    +0.000 C 
ATOM     29  C   UNL     1       0.132  12.765  21.350  0.00  0.00    +0.000 C 
BRANCH  27  31
ATOM     30  C   UNL     1      -0.754  10.671  22.607  0.00  0.00    +0.000 C 
ATOM     31  O   UNL     1      -0.608  10.539  21.200  0.00  0.00    +0.000 OA
ENDBRANCH  27  31
ENDBRANCH  26  27
BRANCH  26  32
ATOM     32  O   UNL     1      -0.314  12.462  18.068  0.00  0.00    +0.000 OA
ATOM     33  H   UNL     1      -0.088  13.373  18.319  0.00  0.00    +0.000 HD
ENDBRANCH  26  32
ENDBRANCH  25  26
ENDBRANCH  24  25
ENDBRANCH  21  24
ENDBRANCH  20  23
ENDBRANCH  19  20
ENDBRANCH   1  19
TORSDOF 12
ENDMDL
MODEL 8
REMARK VINA RESULT:      -6.5      2.505      4.142
REMARK  Name = 
REMARK  18 active torsions:
REMARK  status: ('A' for Active; 'I' for Inactive)
REMARK    1  A    between atoms: C_1  and  O_2
REMARK    2  A    between atoms: O_2  and  C_3
REMARK    3  A    between atoms: C_3  and  C_4
REMARK    4  A    between atoms: C_3  and  C_5
REMARK    5  A    between atoms: C_3  and  C_6
REMARK    6  A    between atoms: C_6  and  O_7
REMARK    7  A    between atoms: C_6  and  C_8
REMARK    8  A    between atoms: C_8  and  C_9
REMARK    9  A    between atoms: C_9  and  C_10
REMARK   10  A    between atoms: C_10  and  C_11
REMARK   11  A    between atoms: C_12  and  C_13
REMARK   12  A    between atoms: C_13  and  C_14
REMARK   13  A    between atoms: C_14  and  C_15
REMARK   14  A    between atoms: C_15  and  C_16
REMARK   15  A    between atoms: C_22  and  C_23
REMARK   16  A    between atoms: C_24  and  C_25
REMARK   17  A    between atoms: C_25  and  O_27
REMARK   18  A    between atoms: C_28  and  O_29
REMARK                            x       y       z     vdW  Elec       q    Type
REMARK                         _______ _______ _______ _____ _____    ______ ____
ROOT
ATOM      1  C   UNL     1       3.959   5.361  18.413  0.00  0.00    +0.000 C 
ATOM      2  C   UNL     1       3.522   3.929  18.075  0.00  0.00    +0.000 C 
ATOM      3  C   UNL     1       3.846   6.212  17.168  0.00  0.00    +0.000 C 
ATOM      4  C   UNL     1       3.185   7.370  17.134  0.00  0.00    +0.000 C 
ATOM      5  C   UNL     1       2.502   7.813  18.344  0.00  0.00    +0.000 A 
ATOM      6  C   UNL     1       2.484   6.971  19.451  0.00  0.00    +0.000 A 
ATOM      7  C   UNL     1       1.785   7.330  20.603  0.00  0.00    +0.000 A 
ATOM      8  C   UNL     1       1.104   8.556  20.702  0.00  0.00    +0.000 A 
ATOM      9  C   UNL     1       0.395   8.831  22.000  0.00  0.00    +0.000 C 
ATOM     10  C   UNL     1       1.149   9.440  19.599  0.00  0.00    +0.000 A 
ATOM     11  C   UNL     1       1.854   9.056  18.430  0.00  0.00    +0.000 A 
ATOM     12  O   UNL     1       3.112   5.761  19.509  0.00  0.00    +0.000 OA
ENDROOT
BRANCH  10  13
ATOM     13  C   UNL     1       0.562  10.809  19.600  0.00  0.00    +0.000 C 
ATOM     14  O   UNL     1      -0.392  11.083  18.885  0.00  0.00    +0.000 OA
BRANCH  13  15
ATOM     15  O   UNL     1       1.070  11.686  20.482  0.00  0.00    +0.000 OA
ATOM     16  H   UNL     1       0.443  12.005  21.153  0.00  0.00    +0.000 HD
ENDBRANCH  13  15
ENDBRANCH  10  13
BRANCH  11  17
ATOM     17  O   UNL     1       1.935   9.882  17.328  0.00  0.00    +0.000 OA
ATOM     18  H   UNL     1       2.823  10.304  17.306  0.00  0.00    +0.000 HD
ENDBRANCH  11  17
BRANCH   1  19
ATOM     19  C   UNL     1       5.427   5.425  18.891  0.00  0.00    +0.000 C 
BRANCH  19  20
ATOM     20  C   UNL     1       6.454   5.397  17.757  0.00  0.00    +0.000 C 
BRANCH  20  23
ATOM     21  C   UNL     1       7.799   7.526  18.024  0.00  0.00    +0.000 C 
ATOM     22  C   UNL     1       8.542   7.014  19.229  0.00  0.00    +0.000 C 
ATOM     23  C   UNL     1       6.891   6.781  17.366  0.00  0.00    +0.000 C 
BRANCH  21  24
ATOM     24  C   UNL     1       8.095   8.942  17.584  0.00  0.00    +0.000 C 
BRANCH  24  25
ATOM     25  C   UNL     1       8.697   9.795  18.707  0.00  0.00    +0.000 C 
BRANCH  25  26
ATOM     26  C   UNL     1       9.379  11.053  18.146  0.00  0.00    +0.000 C 
BRANCH  26  27
ATOM     27  C   UNL     1      10.347  11.777  19.141  0.00  0.00    +0.000 C 
ATOM     28  C   UNL     1      11.823  11.495  18.809  0.00  0.00    +0.000 C 
ATOM     29  C   UNL     1      10.093  11.331  20.595  0.00  0.00    +0.000 C 
BRANCH  27  31
ATOM     30  C   UNL     1      10.169  13.835  20.445  0.00  0.00    +0.000 C 
ATOM     31  O   UNL     1      10.120  13.203  19.174  0.00  0.00    +0.000 OA
ENDBRANCH  27  31
ENDBRANCH  26  27
BRANCH  26  32
ATOM     32  O   UNL     1       8.362  11.948  17.673  0.00  0.00    +0.000 OA
ATOM     33  H   UNL     1       8.764  12.822  17.535  0.00  0.00    +0.000 HD
ENDBRANCH  26  32
ENDBRANCH  25  26
ENDBRANCH  24  25
ENDBRANCH  21  24
ENDBRANCH  20  23
ENDBRANCH  19  20
ENDBRANCH   1  19
TORSDOF 12
ENDMDL
MODEL 9
REMARK VINA RESULT:      -6.5      3.702      7.228
REMARK  Name = 
REMARK  18 active torsions:
REMARK  status: ('A' for Active; 'I' for Inactive)
REMARK    1  A    between atoms: C_1  and  O_2
REMARK    2  A    between atoms: O_2  and  C_3
REMARK    3  A    between atoms: C_3  and  C_4
REMARK    4  A    between atoms: C_3  and  C_5
REMARK    5  A    between atoms: C_3  and  C_6
REMARK    6  A    between atoms: C_6  and  O_7
REMARK    7  A    between atoms: C_6  and  C_8
REMARK    8  A    between atoms: C_8  and  C_9
REMARK    9  A    between atoms: C_9  and  C_10
REMARK   10  A    between atoms: C_10  and  C_11
REMARK   11  A    between atoms: C_12  and  C_13
REMARK   12  A    between atoms: C_13  and  C_14
REMARK   13  A    between atoms: C_14  and  C_15
REMARK   14  A    between atoms: C_15  and  C_16
REMARK   15  A    between atoms: C_22  and  C_23
REMARK   16  A    between atoms: C_24  and  C_25
REMARK   17  A    between atoms: C_25  and  O_27
REMARK   18  A    between atoms: C_28  and  O_29
REMARK                            x       y       z     vdW  Elec       q    Type
REMARK                         _______ _______ _______ _____ _____    ______ ____
ROOT
ATOM      1  C   UNL     1       6.740   5.775  16.973  0.00  0.00    +0.000 C 
ATOM      2  C   UNL     1       7.280   5.141  15.683  0.00  0.00    +0.000 C 
ATOM      3  C   UNL     1       5.670   6.781  16.610  0.00  0.00    +0.000 C 
ATOM      4  C   UNL     1       4.452   6.778  17.156  0.00  0.00    +0.000 C 
ATOM      5  C   UNL     1       4.125   5.728  18.113  0.00  0.00    +0.000 A 
ATOM      6  C   UNL     1       5.055   4.719  18.347  0.00  0.00    +0.000 A 
ATOM      7  C   UNL     1       4.752   3.662  19.205  0.00  0.00    +0.000 A 
ATOM      8  C   UNL     1       3.522   3.589  19.883  0.00  0.00    +0.000 A 
ATOM      9  C   UNL     1       3.319   2.403  20.786  0.00  0.00    +0.000 C 
ATOM     10  C   UNL     1       2.585   4.629  19.686  0.00  0.00    +0.000 A 
ATOM     11  C   UNL     1       2.902   5.692  18.802  0.00  0.00    +0.000 A 
ATOM     12  O   UNL     1       6.293   4.665  17.777  0.00  0.00    +0.000 OA
ENDROOT
BRANCH  10  13
ATOM     13  C   UNL     1       1.290   4.735  20.413  0.00  0.00    +0.000 C 
ATOM     14  O   UNL     1       0.991   5.755  21.019  0.00  0.00    +0.000 OA
BRANCH  13  15
ATOM     15  O   UNL     1       0.439   3.702  20.291  0.00  0.00    +0.000 OA
ATOM     16  H   UNL     1      -0.385   3.901  19.814  0.00  0.00    +0.000 HD
ENDBRANCH  13  15
ENDBRANCH  10  13
BRANCH  11  17
ATOM     17  O   UNL     1       2.027   6.734  18.579  0.00  0.00    +0.000 OA
ATOM     18  H   UNL     1       1.957   7.277  19.395  0.00  0.00    +0.000 HD
ENDBRANCH  11  17
BRANCH   1  19
ATOM     19  C   UNL     1       7.839   6.526  17.758  0.00  0.00    +0.000 C 
BRANCH  19  20
ATOM     20  C   UNL     1       7.811   8.044  17.573  0.00  0.00    +0.000 C 
BRANCH  20  23
ATOM     21  C   UNL     1       8.878  10.070  18.657  0.00  0.00    +0.000 C 
ATOM     22  C   UNL     1       8.323  11.024  17.633  0.00  0.00    +0.000 C 
ATOM     23  C   UNL     1       8.618   8.749  18.628  0.00  0.00    +0.000 C 
BRANCH  21  24
ATOM     24  C   UNL     1       9.776  10.654  19.724  0.00  0.00    +0.000 C 
BRANCH  24  25
ATOM     25  C   UNL     1      10.465  11.947  19.273  0.00  0.00    +0.000 C 
BRANCH  25  26
ATOM     26  C   UNL     1       9.961  13.156  20.077  0.00  0.00    +0.000 C 
BRANCH  26  27
ATOM     27  C   UNL     1      10.775  14.476  19.862  0.00  0.00    +0.000 C 
ATOM     28  C   UNL     1      12.232  14.189  19.459  0.00  0.00    +0.000 C 
ATOM     29  C   UNL     1      10.796  15.337  21.139  0.00  0.00    +0.000 C 
BRANCH  27  31
ATOM     30  C   UNL     1      10.586  15.182  17.530  0.00  0.00    +0.000 C 
ATOM     31  O   UNL     1      10.159  15.335  18.877  0.00  0.00    +0.000 OA
ENDBRANCH  27  31
ENDBRANCH  26  27
BRANCH  26  32
ATOM     32  O   UNL     1       9.923  12.794  21.465  0.00  0.00    +0.000 OA
ATOM     33  H   UNL     1       9.406  13.465  21.942  0.00  0.00    +0.000 HD
ENDBRANCH  26  32
ENDBRANCH  25  26
ENDBRANCH  24  25
ENDBRANCH  21  24
ENDBRANCH  20  23
ENDBRANCH  19  20
ENDBRANCH   1  19
TORSDOF 12
ENDMDL
