MODEL 1
REMARK VINA RESULT:      -8.1      0.000      0.000
REMARK  Name = 
REMARK  5 active torsions:
REMARK  status: ('A' for Active; 'I' for Inactive)
REMARK    1  A    between atoms: C_1  and  C_2
REMARK    2  A    between atoms: N_5  and  C_6
REMARK    3  A    between atoms: C_6  and  C_7
REMARK    4  A    between atoms: C_10  and  C_11
REMARK    5  A    between atoms: C_14  and  C_15
REMARK                            x       y       z     vdW  Elec       q    Type
REMARK                         _______ _______ _______ _____ _____    ______ ____
ROOT
ATOM      1  C   UNL     1       3.196   7.272  17.803  0.00  0.00    +0.000 C 
ATOM      2  C   UNL     1       3.725   5.874  17.723  0.00  0.00    +0.000 A 
ATOM      3  N   UNL     1       4.821   5.633  16.974  0.00  0.00    +0.000 NA
ATOM      4  C   UNL     1       5.246   4.358  16.904  0.00  0.00    +0.000 A 
ATOM      5  N   UNL     1       6.451   4.023  16.270  0.00  0.00    +0.000 N 
ATOM      6  C   UNL     1       4.588   3.338  17.577  0.00  0.00    +0.000 A 
ATOM      7  C   UNL     1       3.491   3.670  18.345  0.00  0.00    +0.000 A 
ATOM      8  N   UNL     1       3.047   4.941  18.414  0.00  0.00    +0.000 NA
ATOM      9  H   UNL     1       6.382   3.139  15.778  0.00  0.00    +0.000 HD
ENDROOT
BRANCH   7  10
ATOM     10  C   UNL     1       2.764   2.666  19.216  0.00  0.00    +0.000 C 
ATOM     11  C   UNL     1       1.235   2.737  19.029  0.00  0.00    +0.000 C 
ATOM     12  C   UNL     1       0.466   3.326  20.205  0.00  0.00    +0.000 C 
ATOM     13  N   UNL     1       0.916   2.756  21.470  0.00  0.00    +0.000 NA
ATOM     14  C   UNL     1       2.292   3.172  21.719  0.00  0.00    +0.000 C 
ATOM     15  C   UNL     1       3.259   2.619  20.677  0.00  0.00    +0.000 C 
ATOM     16  H   UNL     1       0.858   1.742  21.437  0.00  0.00    +0.000 HD
ENDBRANCH   7  10
BRANCH   5  17
ATOM     17  C   UNL     1       7.089   5.020  15.414  0.00  0.00    +0.000 C 
BRANCH  17  18
ATOM     18  C   UNL     1       7.030   4.648  13.959  0.00  0.00    +0.000 A 
ATOM     19  C   UNL     1       7.698   5.116  12.845  0.00  0.00    +0.000 A 
ATOM     20  C   UNL     1       7.266   4.342  11.750  0.00  0.00    +0.000 A 
ATOM     21  C   UNL     1       6.325   3.463  12.240  0.00  0.00    +0.000 A 
ATOM     22  C   UNL     1       5.485   2.436  11.584  0.00  0.00    +0.000 C 
ATOM     23  O   UNL     1       6.179   3.635  13.590  0.00  0.00    +0.000 OA
ENDBRANCH  17  18
ENDBRANCH   5  17
TORSDOF 3
ENDMDL
MODEL 2
REMARK VINA RESULT:      -7.9      3.361      4.760
REMARK  Name = 
REMARK  5 active torsions:
REMARK  status: ('A' for Active; 'I' for Inactive)
REMARK    1  A    between atoms: C_1  and  C_2
REMARK    2  A    between atoms: N_5  and  C_6
REMARK    3  A    between atoms: C_6  and  C_7
REMARK    4  A    between atoms: C_10  and  C_11
REMARK    5  A    between atoms: C_14  and  C_15
REMARK                            x       y       z     vdW  Elec       q    Type
REMARK                         _______ _______ _______ _____ _____    ______ ____
ROOT
ATOM      1  C   UNL     1       5.566   4.233  14.785  0.00  0.00    +0.000 C 
ATOM      2  C   UNL     1       5.266   4.251  16.251  0.00  0.00    +0.000 A 
ATOM      3  N   UNL     1       6.188   4.749  17.099  0.00  0.00    +0.000 NA
ATOM      4  C   UNL     1       5.891   4.718  18.412  0.00  0.00    +0.000 A 
ATOM      5  N   UNL     1       6.718   5.335  19.363  0.00  0.00    +0.000 N 
ATOM      6  C   UNL     1       4.688   4.201  18.870  0.00  0.00    +0.000 A 
ATOM      7  C   UNL     1       3.785   3.736  17.936  0.00  0.00    +0.000 A 
ATOM      8  N   UNL     1       4.073   3.750  16.620  0.00  0.00    +0.000 NA
ATOM      9  H   UNL     1       6.763   4.801  20.223  0.00  0.00    +0.000 HD
ENDROOT
BRANCH   7  10
ATOM     10  C   UNL     1       2.394   3.260  18.304  0.00  0.00    +0.000 C 
ATOM     11  C   UNL     1       1.470   4.427  18.704  0.00  0.00    +0.000 C 
ATOM     12  C   UNL     1       1.124   4.498  20.187  0.00  0.00    +0.000 C 
ATOM     13  N   UNL     1       0.740   3.190  20.704  0.00  0.00    +0.000 NA
ATOM     14  C   UNL     1       1.897   2.303  20.666  0.00  0.00    +0.000 C 
ATOM     15  C   UNL     1       2.372   2.035  19.241  0.00  0.00    +0.000 C 
ATOM     16  H   UNL     1      -0.017   2.803  20.147  0.00  0.00    +0.000 HD
ENDBRANCH   7  10
BRANCH   5  17
ATOM     17  C   UNL     1       8.061   5.743  18.959  0.00  0.00    +0.000 C 
BRANCH  17  18
ATOM     18  C   UNL     1       8.112   7.175  18.506  0.00  0.00    +0.000 A 
ATOM     19  C   UNL     1       7.548   7.839  17.435  0.00  0.00    +0.000 A 
ATOM     20  C   UNL     1       7.904   9.197  17.559  0.00  0.00    +0.000 A 
ATOM     21  C   UNL     1       8.701   9.291  18.679  0.00  0.00    +0.000 A 
ATOM     22  C   UNL     1       9.412  10.431  19.301  0.00  0.00    +0.000 C 
ATOM     23  O   UNL     1       8.828   8.064  19.270  0.00  0.00    +0.000 OA
ENDBRANCH  17  18
ENDBRANCH   5  17
TORSDOF 3
ENDMDL
MODEL 3
REMARK VINA RESULT:      -7.8      1.649      2.164
REMARK  Name = 
REMARK  5 active torsions:
REMARK  status: ('A' for Active; 'I' for Inactive)
REMARK    1  A    between atoms: C_1  and  C_2
REMARK    2  A    between atoms: N_5  and  C_6
REMARK    3  A    between atoms: C_6  and  C_7
REMARK    4  A    between atoms: C_10  and  C_11
REMARK    5  A    between atoms: C_14  and  C_15
REMARK                            x       y       z     vdW  Elec       q    Type
REMARK                         _______ _______ _______ _____ _____    ______ ____
ROOT
ATOM      1  C   UNL     1       7.788   5.800  19.225  0.00  0.00    +0.000 C 
ATOM      2  C   UNL     1       6.560   5.123  18.702  0.00  0.00    +0.000 A 
ATOM      3  N   UNL     1       6.458   4.893  17.377  0.00  0.00    +0.000 NA
ATOM      4  C   UNL     1       5.324   4.310  16.944  0.00  0.00    +0.000 A 
ATOM      5  N   UNL     1       5.176   3.901  15.610  0.00  0.00    +0.000 N 
ATOM      6  C   UNL     1       4.310   3.958  17.823  0.00  0.00    +0.000 A 
ATOM      7  C   UNL     1       4.503   4.201  19.167  0.00  0.00    +0.000 A 
ATOM      8  N   UNL     1       5.628   4.795  19.613  0.00  0.00    +0.000 NA
ATOM      9  H   UNL     1       4.229   4.046  15.277  0.00  0.00    +0.000 HD
ENDROOT
BRANCH   7  10
ATOM     10  C   UNL     1       3.523   3.755  20.232  0.00  0.00    +0.000 C 
ATOM     11  C   UNL     1       2.952   2.352  19.942  0.00  0.00    +0.000 C 
ATOM     12  C   UNL     1       1.489   2.325  19.516  0.00  0.00    +0.000 C 
ATOM     13  N   UNL     1       0.671   3.167  20.380  0.00  0.00    +0.000 NA
ATOM     14  C   UNL     1       1.055   4.562  20.192  0.00  0.00    +0.000 C 
ATOM     15  C   UNL     1       2.491   4.829  20.633  0.00  0.00    +0.000 C 
ATOM     16  H   UNL     1       0.797   2.898  21.352  0.00  0.00    +0.000 HD
ENDBRANCH   7  10
BRANCH   5  17
ATOM     17  C   UNL     1       6.132   4.391  14.621  0.00  0.00    +0.000 C 
BRANCH  17  18
ATOM     18  C   UNL     1       5.910   3.788  13.262  0.00  0.00    +0.000 A 
ATOM     19  C   UNL     1       6.755   3.168  12.363  0.00  0.00    +0.000 A 
ATOM     20  C   UNL     1       5.965   2.755  11.272  0.00  0.00    +0.000 A 
ATOM     21  C   UNL     1       4.680   3.178  11.539  0.00  0.00    +0.000 A 
ATOM     22  C   UNL     1       3.422   3.086  10.764  0.00  0.00    +0.000 C 
ATOM     23  O   UNL     1       4.634   3.802  12.755  0.00  0.00    +0.000 OA
ENDBRANCH  17  18
ENDBRANCH   5  17
TORSDOF 3
ENDMDL
MODEL 4
REMARK VINA RESULT:      -7.7      1.145      1.551
REMARK  Name = 
REMARK  5 active torsions:
REMARK  status: ('A' for Active; 'I' for Inactive)
REMARK    1  A    between atoms: C_1  and  C_2
REMARK    2  A    between atoms: N_5  and  C_6
REMARK    3  A    between atoms: C_6  and  C_7
REMARK    4  A    between atoms: C_10  and  C_11
REMARK    5  A    between atoms: C_14  and  C_15
REMARK                            x       y       z     vdW  Elec       q    Type
REMARK                         _______ _______ _______ _____ _____    ______ ____
ROOT
ATOM      1  C   UNL     1       4.141   7.630  17.239  0.00  0.00    +0.000 C 
ATOM      2  C   UNL     1       4.318   6.144  17.277  0.00  0.00    +0.000 A 
ATOM      3  N   UNL     1       5.038   5.548  16.306  0.00  0.00    +0.000 NA
ATOM      4  C   UNL     1       5.147   4.207  16.360  0.00  0.00    +0.000 A 
ATOM      5  N   UNL     1       5.986   3.506  15.482  0.00  0.00    +0.000 N 
ATOM      6  C   UNL     1       4.546   3.473  17.374  0.00  0.00    +0.000 A 
ATOM      7  C   UNL     1       3.849   4.160  18.346  0.00  0.00    +0.000 A 
ATOM      8  N   UNL     1       3.723   5.501  18.298  0.00  0.00    +0.000 NA
ATOM      9  H   UNL     1       5.582   2.617  15.208  0.00  0.00    +0.000 HD
ENDROOT
BRANCH   7  10
ATOM     10  C   UNL     1       3.254   3.482  19.563  0.00  0.00    +0.000 C 
ATOM     11  C   UNL     1       2.459   2.215  19.189  0.00  0.00    +0.000 C 
ATOM     12  C   UNL     1       0.947   2.335  19.332  0.00  0.00    +0.000 C 
ATOM     13  N   UNL     1       0.583   2.950  20.602  0.00  0.00    +0.000 NA
ATOM     14  C   UNL     1       1.037   4.336  20.611  0.00  0.00    +0.000 C 
ATOM     15  C   UNL     1       2.557   4.444  20.547  0.00  0.00    +0.000 C 
ATOM     16  H   UNL     1       1.006   2.438  21.372  0.00  0.00    +0.000 HD
ENDBRANCH   7  10
BRANCH   5  17
ATOM     17  C   UNL     1       6.503   4.202  14.307  0.00  0.00    +0.000 C 
BRANCH  17  18
ATOM     18  C   UNL     1       6.065   3.558  13.022  0.00  0.00    +0.000 A 
ATOM     19  C   UNL     1       6.698   2.708  12.136  0.00  0.00    +0.000 A 
ATOM     20  C   UNL     1       5.763   2.390  11.131  0.00  0.00    +0.000 A 
ATOM     21  C   UNL     1       4.615   3.092  11.429  0.00  0.00    +0.000 A 
ATOM     22  C   UNL     1       3.313   3.209  10.736  0.00  0.00    +0.000 C 
ATOM     23  O   UNL     1       4.786   3.802  12.586  0.00  0.00    +0.000 OA
ENDBRANCH  17  18
ENDBRANCH   5  17
TORSDOF 3
ENDMDL
MODEL 5
REMARK VINA RESULT:      -7.7      0.876      1.235
REMARK  Name = 
REMARK  5 active torsions:
REMARK  status: ('A' for Active; 'I' for Inactive)
REMARK    1  A    between atoms: C_1  and  C_2
REMARK    2  A    between atoms: N_5  and  C_6
REMARK    3  A    between atoms: C_6  and  C_7
REMARK    4  A    between atoms: C_10  and  C_11
REMARK    5  A    between atoms: C_14  and  C_15
REMARK                            x       y       z     vdW  Elec       q    Type
REMARK                         _______ _______ _______ _____ _____    ______ ____
ROOT
ATOM      1  C   UNL     1       3.584   8.201  17.435  0.00  0.00    +0.000 C 
ATOM      2  C   UNL     1       3.658   6.706  17.434  0.00  0.00    +0.000 A 
ATOM      3  N   UNL     1       4.733   6.107  16.882  0.00  0.00    +0.000 NA
ATOM      4  C   UNL     1       4.746   4.761  16.874  0.00  0.00    +0.000 A 
ATOM      5  N   UNL     1       5.874   4.043  16.452  0.00  0.00    +0.000 N 
ATOM      6  C   UNL     1       3.700   4.024  17.413  0.00  0.00    +0.000 A 
ATOM      7  C   UNL     1       2.649   4.712  17.985  0.00  0.00    +0.000 A 
ATOM      8  N   UNL     1       2.618   6.059  17.989  0.00  0.00    +0.000 NA
ATOM      9  H   UNL     1       5.617   3.202  15.947  0.00  0.00    +0.000 HD
ENDROOT
BRANCH   7  10
ATOM     10  C   UNL     1       1.512   4.020  18.709  0.00  0.00    +0.000 C 
ATOM     11  C   UNL     1       1.246   4.641  20.095  0.00  0.00    +0.000 C 
ATOM     12  C   UNL     1       1.654   3.775  21.280  0.00  0.00    +0.000 C 
ATOM     13  N   UNL     1       1.199   2.401  21.112  0.00  0.00    +0.000 NA
ATOM     14  C   UNL     1       1.907   1.796  19.989  0.00  0.00    +0.000 C 
ATOM     15  C   UNL     1       1.577   2.480  18.665  0.00  0.00    +0.000 C 
ATOM     16  H   UNL     1       0.197   2.382  20.945  0.00  0.00    +0.000 HD
ENDBRANCH   7  10
BRANCH   5  17
ATOM     17  C   UNL     1       6.923   4.757  15.729  0.00  0.00    +0.000 C 
BRANCH  17  18
ATOM     18  C   UNL     1       6.878   4.495  14.249  0.00  0.00    +0.000 A 
ATOM     19  C   UNL     1       7.612   4.988  13.188  0.00  0.00    +0.000 A 
ATOM     20  C   UNL     1       7.153   4.330  12.029  0.00  0.00    +0.000 A 
ATOM     21  C   UNL     1       6.133   3.495  12.432  0.00  0.00    +0.000 A 
ATOM     22  C   UNL     1       5.237   2.587  11.683  0.00  0.00    +0.000 C 
ATOM     23  O   UNL     1       5.963   3.582  13.787  0.00  0.00    +0.000 OA
ENDBRANCH  17  18
ENDBRANCH   5  17
TORSDOF 3
ENDMDL
MODEL 6
REMARK VINA RESULT:      -7.5      1.365      2.116
REMARK  Name = 
REMARK  5 active torsions:
REMARK  status: ('A' for Active; 'I' for Inactive)
REMARK    1  A    between atoms: C_1  and  C_2
REMARK    2  A    between atoms: N_5  and  C_6
REMARK    3  A    between atoms: C_6  and  C_7
REMARK    4  A    between atoms: C_10  and  C_11
REMARK    5  A    between atoms: C_14  and  C_15
REMARK                            x       y       z     vdW  Elec       q    Type
REMARK                         _______ _______ _______ _____ _____    ______ ____
ROOT
ATOM      1  C   UNL     1       3.543   8.373  17.308  0.00  0.00    +0.000 C 
ATOM      2  C   UNL     1       3.706   6.966  17.792  0.00  0.00    +0.000 A 
ATOM      3  N   UNL     1       4.859   6.316  17.530  0.00  0.00    +0.000 NA
ATOM      4  C   UNL     1       4.953   5.042  17.956  0.00  0.00    +0.000 A 
ATOM      5  N   UNL     1       6.154   4.326  17.857  0.00  0.00    +0.000 N 
ATOM      6  C   UNL     1       3.911   4.429  18.638  0.00  0.00    +0.000 A 
ATOM      7  C   UNL     1       2.776   5.171  18.892  0.00  0.00    +0.000 A 
ATOM      8  N   UNL     1       2.664   6.443  18.461  0.00  0.00    +0.000 NA
ATOM      9  H   UNL     1       5.991   3.350  17.635  0.00  0.00    +0.000 HD
ENDROOT
BRANCH   7  10
ATOM     10  C   UNL     1       1.625   4.651  19.729  0.00  0.00    +0.000 C 
ATOM     11  C   UNL     1       1.947   4.678  21.236  0.00  0.00    +0.000 C 
ATOM     12  C   UNL     1       2.166   3.312  21.875  0.00  0.00    +0.000 C 
ATOM     13  N   UNL     1       1.131   2.368  21.473  0.00  0.00    +0.000 NA
ATOM     14  C   UNL     1       1.255   2.101  20.045  0.00  0.00    +0.000 C 
ATOM     15  C   UNL     1       0.998   3.345  19.201  0.00  0.00    +0.000 C 
ATOM     16  H   UNL     1       0.211   2.750  21.679  0.00  0.00    +0.000 HD
ENDBRANCH   7  10
BRANCH   5  17
ATOM     17  C   UNL     1       7.216   4.860  17.009  0.00  0.00    +0.000 C 
BRANCH  17  18
ATOM     18  C   UNL     1       6.972   4.592  15.550  0.00  0.00    +0.000 A 
ATOM     19  C   UNL     1       6.107   3.746  14.885  0.00  0.00    +0.000 A 
ATOM     20  C   UNL     1       6.290   3.970  13.506  0.00  0.00    +0.000 A 
ATOM     21  C   UNL     1       7.286   4.916  13.393  0.00  0.00    +0.000 A 
ATOM     22  C   UNL     1       7.948   5.528  12.220  0.00  0.00    +0.000 C 
ATOM     23  O   UNL     1       7.703   5.309  14.635  0.00  0.00    +0.000 OA
ENDBRANCH  17  18
ENDBRANCH   5  17
TORSDOF 3
ENDMDL
MODEL 7
REMARK VINA RESULT:      -7.4      3.997      8.193
REMARK  Name = 
REMARK  5 active torsions:
REMARK  status: ('A' for Active; 'I' for Inactive)
REMARK    1  A    between atoms: C_1  and  C_2
REMARK    2  A    between atoms: N_5  and  C_6
REMARK    3  A    between atoms: C_6  and  C_7
REMARK    4  A    between atoms: C_10  and  C_11
REMARK    5  A    between atoms: C_14  and  C_15
REMARK                            x       y       z     vdW  Elec       q    Type
REMARK                         _______ _______ _______ _____ _____    ______ ____
ROOT
ATOM      1  C   UNL     1       1.026   2.427  18.718  0.00  0.00    +0.000 C 
ATOM      2  C   UNL     1       2.014   3.551  18.751  0.00  0.00    +0.000 A 
ATOM      3  N   UNL     1       1.733   4.644  19.489  0.00  0.00    +0.000 NA
ATOM      4  C   UNL     1       2.634   5.645  19.468  0.00  0.00    +0.000 A 
ATOM      5  N   UNL     1       2.505   6.762  20.305  0.00  0.00    +0.000 N 
ATOM      6  C   UNL     1       3.801   5.551  18.722  0.00  0.00    +0.000 A 
ATOM      7  C   UNL     1       4.028   4.388  18.016  0.00  0.00    +0.000 A 
ATOM      8  N   UNL     1       3.130   3.383  18.019  0.00  0.00    +0.000 NA
ATOM      9  H   UNL     1       2.807   7.613  19.844  0.00  0.00    +0.000 HD
ENDROOT
BRANCH   7  10
ATOM     10  C   UNL     1       5.316   4.122  17.264  0.00  0.00    +0.000 C 
ATOM     11  C   UNL     1       6.523   4.826  17.916  0.00  0.00    +0.000 C 
ATOM     12  C   UNL     1       7.081   6.009  17.134  0.00  0.00    +0.000 C 
ATOM     13  N   UNL     1       7.235   5.684  15.722  0.00  0.00    +0.000 NA
ATOM     14  C   UNL     1       5.917   5.477  15.132  0.00  0.00    +0.000 C 
ATOM     15  C   UNL     1       5.199   4.273  15.733  0.00  0.00    +0.000 C 
ATOM     16  H   UNL     1       7.801   4.846  15.615  0.00  0.00    +0.000 HD
ENDBRANCH   7  10
BRANCH   5  17
ATOM     17  C   UNL     1       1.229   6.985  20.978  0.00  0.00    +0.000 C 
BRANCH  17  18
ATOM     18  C   UNL     1       0.832   8.435  20.986  0.00  0.00    +0.000 A 
ATOM     19  C   UNL     1       1.011   9.460  20.078  0.00  0.00    +0.000 A 
ATOM     20  C   UNL     1       0.370  10.597  20.608  0.00  0.00    +0.000 A 
ATOM     21  C   UNL     1      -0.138  10.223  21.834  0.00  0.00    +0.000 A 
ATOM     22  C   UNL     1      -0.868  10.974  22.880  0.00  0.00    +0.000 C 
ATOM     23  O   UNL     1       0.132   8.903  22.070  0.00  0.00    +0.000 OA
ENDBRANCH  17  18
ENDBRANCH   5  17
TORSDOF 3
ENDMDL
MODEL 8
REMARK VINA RESULT:      -7.4      1.444      2.000
REMARK  Name = 
REMARK  5 active torsions:
REMARK  status: ('A' for Active; 'I' for Inactive)
REMARK    1  A    between atoms: C_1  and  C_2
REMARK    2  A    between atoms: N_5  and  C_6
REMARK    3  A    between atoms: C_6  and  C_7
REMARK    4  A    between atoms: C_10  and  C_11
REMARK    5  A    between atoms: C_14  and  C_15
REMARK                            x       y       z     vdW  Elec       q    Type
REMARK                         _______ _______ _______ _____ _____    ______ ____
ROOT
ATOM      1  C   UNL     1       7.070   5.363  19.946  0.00  0.00    +0.000 C 
ATOM      2  C   UNL     1       5.933   5.254  18.979  0.00  0.00    +0.000 A 
ATOM      3  N   UNL     1       6.201   5.221  17.658  0.00  0.00    +0.000 NA
ATOM      4  C   UNL     1       5.149   5.154  16.821  0.00  0.00    +0.000 A 
ATOM      5  N   UNL     1       5.323   4.975  15.441  0.00  0.00    +0.000 N 
ATOM      6  C   UNL     1       3.846   5.117  17.299  0.00  0.00    +0.000 A 
ATOM      7  C   UNL     1       3.656   5.126  18.666  0.00  0.00    +0.000 A 
ATOM      8  N   UNL     1       4.700   5.204  19.514  0.00  0.00    +0.000 NA
ATOM      9  H   UNL     1       4.638   5.498  14.907  0.00  0.00    +0.000 HD
ENDROOT
BRANCH   7  10
ATOM     10  C   UNL     1       2.292   4.969  19.306  0.00  0.00    +0.000 C 
ATOM     11  C   UNL     1       2.382   4.867  20.842  0.00  0.00    +0.000 C 
ATOM     12  C   UNL     1       2.083   3.488  21.417  0.00  0.00    +0.000 C 
ATOM     13  N   UNL     1       0.882   2.916  20.822  0.00  0.00    +0.000 NA
ATOM     14  C   UNL     1       1.129   2.650  19.409  0.00  0.00    +0.000 C 
ATOM     15  C   UNL     1       1.385   3.928  18.618  0.00  0.00    +0.000 C 
ATOM     16  H   UNL     1       0.101   3.557  20.925  0.00  0.00    +0.000 HD
ENDBRANCH   7  10
BRANCH   5  17
ATOM     17  C   UNL     1       6.654   5.173  14.875  0.00  0.00    +0.000 C 
BRANCH  17  18
ATOM     18  C   UNL     1       6.791   4.565  13.507  0.00  0.00    +0.000 A 
ATOM     19  C   UNL     1       7.550   4.903  12.404  0.00  0.00    +0.000 A 
ATOM     20  C   UNL     1       7.303   3.925  11.419  0.00  0.00    +0.000 A 
ATOM     21  C   UNL     1       6.374   3.058  11.954  0.00  0.00    +0.000 A 
ATOM     22  C   UNL     1       5.691   1.868  11.401  0.00  0.00    +0.000 C 
ATOM     23  O   UNL     1       6.062   3.435  13.232  0.00  0.00    +0.000 OA
ENDBRANCH  17  18
ENDBRANCH   5  17
TORSDOF 3
ENDMDL
MODEL 9
REMARK VINA RESULT:      -7.4      4.224      8.364
REMARK  Name = 
REMARK  5 active torsions:
REMARK  status: ('A' for Active; 'I' for Inactive)
REMARK    1  A    between atoms: C_1  and  C_2
REMARK    2  A    between atoms: N_5  and  C_6
REMARK    3  A    between atoms: C_6  and  C_7
REMARK    4  A    between atoms: C_10  and  C_11
REMARK    5  A    between atoms: C_14  and  C_15
REMARK                            x       y       z     vdW  Elec       q    Type
REMARK                         _______ _______ _______ _____ _____    ______ ____
ROOT
ATOM      1  C   UNL     1       2.530   2.648  21.327  0.00  0.00    +0.000 C 
ATOM      2  C   UNL     1       2.939   3.808  20.474  0.00  0.00    +0.000 A 
ATOM      3  N   UNL     1       2.359   5.008  20.684  0.00  0.00    +0.000 NA
ATOM      4  C   UNL     1       2.731   6.018  19.875  0.00  0.00    +0.000 A 
ATOM      5  N   UNL     1       2.295   7.332  20.098  0.00  0.00    +0.000 N 
ATOM      6  C   UNL     1       3.674   5.832  18.873  0.00  0.00    +0.000 A 
ATOM      7  C   UNL     1       4.241   4.581  18.741  0.00  0.00    +0.000 A 
ATOM      8  N   UNL     1       3.869   3.559  19.535  0.00  0.00    +0.000 NA
ATOM      9  H   UNL     1       2.120   7.821  19.228  0.00  0.00    +0.000 HD
ENDROOT
BRANCH   7  10
ATOM     10  C   UNL     1       5.363   4.288  17.766  0.00  0.00    +0.000 C 
ATOM     11  C   UNL     1       6.702   4.899  18.223  0.00  0.00    +0.000 C 
ATOM     12  C   UNL     1       7.185   6.088  17.402  0.00  0.00    +0.000 C 
ATOM     13  N   UNL     1       7.073   5.824  15.972  0.00  0.00    +0.000 NA
ATOM     14  C   UNL     1       5.664   5.711  15.615  0.00  0.00    +0.000 C 
ATOM     15  C   UNL     1       4.992   4.517  16.286  0.00  0.00    +0.000 C 
ATOM     16  H   UNL     1       7.563   4.965  15.737  0.00  0.00    +0.000 HD
ENDBRANCH   7  10
BRANCH   5  17
ATOM     17  C   UNL     1       1.187   7.550  21.024  0.00  0.00    +0.000 C 
BRANCH  17  18
ATOM     18  C   UNL     1       0.653   8.953  20.957  0.00  0.00    +0.000 A 
ATOM     19  C   UNL     1       0.647   9.906  19.957  0.00  0.00    +0.000 A 
ATOM     20  C   UNL     1      -0.051  11.024  20.457  0.00  0.00    +0.000 A 
ATOM     21  C   UNL     1      -0.404  10.715  21.753  0.00  0.00    +0.000 A 
ATOM     22  C   UNL     1      -1.105  11.487  22.803  0.00  0.00    +0.000 C 
ATOM     23  O   UNL     1       0.013   9.450  22.065  0.00  0.00    +0.000 OA
ENDBRANCH  17  18
ENDBRANCH   5  17
TORSDOF 3
ENDMDL
