MODEL 1
REMARK VINA RESULT:      -9.0      0.000      0.000
REMARK  Name = 
REMARK  8 active torsions:
REMARK  status: ('A' for Active; 'I' for Inactive)
REMARK    1  A    between atoms: C_1  and  N_2
REMARK    2  A    between atoms: C_4  and  S_5
REMARK    3  A    between atoms: S_5  and  N_8
REMARK    4  A    between atoms: N_8  and  C_9
REMARK    5  A    between atoms: C_9  and  C_10
REMARK    6  A    between atoms: C_14  and  C_15
REMARK    7  A    between atoms: C_15  and  C_16
REMARK    8  A    between atoms: C_16  and  C_17
REMARK                            x       y       z     vdW  Elec       q    Type
REMARK                         _______ _______ _______ _____ _____    ______ ____
ROOT
ATOM      1  C   UNL     1       2.174   7.812  18.846  0.00  0.00    +0.000 A 
ATOM      2  C   UNL     1       1.776   7.587  20.166  0.00  0.00    +0.000 A 
ATOM      3  C   UNL     1       1.939   6.342  20.739  0.00  0.00    +0.000 A 
ATOM      4  C   UNL     1       2.536   5.330  20.002  0.00  0.00    +0.000 A 
ATOM      5  C   UNL     1       2.988   5.516  18.673  0.00  0.00    +0.000 A 
ATOM      6  C   UNL     1       2.759   6.774  18.102  0.00  0.00    +0.000 A 
ENDROOT
BRANCH   5   7
ATOM      7  C   UNL     1       3.712   4.380  17.897  0.00  0.00    +0.000 C 
ATOM      8  C   UNL     1       2.675   3.552  17.073  0.00  0.00    +0.000 C 
ATOM      9  C   UNL     1       2.437   2.270  17.859  0.00  0.00    +0.000 C 
ATOM     10  N   UNL     1       3.734   1.970  18.457  0.00  0.00    +0.000 NA
ATOM     11  C   UNL     1       4.337   3.271  18.798  0.00  0.00    +0.000 C 
ATOM     12  H   UNL     1       4.322   1.518  17.755  0.00  0.00    +0.000 HD
BRANCH   7  13
ATOM     13  C   UNL     1       4.790   5.016  16.954  0.00  0.00    +0.000 C 
BRANCH  13  14
ATOM     14  C   UNL     1       5.947   5.802  17.537  0.00  0.00    +0.000 A 
ATOM     15  C   UNL     1       6.312   7.048  17.038  0.00  0.00    +0.000 A 
ATOM     16  C   UNL     1       7.429   7.716  17.514  0.00  0.00    +0.000 A 
ATOM     17  C   UNL     1       8.178   7.163  18.555  0.00  0.00    +0.000 A 
ATOM     18  C   UNL     1       7.827   5.915  19.072  0.00  0.00    +0.000 A 
ATOM     19  C   UNL     1       6.741   5.216  18.545  0.00  0.00    +0.000 A 
ENDBRANCH  13  14
ENDBRANCH   7  13
ENDBRANCH   5   7
BRANCH   1  20
ATOM     20  C   UNL     1       2.040   9.186  18.250  0.00  0.00    +0.000 C 
BRANCH  20  21
ATOM     21  N   UNL     1       0.692   9.413  17.725  0.00  0.00    +0.000 NA
ATOM     22  H   UNL     1       0.694   9.705  16.748  0.00  0.00    +0.000 HD
BRANCH  21  23
ATOM     23  S   UNL     1      -0.234  10.494  18.625  0.00  0.00    +0.000 S 
ATOM     24  O   UNL     1       0.400  11.768  18.543  0.00  0.00    +0.000 OA
ATOM     25  O   UNL     1      -0.584   9.863  19.886  0.00  0.00    +0.000 OA
BRANCH  23  29
ATOM     26  C   UNL     1      -5.058  11.842  17.140  0.00  0.00    +0.000 C 
ATOM     27  N   UNL     1      -3.735  11.269  17.212  0.00  0.00    +0.000 N 
ATOM     28  C   UNL     1      -2.760  11.563  18.120  0.00  0.00    +0.000 A 
ATOM     29  C   UNL     1      -1.725  10.701  17.824  0.00  0.00    +0.000 A 
ATOM     30  C   UNL     1      -2.150   9.965  16.713  0.00  0.00    +0.000 A 
ATOM     31  N   UNL     1      -3.384  10.312  16.331  0.00  0.00    +0.000 NA
ENDBRANCH  23  29
ENDBRANCH  21  23
ENDBRANCH  20  21
ENDBRANCH   1  20
TORSDOF 7
ENDMDL
MODEL 2
REMARK VINA RESULT:      -8.9      2.568      4.464
REMARK  Name = 
REMARK  8 active torsions:
REMARK  status: ('A' for Active; 'I' for Inactive)
REMARK    1  A    between atoms: C_1  and  N_2
REMARK    2  A    between atoms: C_4  and  S_5
REMARK    3  A    between atoms: S_5  and  N_8
REMARK    4  A    between atoms: N_8  and  C_9
REMARK    5  A    between atoms: C_9  and  C_10
REMARK    6  A    between atoms: C_14  and  C_15
REMARK    7  A    between atoms: C_15  and  C_16
REMARK    8  A    between atoms: C_16  and  C_17
REMARK                            x       y       z     vdW  Elec       q    Type
REMARK                         _______ _______ _______ _____ _____    ______ ____
ROOT
ATOM      1  C   UNL     1       2.369   7.111  19.630  0.00  0.00    +0.000 A 
ATOM      2  C   UNL     1       2.164   8.087  18.652  0.00  0.00    +0.000 A 
ATOM      3  C   UNL     1       2.914   8.077  17.493  0.00  0.00    +0.000 A 
ATOM      4  C   UNL     1       3.843   7.066  17.295  0.00  0.00    +0.000 A 
ATOM      5  C   UNL     1       4.065   6.035  18.239  0.00  0.00    +0.000 A 
ATOM      6  C   UNL     1       3.328   6.103  19.428  0.00  0.00    +0.000 A 
ENDROOT
BRANCH   5   7
ATOM      7  C   UNL     1       5.067   4.881  17.959  0.00  0.00    +0.000 C 
ATOM      8  C   UNL     1       6.142   4.821  19.091  0.00  0.00    +0.000 C 
ATOM      9  C   UNL     1       7.396   5.466  18.518  0.00  0.00    +0.000 C 
ATOM     10  N   UNL     1       7.381   5.089  17.108  0.00  0.00    +0.000 NA
ATOM     11  C   UNL     1       5.965   5.089  16.701  0.00  0.00    +0.000 C 
ATOM     12  H   UNL     1       7.741   4.138  17.020  0.00  0.00    +0.000 HD
BRANCH   7  13
ATOM     13  C   UNL     1       4.277   3.530  17.872  0.00  0.00    +0.000 C 
BRANCH  13  14
ATOM     14  C   UNL     1       3.206   3.204  18.894  0.00  0.00    +0.000 A 
ATOM     15  C   UNL     1       1.852   3.287  18.588  0.00  0.00    +0.000 A 
ATOM     16  C   UNL     1       0.880   3.080  19.555  0.00  0.00    +0.000 A 
ATOM     17  C   UNL     1       1.256   2.722  20.852  0.00  0.00    +0.000 A 
ATOM     18  C   UNL     1       2.610   2.629  21.178  0.00  0.00    +0.000 A 
ATOM     19  C   UNL     1       3.585   2.905  20.219  0.00  0.00    +0.000 A 
ENDBRANCH  13  14
ENDBRANCH   7  13
ENDBRANCH   5   7
BRANCH   1  20
ATOM     20  C   UNL     1       1.511   7.100  20.864  0.00  0.00    +0.000 C 
BRANCH  20  21
ATOM     21  N   UNL     1       1.744   8.287  21.690  0.00  0.00    +0.000 NA
ATOM     22  H   UNL     1       2.248   8.076  22.550  0.00  0.00    +0.000 HD
BRANCH  21  23
ATOM     23  S   UNL     1       0.354   9.163  22.061  0.00  0.00    +0.000 S 
ATOM     24  O   UNL     1       0.613   9.881  23.264  0.00  0.00    +0.000 OA
ATOM     25  O   UNL     1      -0.798   8.294  21.888  0.00  0.00    +0.000 OA
BRANCH  23  29
ATOM     26  C   UNL     1       0.424  13.536  19.205  0.00  0.00    +0.000 C 
ATOM     27  N   UNL     1       0.198  12.195  19.687  0.00  0.00    +0.000 N 
ATOM     28  C   UNL     1       0.750  11.614  20.791  0.00  0.00    +0.000 A 
ATOM     29  C   UNL     1       0.162  10.369  20.871  0.00  0.00    +0.000 A 
ATOM     30  C   UNL     1      -0.688  10.280  19.764  0.00  0.00    +0.000 A 
ATOM     31  N   UNL     1      -0.669  11.398  19.031  0.00  0.00    +0.000 NA
ENDBRANCH  23  29
ENDBRANCH  21  23
ENDBRANCH  20  21
ENDBRANCH   1  20
TORSDOF 7
ENDMDL
MODEL 3
REMARK VINA RESULT:      -8.9      2.571      4.538
REMARK  Name = 
REMARK  8 active torsions:
REMARK  status: ('A' for Active; 'I' for Inactive)
REMARK    1  A    between atoms: C_1  and  N_2
REMARK    2  A    between atoms: C_4  and  S_5
REMARK    3  A    between atoms: S_5  and  N_8
REMARK    4  A    between atoms: N_8  and  C_9
REMARK    5  A    between atoms: C_9  and  C_10
REMARK    6  A    between atoms: C_14  and  C_15
REMARK    7  A    between atoms: C_15  and  C_16
REMARK    8  A    between atoms: C_16  and  C_17
REMARK                            x       y       z     vdW  Elec       q    Type
REMARK                         _______ _______ _______ _____ _____    ______ ____
ROOT
ATOM      1  C   UNL     1       2.336   7.277  19.657  0.00  0.00    +0.000 A 
ATOM      2  C   UNL     1       2.098   8.228  18.660  0.00  0.00    +0.000 A 
ATOM      3  C   UNL     1       2.828   8.203  17.489  0.00  0.00    +0.000 A 
ATOM      4  C   UNL     1       3.770   7.203  17.298  0.00  0.00    +0.000 A 
ATOM      5  C   UNL     1       4.024   6.197  18.262  0.00  0.00    +0.000 A 
ATOM      6  C   UNL     1       3.307   6.281  19.461  0.00  0.00    +0.000 A 
ENDROOT
BRANCH   5   7
ATOM      7  C   UNL     1       5.041   5.053  17.991  0.00  0.00    +0.000 C 
ATOM      8  C   UNL     1       6.137   5.039  19.103  0.00  0.00    +0.000 C 
ATOM      9  C   UNL     1       7.370   5.690  18.490  0.00  0.00    +0.000 C 
ATOM     10  N   UNL     1       7.334   5.278  17.090  0.00  0.00    +0.000 NA
ATOM     11  C   UNL     1       5.910   5.244  16.710  0.00  0.00    +0.000 C 
ATOM     12  H   UNL     1       7.708   4.330  17.018  0.00  0.00    +0.000 HD
BRANCH   7  13
ATOM     13  C   UNL     1       4.271   3.688  17.952  0.00  0.00    +0.000 C 
BRANCH  13  14
ATOM     14  C   UNL     1       3.202   3.384  18.982  0.00  0.00    +0.000 A 
ATOM     15  C   UNL     1       3.523   3.026  20.287  0.00  0.00    +0.000 A 
ATOM     16  C   UNL     1       2.543   2.658  21.196  0.00  0.00    +0.000 A 
ATOM     17  C   UNL     1       1.198   2.699  20.821  0.00  0.00    +0.000 A 
ATOM     18  C   UNL     1       0.855   3.059  19.517  0.00  0.00    +0.000 A 
ATOM     19  C   UNL     1       1.848   3.364  18.587  0.00  0.00    +0.000 A 
ENDBRANCH  13  14
ENDBRANCH   7  13
ENDBRANCH   5   7
BRANCH   1  20
ATOM     20  C   UNL     1       1.499   7.282  20.906  0.00  0.00    +0.000 C 
BRANCH  20  21
ATOM     21  N   UNL     1       1.659   8.530  21.654  0.00  0.00    +0.000 NA
ATOM     22  H   UNL     1       2.305   8.441  22.436  0.00  0.00    +0.000 HD
BRANCH  21  23
ATOM     23  S   UNL     1       0.215   9.205  22.201  0.00  0.00    +0.000 S 
ATOM     24  O   UNL     1       0.478   9.797  23.470  0.00  0.00    +0.000 OA
ATOM     25  O   UNL     1      -0.855   8.248  21.978  0.00  0.00    +0.000 OA
BRANCH  23  29
ATOM     26  C   UNL     1      -1.191  12.334  18.261  0.00  0.00    +0.000 C 
ATOM     27  N   UNL     1      -0.757  11.813  19.536  0.00  0.00    +0.000 N 
ATOM     28  C   UNL     1      -0.740  10.507  19.927  0.00  0.00    +0.000 A 
ATOM     29  C   UNL     1      -0.168  10.518  21.182  0.00  0.00    +0.000 A 
ATOM     30  C   UNL     1       0.086  11.862  21.471  0.00  0.00    +0.000 A 
ATOM     31  N   UNL     1      -0.277  12.664  20.464  0.00  0.00    +0.000 NA
ENDBRANCH  23  29
ENDBRANCH  21  23
ENDBRANCH  20  21
ENDBRANCH   1  20
TORSDOF 7
ENDMDL
MODEL 4
REMARK VINA RESULT:      -8.8      1.383      3.498
REMARK  Name = 
REMARK  8 active torsions:
REMARK  status: ('A' for Active; 'I' for Inactive)
REMARK    1  A    between atoms: C_1  and  N_2
REMARK    2  A    between atoms: C_4  and  S_5
REMARK    3  A    between atoms: S_5  and  N_8
REMARK    4  A    between atoms: N_8  and  C_9
REMARK    5  A    between atoms: C_9  and  C_10
REMARK    6  A    between atoms: C_14  and  C_15
REMARK    7  A    between atoms: C_15  and  C_16
REMARK    8  A    between atoms: C_16  and  C_17
REMARK                            x       y       z     vdW  Elec       q    Type
REMARK                         _______ _______ _______ _____ _____    ______ ____
ROOT
ATOM      1  C   UNL     1       2.447   8.228  18.396  0.00  0.00    +0.000 A 
ATOM      2  C   UNL     1       2.054   7.761  19.653  0.00  0.00    +0.000 A 
ATOM      3  C   UNL     1       2.562   6.576  20.144  0.00  0.00    +0.000 A 
ATOM      4  C   UNL     1       3.496   5.876  19.393  0.00  0.00    +0.000 A 
ATOM      5  C   UNL     1       3.953   6.324  18.130  0.00  0.00    +0.000 A 
ATOM      6  C   UNL     1       3.377   7.501  17.635  0.00  0.00    +0.000 A 
ENDROOT
BRANCH   5   7
ATOM      7  C   UNL     1       5.047   5.550  17.342  0.00  0.00    +0.000 C 
ATOM      8  C   UNL     1       6.205   5.137  18.305  0.00  0.00    +0.000 C 
ATOM      9  C   UNL     1       7.337   6.124  18.052  0.00  0.00    +0.000 C 
ATOM     10  N   UNL     1       7.254   6.407  16.623  0.00  0.00    +0.000 NA
ATOM     11  C   UNL     1       5.818   6.404  16.289  0.00  0.00    +0.000 C 
ATOM     12  H   UNL     1       7.704   5.647  16.111  0.00  0.00    +0.000 HD
BRANCH   7  13
ATOM     13  C   UNL     1       4.399   4.287  16.679  0.00  0.00    +0.000 C 
BRANCH  13  14
ATOM     14  C   UNL     1       3.341   3.493  17.419  0.00  0.00    +0.000 A 
ATOM     15  C   UNL     1       2.008   3.888  17.439  0.00  0.00    +0.000 A 
ATOM     16  C   UNL     1       1.066   3.210  18.197  0.00  0.00    +0.000 A 
ATOM     17  C   UNL     1       1.440   2.070  18.912  0.00  0.00    +0.000 A 
ATOM     18  C   UNL     1       2.773   1.654  18.902  0.00  0.00    +0.000 A 
ATOM     19  C   UNL     1       3.730   2.379  18.192  0.00  0.00    +0.000 A 
ENDBRANCH  13  14
ENDBRANCH   7  13
ENDBRANCH   5   7
BRANCH   1  20
ATOM     20  C   UNL     1       1.926   9.546  17.894  0.00  0.00    +0.000 C 
BRANCH  20  21
ATOM     21  N   UNL     1       0.486   9.492  17.639  0.00  0.00    +0.000 NA
ATOM     22  H   UNL     1       0.254   9.625  16.656  0.00  0.00    +0.000 HD
BRANCH  21  23
ATOM     23  S   UNL     1      -0.428  10.555  18.574  0.00  0.00    +0.000 S 
ATOM     24  O   UNL     1       0.223  11.822  18.536  0.00  0.00    +0.000 OA
ATOM     25  O   UNL     1      -0.790   9.886  19.813  0.00  0.00    +0.000 OA
BRANCH  23  29
ATOM     26  C   UNL     1      -5.268  11.931  17.170  0.00  0.00    +0.000 C 
ATOM     27  N   UNL     1      -3.931  11.387  17.200  0.00  0.00    +0.000 N 
ATOM     28  C   UNL     1      -2.976  11.607  18.148  0.00  0.00    +0.000 A 
ATOM     29  C   UNL     1      -1.914  10.808  17.777  0.00  0.00    +0.000 A 
ATOM     30  C   UNL     1      -2.307  10.185  16.588  0.00  0.00    +0.000 A 
ATOM     31  N   UNL     1      -3.544  10.539  16.227  0.00  0.00    +0.000 NA
ENDBRANCH  23  29
ENDBRANCH  21  23
ENDBRANCH  20  21
ENDBRANCH   1  20
TORSDOF 7
ENDMDL
MODEL 5
REMARK VINA RESULT:      -8.8      1.825      2.396
REMARK  Name = 
REMARK  8 active torsions:
REMARK  status: ('A' for Active; 'I' for Inactive)
REMARK    1  A    between atoms: C_1  and  N_2
REMARK    2  A    between atoms: C_4  and  S_5
REMARK    3  A    between atoms: S_5  and  N_8
REMARK    4  A    between atoms: N_8  and  C_9
REMARK    5  A    between atoms: C_9  and  C_10
REMARK    6  A    between atoms: C_14  and  C_15
REMARK    7  A    between atoms: C_15  and  C_16
REMARK    8  A    between atoms: C_16  and  C_17
REMARK                            x       y       z     vdW  Elec       q    Type
REMARK                         _______ _______ _______ _____ _____    ______ ____
ROOT
ATOM      1  C   UNL     1       1.834   7.984  20.156  0.00  0.00    +0.000 A 
ATOM      2  C   UNL     1       1.683   8.888  19.101  0.00  0.00    +0.000 A 
ATOM      3  C   UNL     1       2.018   8.516  17.815  0.00  0.00    +0.000 A 
ATOM      4  C   UNL     1       2.468   7.225  17.577  0.00  0.00    +0.000 A 
ATOM      5  C   UNL     1       2.605   6.261  18.606  0.00  0.00    +0.000 A 
ATOM      6  C   UNL     1       2.309   6.685  19.907  0.00  0.00    +0.000 A 
ENDROOT
BRANCH   5   7
ATOM      7  C   UNL     1       3.050   4.805  18.297  0.00  0.00    +0.000 C 
ATOM      8  C   UNL     1       1.875   4.017  17.636  0.00  0.00    +0.000 C 
ATOM      9  C   UNL     1       1.283   3.141  18.732  0.00  0.00    +0.000 C 
ATOM     10  N   UNL     1       2.433   2.760  19.547  0.00  0.00    +0.000 NA
ATOM     11  C   UNL     1       3.331   3.929  19.557  0.00  0.00    +0.000 C 
ATOM     12  H   UNL     1       2.917   1.987  19.089  0.00  0.00    +0.000 HD
BRANCH   7  13
ATOM     13  C   UNL     1       4.296   4.844  17.348  0.00  0.00    +0.000 C 
BRANCH  13  14
ATOM     14  C   UNL     1       5.548   5.591  17.761  0.00  0.00    +0.000 A 
ATOM     15  C   UNL     1       5.998   6.708  17.065  0.00  0.00    +0.000 A 
ATOM     16  C   UNL     1       7.194   7.328  17.391  0.00  0.00    +0.000 A 
ATOM     17  C   UNL     1       7.943   6.866  18.476  0.00  0.00    +0.000 A 
ATOM     18  C   UNL     1       7.507   5.748  19.191  0.00  0.00    +0.000 A 
ATOM     19  C   UNL     1       6.337   5.087  18.816  0.00  0.00    +0.000 A 
ENDBRANCH  13  14
ENDBRANCH   7  13
ENDBRANCH   5   7
BRANCH   1  20
ATOM     20  C   UNL     1       1.416   8.382  21.545  0.00  0.00    +0.000 C 
BRANCH  20  21
ATOM     21  N   UNL     1       0.011   8.790  21.586  0.00  0.00    +0.000 NA
ATOM     22  H   UNL     1      -0.499   8.534  20.742  0.00  0.00    +0.000 HD
BRANCH  21  23
ATOM     23  S   UNL     1      -0.232  10.426  21.907  0.00  0.00    +0.000 S 
ATOM     24  O   UNL     1       1.037  11.069  21.815  0.00  0.00    +0.000 OA
ATOM     25  O   UNL     1      -1.099  10.545  23.066  0.00  0.00    +0.000 OA
BRANCH  23  29
ATOM     26  C   UNL     1      -2.464  11.551  17.320  0.00  0.00    +0.000 C 
ATOM     27  N   UNL     1      -2.069  11.542  18.708  0.00  0.00    +0.000 N 
ATOM     28  C   UNL     1      -1.306  10.604  19.339  0.00  0.00    +0.000 A 
ATOM     29  C   UNL     1      -1.143  11.081  20.623  0.00  0.00    +0.000 A 
ATOM     30  C   UNL     1      -1.868  12.276  20.678  0.00  0.00    +0.000 A 
ATOM     31  N   UNL     1      -2.442  12.563  19.505  0.00  0.00    +0.000 NA
ENDBRANCH  23  29
ENDBRANCH  21  23
ENDBRANCH  20  21
ENDBRANCH   1  20
TORSDOF 7
ENDMDL
MODEL 6
REMARK VINA RESULT:      -8.8      2.111      2.787
REMARK  Name = 
REMARK  8 active torsions:
REMARK  status: ('A' for Active; 'I' for Inactive)
REMARK    1  A    between atoms: C_1  and  N_2
REMARK    2  A    between atoms: C_4  and  S_5
REMARK    3  A    between atoms: S_5  and  N_8
REMARK    4  A    between atoms: N_8  and  C_9
REMARK    5  A    between atoms: C_9  and  C_10
REMARK    6  A    between atoms: C_14  and  C_15
REMARK    7  A    between atoms: C_15  and  C_16
REMARK    8  A    between atoms: C_16  and  C_17
REMARK                            x       y       z     vdW  Elec       q    Type
REMARK                         _______ _______ _______ _____ _____    ______ ____
ROOT
ATOM      1  C   UNL     1       2.146   6.969  19.941  0.00  0.00    +0.000 A 
ATOM      2  C   UNL     1       2.081   8.024  19.027  0.00  0.00    +0.000 A 
ATOM      3  C   UNL     1       2.655   7.897  17.779  0.00  0.00    +0.000 A 
ATOM      4  C   UNL     1       3.260   6.699  17.429  0.00  0.00    +0.000 A 
ATOM      5  C   UNL     1       3.322   5.589  18.306  0.00  0.00    +0.000 A 
ATOM      6  C   UNL     1       2.779   5.768  19.584  0.00  0.00    +0.000 A 
ENDROOT
BRANCH   5   7
ATOM      7  C   UNL     1       3.950   4.239  17.861  0.00  0.00    +0.000 C 
ATOM      8  C   UNL     1       2.939   3.446  16.973  0.00  0.00    +0.000 C 
ATOM      9  C   UNL     1       2.339   2.372  17.871  0.00  0.00    +0.000 C 
ATOM     10  N   UNL     1       3.436   1.989  18.754  0.00  0.00    +0.000 NA
ATOM     11  C   UNL     1       4.197   3.223  19.019  0.00  0.00    +0.000 C 
ATOM     12  H   UNL     1       4.045   1.337  18.256  0.00  0.00    +0.000 HD
BRANCH   7  13
ATOM     13  C   UNL     1       5.273   4.528  17.073  0.00  0.00    +0.000 C 
BRANCH  13  14
ATOM     14  C   UNL     1       6.285   5.518  17.615  0.00  0.00    +0.000 A 
ATOM     15  C   UNL     1       6.567   6.711  16.957  0.00  0.00    +0.000 A 
ATOM     16  C   UNL     1       7.562   7.565  17.409  0.00  0.00    +0.000 A 
ATOM     17  C   UNL     1       8.259   7.261  18.580  0.00  0.00    +0.000 A 
ATOM     18  C   UNL     1       7.988   6.070  19.257  0.00  0.00    +0.000 A 
ATOM     19  C   UNL     1       7.034   5.182  18.761  0.00  0.00    +0.000 A 
ENDBRANCH  13  14
ENDBRANCH   7  13
ENDBRANCH   5   7
BRANCH   1  20
ATOM     20  C   UNL     1       1.472   7.100  21.279  0.00  0.00    +0.000 C 
BRANCH  20  21
ATOM     21  N   UNL     1       1.661   8.436  21.847  0.00  0.00    +0.000 NA
ATOM     22  H   UNL     1       2.242   8.430  22.684  0.00  0.00    +0.000 HD
BRANCH  21  23
ATOM     23  S   UNL     1       0.231   9.266  22.169  0.00  0.00    +0.000 S 
ATOM     24  O   UNL     1       0.402   9.939  23.414  0.00  0.00    +0.000 OA
ATOM     25  O   UNL     1      -0.888   8.381  21.894  0.00  0.00    +0.000 OA
BRANCH  23  29
ATOM     26  C   UNL     1      -1.155  12.393  18.221  0.00  0.00    +0.000 C 
ATOM     27  N   UNL     1      -0.506  11.812  19.372  0.00  0.00    +0.000 N 
ATOM     28  C   UNL     1      -0.905  10.713  20.074  0.00  0.00    +0.000 A 
ATOM     29  C   UNL     1       0.080  10.515  21.019  0.00  0.00    +0.000 A 
ATOM     30  C   UNL     1       0.996  11.555  20.834  0.00  0.00    +0.000 A 
ATOM     31  N   UNL     1       0.640  12.357  19.825  0.00  0.00    +0.000 NA
ENDBRANCH  23  29
ENDBRANCH  21  23
ENDBRANCH  20  21
ENDBRANCH   1  20
TORSDOF 7
ENDMDL
MODEL 7
REMARK VINA RESULT:      -8.8      2.403      3.101
REMARK  Name = 
REMARK  8 active torsions:
REMARK  status: ('A' for Active; 'I' for Inactive)
REMARK    1  A    between atoms: C_1  and  N_2
REMARK    2  A    between atoms: C_4  and  S_5
REMARK    3  A    between atoms: S_5  and  N_8
REMARK    4  A    between atoms: N_8  and  C_9
REMARK    5  A    between atoms: C_9  and  C_10
REMARK    6  A    between atoms: C_14  and  C_15
REMARK    7  A    between atoms: C_15  and  C_16
REMARK    8  A    between atoms: C_16  and  C_17
REMARK                            x       y       z     vdW  Elec       q    Type
REMARK                         _______ _______ _______ _____ _____    ______ ____
ROOT
ATOM      1  C   UNL     1       2.126   7.123  19.946  0.00  0.00    +0.000 A 
ATOM      2  C   UNL     1       2.099   8.164  19.014  0.00  0.00    +0.000 A 
ATOM      3  C   UNL     1       2.658   7.992  17.764  0.00  0.00    +0.000 A 
ATOM      4  C   UNL     1       3.209   6.763  17.431  0.00  0.00    +0.000 A 
ATOM      5  C   UNL     1       3.230   5.666  18.326  0.00  0.00    +0.000 A 
ATOM      6  C   UNL     1       2.705   5.889  19.605  0.00  0.00    +0.000 A 
ENDROOT
BRANCH   5   7
ATOM      7  C   UNL     1       3.798   4.283  17.901  0.00  0.00    +0.000 C 
ATOM      8  C   UNL     1       2.727   3.497  17.080  0.00  0.00    +0.000 C 
ATOM      9  C   UNL     1       2.131   2.471  18.035  0.00  0.00    +0.000 C 
ATOM     10  N   UNL     1       3.250   2.080  18.885  0.00  0.00    +0.000 NA
ATOM     11  C   UNL     1       4.060   3.296  19.080  0.00  0.00    +0.000 C 
ATOM     12  H   UNL     1       3.817   1.394  18.385  0.00  0.00    +0.000 HD
BRANCH   7  13
ATOM     13  C   UNL     1       5.095   4.505  17.051  0.00  0.00    +0.000 C 
BRANCH  13  14
ATOM     14  C   UNL     1       6.214   5.380  17.580  0.00  0.00    +0.000 A 
ATOM     15  C   UNL     1       6.900   5.066  18.749  0.00  0.00    +0.000 A 
ATOM     16  C   UNL     1       7.856   5.921  19.276  0.00  0.00    +0.000 A 
ATOM     17  C   UNL     1       8.187   7.095  18.597  0.00  0.00    +0.000 A 
ATOM     18  C   UNL     1       7.513   7.427  17.420  0.00  0.00    +0.000 A 
ATOM     19  C   UNL     1       6.505   6.598  16.930  0.00  0.00    +0.000 A 
ENDBRANCH  13  14
ENDBRANCH   7  13
ENDBRANCH   5   7
BRANCH   1  20
ATOM     20  C   UNL     1       1.468   7.305  21.286  0.00  0.00    +0.000 C 
BRANCH  20  21
ATOM     21  N   UNL     1       1.565   8.690  21.747  0.00  0.00    +0.000 NA
ATOM     22  H   UNL     1       2.339   8.839  22.392  0.00  0.00    +0.000 HD
BRANCH  21  23
ATOM     23  S   UNL     1       0.149   9.298  22.430  0.00  0.00    +0.000 S 
ATOM     24  O   UNL     1       0.473   9.754  23.742  0.00  0.00    +0.000 OA
ATOM     25  O   UNL     1      -0.931   8.366  22.158  0.00  0.00    +0.000 OA
BRANCH  23  29
ATOM     26  C   UNL     1      -0.765  12.980  18.839  0.00  0.00    +0.000 C 
ATOM     27  N   UNL     1      -0.659  12.237  20.072  0.00  0.00    +0.000 N 
ATOM     28  C   UNL     1      -0.326  10.922  20.213  0.00  0.00    +0.000 A 
ATOM     29  C   UNL     1      -0.280  10.710  21.576  0.00  0.00    +0.000 A 
ATOM     30  C   UNL     1      -0.633  11.929  22.161  0.00  0.00    +0.000 A 
ATOM     31  N   UNL     1      -0.870  12.871  21.242  0.00  0.00    +0.000 NA
ENDBRANCH  23  29
ENDBRANCH  21  23
ENDBRANCH  20  21
ENDBRANCH   1  20
TORSDOF 7
ENDMDL
MODEL 8
REMARK VINA RESULT:      -8.7      2.493      3.117
REMARK  Name = 
REMARK  8 active torsions:
REMARK  status: ('A' for Active; 'I' for Inactive)
REMARK    1  A    between atoms: C_1  and  N_2
REMARK    2  A    between atoms: C_4  and  S_5
REMARK    3  A    between atoms: S_5  and  N_8
REMARK    4  A    between atoms: N_8  and  C_9
REMARK    5  A    between atoms: C_9  and  C_10
REMARK    6  A    between atoms: C_14  and  C_15
REMARK    7  A    between atoms: C_15  and  C_16
REMARK    8  A    between atoms: C_16  and  C_17
REMARK                            x       y       z     vdW  Elec       q    Type
REMARK                         _______ _______ _______ _____ _____    ______ ____
ROOT
ATOM      1  C   UNL     1       1.736   7.871  20.015  0.00  0.00    +0.000 A 
ATOM      2  C   UNL     1       1.734   8.847  19.015  0.00  0.00    +0.000 A 
ATOM      3  C   UNL     1       2.267   8.568  17.773  0.00  0.00    +0.000 A 
ATOM      4  C   UNL     1       2.767   7.300  17.518  0.00  0.00    +0.000 A 
ATOM      5  C   UNL     1       2.761   6.266  18.486  0.00  0.00    +0.000 A 
ATOM      6  C   UNL     1       2.264   6.596  19.753  0.00  0.00    +0.000 A 
ENDROOT
BRANCH   5   7
ATOM      7  C   UNL     1       3.270   4.837  18.150  0.00  0.00    +0.000 C 
ATOM      8  C   UNL     1       2.123   4.001  17.499  0.00  0.00    +0.000 C 
ATOM      9  C   UNL     1       1.594   3.084  18.593  0.00  0.00    +0.000 C 
ATOM     10  N   UNL     1       2.775   2.749  19.382  0.00  0.00    +0.000 NA
ATOM     11  C   UNL     1       3.616   3.960  19.393  0.00  0.00    +0.000 C 
ATOM     12  H   UNL     1       3.288   2.007  18.905  0.00  0.00    +0.000 HD
BRANCH   7  13
ATOM     13  C   UNL     1       4.496   4.949  17.179  0.00  0.00    +0.000 C 
BRANCH  13  14
ATOM     14  C   UNL     1       5.776   5.618  17.639  0.00  0.00    +0.000 A 
ATOM     15  C   UNL     1       6.507   5.136  18.720  0.00  0.00    +0.000 A 
ATOM     16  C   UNL     1       7.623   5.808  19.192  0.00  0.00    +0.000 A 
ATOM     17  C   UNL     1       8.067   6.961  18.542  0.00  0.00    +0.000 A 
ATOM     18  C   UNL     1       7.349   7.460  17.452  0.00  0.00    +0.000 A 
ATOM     19  C   UNL     1       6.188   6.817  17.023  0.00  0.00    +0.000 A 
ENDBRANCH  13  14
ENDBRANCH   7  13
ENDBRANCH   5   7
BRANCH   1  20
ATOM     20  C   UNL     1       1.105   8.169  21.347  0.00  0.00    +0.000 C 
BRANCH  20  21
ATOM     21  N   UNL     1       0.024   9.147  21.223  0.00  0.00    +0.000 NA
ATOM     22  H   UNL     1      -0.123   9.453  20.262  0.00  0.00    +0.000 HD
BRANCH  21  23
ATOM     23  S   UNL     1       0.187  10.499  22.216  0.00  0.00    +0.000 S 
ATOM     24  O   UNL     1       1.200  11.324  21.646  0.00  0.00    +0.000 OA
ATOM     25  O   UNL     1       0.212  10.054  23.599  0.00  0.00    +0.000 OA
BRANCH  23  29
ATOM     26  C   UNL     1      -3.751  13.581  20.707  0.00  0.00    +0.000 C 
ATOM     27  N   UNL     1      -2.880  12.702  21.451  0.00  0.00    +0.000 N 
ATOM     28  C   UNL     1      -1.768  12.062  20.988  0.00  0.00    +0.000 A 
ATOM     29  C   UNL     1      -1.243  11.418  22.089  0.00  0.00    +0.000 A 
ATOM     30  C   UNL     1      -2.119  11.694  23.143  0.00  0.00    +0.000 A 
ATOM     31  N   UNL     1      -3.129  12.481  22.756  0.00  0.00    +0.000 NA
ENDBRANCH  23  29
ENDBRANCH  21  23
ENDBRANCH  20  21
ENDBRANCH   1  20
TORSDOF 7
ENDMDL
MODEL 9
REMARK VINA RESULT:      -8.7      2.519      4.564
REMARK  Name = 
REMARK  8 active torsions:
REMARK  status: ('A' for Active; 'I' for Inactive)
REMARK    1  A    between atoms: C_1  and  N_2
REMARK    2  A    between atoms: C_4  and  S_5
REMARK    3  A    between atoms: S_5  and  N_8
REMARK    4  A    between atoms: N_8  and  C_9
REMARK    5  A    between atoms: C_9  and  C_10
REMARK    6  A    between atoms: C_14  and  C_15
REMARK    7  A    between atoms: C_15  and  C_16
REMARK    8  A    between atoms: C_16  and  C_17
REMARK                            x       y       z     vdW  Elec       q    Type
REMARK                         _______ _______ _______ _____ _____    ______ ____
ROOT
ATOM      1  C   UNL     1       2.381   7.066  19.702  0.00  0.00    +0.000 A 
ATOM      2  C   UNL     1       2.222   7.861  18.564  0.00  0.00    +0.000 A 
ATOM      3  C   UNL     1       3.059   7.697  17.479  0.00  0.00    +0.000 A 
ATOM      4  C   UNL     1       4.032   6.708  17.517  0.00  0.00    +0.000 A 
ATOM      5  C   UNL     1       4.212   5.854  18.632  0.00  0.00    +0.000 A 
ATOM      6  C   UNL     1       3.383   6.082  19.737  0.00  0.00    +0.000 A 
ENDROOT
BRANCH   5   7
ATOM      7  C   UNL     1       5.268   4.715  18.618  0.00  0.00    +0.000 C 
ATOM      8  C   UNL     1       6.632   5.245  19.165  0.00  0.00    +0.000 C 
ATOM      9  C   UNL     1       7.512   5.485  17.946  0.00  0.00    +0.000 C 
ATOM     10  N   UNL     1       7.131   4.428  17.014  0.00  0.00    +0.000 NA
ATOM     11  C   UNL     1       5.682   4.227  17.195  0.00  0.00    +0.000 C 
ATOM     12  H   UNL     1       7.610   3.567  17.282  0.00  0.00    +0.000 HD
BRANCH   7  13
ATOM     13  C   UNL     1       4.745   3.525  19.492  0.00  0.00    +0.000 C 
BRANCH  13  14
ATOM     14  C   UNL     1       3.267   3.188  19.518  0.00  0.00    +0.000 A 
ATOM     15  C   UNL     1       2.546   2.963  18.351  0.00  0.00    +0.000 A 
ATOM     16  C   UNL     1       1.177   2.750  18.378  0.00  0.00    +0.000 A 
ATOM     17  C   UNL     1       0.506   2.701  19.602  0.00  0.00    +0.000 A 
ATOM     18  C   UNL     1       1.212   2.921  20.787  0.00  0.00    +0.000 A 
ATOM     19  C   UNL     1       2.578   3.201  20.749  0.00  0.00    +0.000 A 
ENDBRANCH  13  14
ENDBRANCH   7  13
ENDBRANCH   5   7
BRANCH   1  20
ATOM     20  C   UNL     1       1.431   7.219  20.857  0.00  0.00    +0.000 C 
BRANCH  20  21
ATOM     21  N   UNL     1       1.655   8.475  21.574  0.00  0.00    +0.000 NA
ATOM     22  H   UNL     1       2.360   8.392  22.305  0.00  0.00    +0.000 HD
BRANCH  21  23
ATOM     23  S   UNL     1       0.262   9.167  22.221  0.00  0.00    +0.000 S 
ATOM     24  O   UNL     1       0.621   9.755  23.469  0.00  0.00    +0.000 OA
ATOM     25  O   UNL     1      -0.833   8.223  22.075  0.00  0.00    +0.000 OA
BRANCH  23  29
ATOM     26  C   UNL     1      -1.042  12.357  18.296  0.00  0.00    +0.000 C 
ATOM     27  N   UNL     1      -0.721  11.806  19.591  0.00  0.00    +0.000 N 
ATOM     28  C   UNL     1      -0.548  10.490  19.904  0.00  0.00    +0.000 A 
ATOM     29  C   UNL     1      -0.177  10.485  21.232  0.00  0.00    +0.000 A 
ATOM     30  C   UNL     1      -0.192  11.824  21.635  0.00  0.00    +0.000 A 
ATOM     31  N   UNL     1      -0.529  12.641  20.631  0.00  0.00    +0.000 NA
ENDBRANCH  23  29
ENDBRANCH  21  23
ENDBRANCH  20  21
ENDBRANCH   1  20
TORSDOF 7
ENDMDL
