MODEL 1
REMARK VINA RESULT:      -6.7      0.000      0.000
REMARK  Name = 
REMARK  7 active torsions:
REMARK  status: ('A' for Active; 'I' for Inactive)
REMARK    1  A    between atoms: C_1  and  C_2
REMARK    2  A    between atoms: C_6  and  C_7
REMARK    3  A    between atoms: C_7  and  C_8
REMARK    4  A    between atoms: C_8  and  N_9
REMARK    5  A    between atoms: N_9  and  C_10
REMARK    6  A    between atoms: C_10  and  C_11
REMARK    7  A    between atoms: C_11  and  N_12
REMARK                            x       y       z     vdW  Elec       q    Type
REMARK                         _______ _______ _______ _____ _____    ______ ____
ROOT
ATOM      1  C   UNL     1       7.553   5.061  17.620  0.00  0.00    +0.000 C 
ENDROOT
BRANCH   1   2
ATOM      2  N   UNL     1       7.172   6.114  16.676  0.00  0.00    +0.000 NA
ATOM      3  H   UNL     1       7.101   7.003  17.171  0.00  0.00    +0.000 HD
BRANCH   2   4
ATOM      4  C   UNL     1       5.892   5.811  16.011  0.00  0.00    +0.000 C 
BRANCH   4   5
ATOM      5  C   UNL     1       5.866   4.503  15.205  0.00  0.00    +0.000 C 
BRANCH   5  11
ATOM      6  C   UNL     1       5.443   2.984  12.248  0.00  0.00    +0.000 C 
ATOM      7  C   UNL     1       6.438   3.977  12.716  0.00  0.00    +0.000 A 
ATOM      8  N   UNL     1       7.442   4.456  11.915  0.00  0.00    +0.000 N 
ATOM      9  C   UNL     1       8.178   5.342  12.642  0.00  0.00    +0.000 A 
ATOM     10  N   UNL     1       7.707   5.467  13.859  0.00  0.00    +0.000 NA
ATOM     11  C   UNL     1       6.624   4.619  13.928  0.00  0.00    +0.000 A 
ATOM     12  H   UNL     1       7.612   4.200  10.954  0.00  0.00    +0.000 HD
ENDBRANCH   5  11
ENDBRANCH   4   5
ENDBRANCH   2   4
ENDBRANCH   1   2
BRANCH   1  13
ATOM     13  C   UNL     1       6.926   5.285  19.001  0.00  0.00    +0.000 C 
BRANCH  13  14
ATOM     14  N   UNL     1       5.805   4.390  19.223  0.00  0.00    +0.000 N 
ATOM     15  C   UNL     1       4.517   4.855  19.226  0.00  0.00    +0.000 C 
ATOM     16  O   UNL     1       4.253   6.042  19.070  0.00  0.00    +0.000 OA
ATOM     17  N   UNL     1       3.549   3.898  19.438  0.00  0.00    +0.000 N 
ATOM     18  C   UNL     1       3.746   2.467  19.688  0.00  0.00    +0.000 C 
ATOM     19  C   UNL     1       2.897   1.650  18.709  0.00  0.00    +0.000 C 
ATOM     20  O   UNL     1       1.511   2.021  18.791  0.00  0.00    +0.000 OA
ATOM     21  C   UNL     1       1.335   3.420  18.502  0.00  0.00    +0.000 C 
ATOM     22  C   UNL     1       2.139   4.291  19.472  0.00  0.00    +0.000 C 
ATOM     23  H   UNL     1       5.950   3.448  18.910  0.00  0.00    +0.000 HD
ENDBRANCH  13  14
ENDBRANCH   1  13
TORSDOF 6
ENDMDL
MODEL 2
REMARK VINA RESULT:      -6.4      1.493      1.844
REMARK  Name = 
REMARK  7 active torsions:
REMARK  status: ('A' for Active; 'I' for Inactive)
REMARK    1  A    between atoms: C_1  and  C_2
REMARK    2  A    between atoms: C_6  and  C_7
REMARK    3  A    between atoms: C_7  and  C_8
REMARK    4  A    between atoms: C_8  and  N_9
REMARK    5  A    between atoms: N_9  and  C_10
REMARK    6  A    between atoms: C_10  and  C_11
REMARK    7  A    between atoms: C_11  and  N_12
REMARK                            x       y       z     vdW  Elec       q    Type
REMARK                         _______ _______ _______ _____ _____    ______ ____
ROOT
ATOM      1  C   UNL     1       6.437   6.082  18.051  0.00  0.00    +0.000 C 
ENDROOT
BRANCH   1   2
ATOM      2  N   UNL     1       7.283   5.730  16.908  0.00  0.00    +0.000 NA
ATOM      3  H   UNL     1       7.063   6.344  16.123  0.00  0.00    +0.000 HD
BRANCH   2   4
ATOM      4  C   UNL     1       7.097   4.324  16.508  0.00  0.00    +0.000 C 
BRANCH   4   5
ATOM      5  C   UNL     1       6.163   4.102  15.308  0.00  0.00    +0.000 C 
BRANCH   5  11
ATOM      6  C   UNL     1       5.636   3.037  12.175  0.00  0.00    +0.000 C 
ATOM      7  C   UNL     1       6.577   4.035  12.734  0.00  0.00    +0.000 A 
ATOM      8  N   UNL     1       7.470   4.730  11.960  0.00  0.00    +0.000 N 
ATOM      9  C   UNL     1       8.184   5.556  12.774  0.00  0.00    +0.000 A 
ATOM     10  N   UNL     1       7.802   5.441  14.023  0.00  0.00    +0.000 NA
ATOM     11  C   UNL     1       6.804   4.492  14.021  0.00  0.00    +0.000 A 
ATOM     12  H   UNL     1       7.584   4.647  10.962  0.00  0.00    +0.000 HD
ENDBRANCH   5  11
ENDBRANCH   4   5
ENDBRANCH   2   4
ENDBRANCH   1   2
BRANCH   1  13
ATOM     13  C   UNL     1       5.013   6.439  17.612  0.00  0.00    +0.000 C 
BRANCH  13  14
ATOM     14  N   UNL     1       4.027   5.913  18.540  0.00  0.00    +0.000 N 
ATOM     15  C   UNL     1       3.191   4.891  18.180  0.00  0.00    +0.000 C 
ATOM     16  O   UNL     1       3.216   4.393  17.060  0.00  0.00    +0.000 OA
ATOM     17  N   UNL     1       2.312   4.481  19.159  0.00  0.00    +0.000 N 
ATOM     18  C   UNL     1       2.155   5.033  20.508  0.00  0.00    +0.000 C 
ATOM     19  C   UNL     1       2.242   3.905  21.541  0.00  0.00    +0.000 C 
ATOM     20  O   UNL     1       1.274   2.878  21.268  0.00  0.00    +0.000 OA
ATOM     21  C   UNL     1       1.471   2.321  19.955  0.00  0.00    +0.000 C 
ATOM     22  C   UNL     1       1.365   3.401  18.874  0.00  0.00    +0.000 C 
ATOM     23  H   UNL     1       4.285   5.974  19.507  0.00  0.00    +0.000 HD
ENDBRANCH  13  14
ENDBRANCH   1  13
TORSDOF 6
ENDMDL
MODEL 3
REMARK VINA RESULT:      -6.4      2.736      6.327
REMARK  Name = 
REMARK  7 active torsions:
REMARK  status: ('A' for Active; 'I' for Inactive)
REMARK    1  A    between atoms: C_1  and  C_2
REMARK    2  A    between atoms: C_6  and  C_7
REMARK    3  A    between atoms: C_7  and  C_8
REMARK    4  A    between atoms: C_8  and  N_9
REMARK    5  A    between atoms: N_9  and  C_10
REMARK    6  A    between atoms: C_10  and  C_11
REMARK    7  A    between atoms: C_11  and  N_12
REMARK                            x       y       z     vdW  Elec       q    Type
REMARK                         _______ _______ _______ _____ _____    ______ ____
ROOT
ATOM      1  C   UNL     1       3.334   1.988  20.517  0.00  0.00    +0.000 C 
ENDROOT
BRANCH   1   2
ATOM      2  N   UNL     1       2.901   2.590  21.780  0.00  0.00    +0.000 NA
ATOM      3  H   UNL     1       3.085   1.941  22.545  0.00  0.00    +0.000 HD
BRANCH   2   4
ATOM      4  C   UNL     1       1.468   2.935  21.754  0.00  0.00    +0.000 C 
BRANCH   4   5
ATOM      5  C   UNL     1       0.902   3.280  20.367  0.00  0.00    +0.000 C 
BRANCH   5  11
ATOM      6  C   UNL     1       1.782   4.060  17.230  0.00  0.00    +0.000 C 
ATOM      7  C   UNL     1       1.885   4.813  18.501  0.00  0.00    +0.000 A 
ATOM      8  N   UNL     1       2.425   6.071  18.577  0.00  0.00    +0.000 N 
ATOM      9  C   UNL     1       2.373   6.476  19.877  0.00  0.00    +0.000 A 
ATOM     10  N   UNL     1       1.828   5.560  20.641  0.00  0.00    +0.000 NA
ATOM     11  C   UNL     1       1.522   4.511  19.802  0.00  0.00    +0.000 A 
ATOM     12  H   UNL     1       2.798   6.608  17.810  0.00  0.00    +0.000 HD
ENDBRANCH   5  11
ENDBRANCH   4   5
ENDBRANCH   2   4
ENDBRANCH   1   2
BRANCH   1  13
ATOM     13  C   UNL     1       4.815   2.263  20.237  0.00  0.00    +0.000 C 
BRANCH  13  14
ATOM     14  N   UNL     1       4.994   2.939  18.964  0.00  0.00    +0.000 N 
ATOM     15  C   UNL     1       5.433   4.235  18.907  0.00  0.00    +0.000 C 
ATOM     16  O   UNL     1       5.667   4.888  19.917  0.00  0.00    +0.000 OA
ATOM     17  N   UNL     1       5.569   4.752  17.637  0.00  0.00    +0.000 N 
ATOM     18  C   UNL     1       5.269   4.088  16.365  0.00  0.00    +0.000 C 
ATOM     19  C   UNL     1       6.482   4.183  15.434  0.00  0.00    +0.000 C 
ATOM     20  O   UNL     1       6.881   5.551  15.242  0.00  0.00    +0.000 OA
ATOM     21  C   UNL     1       7.210   6.172  16.499  0.00  0.00    +0.000 C 
ATOM     22  C   UNL     1       6.021   6.134  17.464  0.00  0.00    +0.000 C 
ATOM     23  H   UNL     1       5.240   2.339  18.200  0.00  0.00    +0.000 HD
ENDBRANCH  13  14
ENDBRANCH   1  13
TORSDOF 6
ENDMDL
MODEL 4
REMARK VINA RESULT:      -6.3      2.650      6.754
REMARK  Name = 
REMARK  7 active torsions:
REMARK  status: ('A' for Active; 'I' for Inactive)
REMARK    1  A    between atoms: C_1  and  C_2
REMARK    2  A    between atoms: C_6  and  C_7
REMARK    3  A    between atoms: C_7  and  C_8
REMARK    4  A    between atoms: C_8  and  N_9
REMARK    5  A    between atoms: N_9  and  C_10
REMARK    6  A    between atoms: C_10  and  C_11
REMARK    7  A    between atoms: C_11  and  N_12
REMARK                            x       y       z     vdW  Elec       q    Type
REMARK                         _______ _______ _______ _____ _____    ______ ____
ROOT
ATOM      1  C   UNL     1       1.092   2.495  18.600  0.00  0.00    +0.000 C 
ENDROOT
BRANCH   1   2
ATOM      2  N   UNL     1       0.682   3.422  19.658  0.00  0.00    +0.000 NA
ATOM      3  H   UNL     1       0.425   4.318  19.242  0.00  0.00    +0.000 HD
BRANCH   2   4
ATOM      4  C   UNL     1       1.754   3.624  20.648  0.00  0.00    +0.000 C 
BRANCH   4   5
ATOM      5  C   UNL     1       1.839   5.037  21.245  0.00  0.00    +0.000 C 
BRANCH   5  11
ATOM      6  C   UNL     1       1.295   8.343  21.287  0.00  0.00    +0.000 C 
ATOM      7  C   UNL     1       1.803   7.439  20.230  0.00  0.00    +0.000 A 
ATOM      8  N   UNL     1       2.149   7.880  18.979  0.00  0.00    +0.000 N 
ATOM      9  C   UNL     1       2.570   6.807  18.253  0.00  0.00    +0.000 A 
ATOM     10  N   UNL     1       2.522   5.704  18.961  0.00  0.00    +0.000 NA
ATOM     11  C   UNL     1       2.040   6.076  20.196  0.00  0.00    +0.000 A 
ATOM     12  H   UNL     1       2.101   8.830  18.647  0.00  0.00    +0.000 HD
ENDBRANCH   5  11
ENDBRANCH   4   5
ENDBRANCH   2   4
ENDBRANCH   1   2
BRANCH   1  13
ATOM     13  C   UNL     1       2.557   2.072  18.755  0.00  0.00    +0.000 C 
BRANCH  13  14
ATOM     14  N   UNL     1       3.435   2.906  17.954  0.00  0.00    +0.000 N 
ATOM     15  C   UNL     1       4.585   3.431  18.479  0.00  0.00    +0.000 C 
ATOM     16  O   UNL     1       4.912   3.246  19.645  0.00  0.00    +0.000 OA
ATOM     17  N   UNL     1       5.331   4.195  17.607  0.00  0.00    +0.000 N 
ATOM     18  C   UNL     1       5.014   4.528  16.215  0.00  0.00    +0.000 C 
ATOM     19  C   UNL     1       6.202   4.172  15.316  0.00  0.00    +0.000 C 
ATOM     20  O   UNL     1       7.403   4.825  15.763  0.00  0.00    +0.000 OA
ATOM     21  C   UNL     1       7.718   4.453  17.117  0.00  0.00    +0.000 C 
ATOM     22  C   UNL     1       6.574   4.814  18.071  0.00  0.00    +0.000 C 
ATOM     23  H   UNL     1       3.432   2.699  16.973  0.00  0.00    +0.000 HD
ENDBRANCH  13  14
ENDBRANCH   1  13
TORSDOF 6
ENDMDL
MODEL 5
REMARK VINA RESULT:      -6.2      2.993      6.782
REMARK  Name = 
REMARK  7 active torsions:
REMARK  status: ('A' for Active; 'I' for Inactive)
REMARK    1  A    between atoms: C_1  and  C_2
REMARK    2  A    between atoms: C_6  and  C_7
REMARK    3  A    between atoms: C_7  and  C_8
REMARK    4  A    between atoms: C_8  and  N_9
REMARK    5  A    between atoms: N_9  and  C_10
REMARK    6  A    between atoms: C_10  and  C_11
REMARK    7  A    between atoms: C_11  and  N_12
REMARK                            x       y       z     vdW  Elec       q    Type
REMARK                         _______ _______ _______ _____ _____    ______ ____
ROOT
ATOM      1  C   UNL     1       1.459   2.893  19.675  0.00  0.00    +0.000 C 
ENDROOT
BRANCH   1   2
ATOM      2  N   UNL     1       1.931   3.766  20.753  0.00  0.00    +0.000 NA
ATOM      3  H   UNL     1       1.530   3.457  21.638  0.00  0.00    +0.000 HD
BRANCH   2   4
ATOM      4  C   UNL     1       1.570   5.174  20.507  0.00  0.00    +0.000 C 
BRANCH   4   5
ATOM      5  C   UNL     1       2.703   6.054  19.956  0.00  0.00    +0.000 C 
BRANCH   5  11
ATOM      6  C   UNL     1       1.116   8.555  21.524  0.00  0.00    +0.000 C 
ATOM      7  C   UNL     1       1.539   8.382  20.115  0.00  0.00    +0.000 A 
ATOM      8  N   UNL     1       1.301   9.325  19.148  0.00  0.00    +0.000 N 
ATOM      9  C   UNL     1       1.808   8.861  17.972  0.00  0.00    +0.000 A 
ATOM     10  N   UNL     1       2.361   7.682  18.122  0.00  0.00    +0.000 NA
ATOM     11  C   UNL     1       2.199   7.362  19.452  0.00  0.00    +0.000 A 
ATOM     12  H   UNL     1       0.833  10.208  19.278  0.00  0.00    +0.000 HD
ENDBRANCH   5  11
ENDBRANCH   4   5
ENDBRANCH   2   4
ENDBRANCH   1   2
BRANCH   1  13
ATOM     13  C   UNL     1       2.599   2.058  19.082  0.00  0.00    +0.000 C 
BRANCH  13  14
ATOM     14  N   UNL     1       3.440   2.858  18.208  0.00  0.00    +0.000 N 
ATOM     15  C   UNL     1       4.577   3.460  18.677  0.00  0.00    +0.000 C 
ATOM     16  O   UNL     1       4.922   3.376  19.850  0.00  0.00    +0.000 OA
ATOM     17  N   UNL     1       5.286   4.180  17.740  0.00  0.00    +0.000 N 
ATOM     18  C   UNL     1       4.944   4.394  16.331  0.00  0.00    +0.000 C 
ATOM     19  C   UNL     1       6.135   4.011  15.447  0.00  0.00    +0.000 C 
ATOM     20  O   UNL     1       7.317   4.736  15.827  0.00  0.00    +0.000 OA
ATOM     21  C   UNL     1       7.658   4.480  17.202  0.00  0.00    +0.000 C 
ATOM     22  C   UNL     1       6.512   4.874  18.139  0.00  0.00    +0.000 C 
ATOM     23  H   UNL     1       3.434   2.576  17.246  0.00  0.00    +0.000 HD
ENDBRANCH  13  14
ENDBRANCH   1  13
TORSDOF 6
ENDMDL
MODEL 6
REMARK VINA RESULT:      -6.2      1.332      1.850
REMARK  Name = 
REMARK  7 active torsions:
REMARK  status: ('A' for Active; 'I' for Inactive)
REMARK    1  A    between atoms: C_1  and  C_2
REMARK    2  A    between atoms: C_6  and  C_7
REMARK    3  A    between atoms: C_7  and  C_8
REMARK    4  A    between atoms: C_8  and  N_9
REMARK    5  A    between atoms: N_9  and  C_10
REMARK    6  A    between atoms: C_10  and  C_11
REMARK    7  A    between atoms: C_11  and  N_12
REMARK                            x       y       z     vdW  Elec       q    Type
REMARK                         _______ _______ _______ _____ _____    ______ ____
ROOT
ATOM      1  C   UNL     1       5.700   7.092  17.262  0.00  0.00    +0.000 C 
ENDROOT
BRANCH   1   2
ATOM      2  N   UNL     1       6.071   6.490  15.979  0.00  0.00    +0.000 NA
ATOM      3  H   UNL     1       6.055   7.206  15.253  0.00  0.00    +0.000 HD
BRANCH   2   4
ATOM      4  C   UNL     1       5.161   5.390  15.613  0.00  0.00    +0.000 C 
BRANCH   4   5
ATOM      5  C   UNL     1       5.845   4.129  15.061  0.00  0.00    +0.000 C 
BRANCH   5  11
ATOM      6  C   UNL     1       5.545   2.874  11.969  0.00  0.00    +0.000 C 
ATOM      7  C   UNL     1       6.474   3.874  12.544  0.00  0.00    +0.000 A 
ATOM      8  N   UNL     1       7.456   4.484  11.807  0.00  0.00    +0.000 N 
ATOM      9  C   UNL     1       8.131   5.339  12.626  0.00  0.00    +0.000 A 
ATOM     10  N   UNL     1       7.640   5.321  13.842  0.00  0.00    +0.000 NA
ATOM     11  C   UNL     1       6.608   4.409  13.813  0.00  0.00    +0.000 A 
ATOM     12  H   UNL     1       7.652   4.331  10.830  0.00  0.00    +0.000 HD
ENDBRANCH   5  11
ENDBRANCH   4   5
ENDBRANCH   2   4
ENDBRANCH   1   2
BRANCH   1  13
ATOM     13  C   UNL     1       5.863   6.101  18.421  0.00  0.00    +0.000 C 
BRANCH  13  14
ATOM     14  N   UNL     1       4.598   5.473  18.759  0.00  0.00    +0.000 N 
ATOM     15  C   UNL     1       4.556   4.233  19.337  0.00  0.00    +0.000 C 
ATOM     16  O   UNL     1       5.572   3.588  19.570  0.00  0.00    +0.000 OA
ATOM     17  N   UNL     1       3.292   3.759  19.616  0.00  0.00    +0.000 N 
ATOM     18  C   UNL     1       2.011   4.413  19.335  0.00  0.00    +0.000 C 
ATOM     19  C   UNL     1       1.167   4.465  20.613  0.00  0.00    +0.000 C 
ATOM     20  O   UNL     1       0.987   3.152  21.169  0.00  0.00    +0.000 OA
ATOM     21  C   UNL     1       2.256   2.544  21.475  0.00  0.00    +0.000 C 
ATOM     22  C   UNL     1       3.134   2.437  20.224  0.00  0.00    +0.000 C 
ATOM     23  H   UNL     1       3.860   6.111  18.991  0.00  0.00    +0.000 HD
ENDBRANCH  13  14
ENDBRANCH   1  13
TORSDOF 6
ENDMDL
MODEL 7
REMARK VINA RESULT:      -6.0      2.574      6.302
REMARK  Name = 
REMARK  7 active torsions:
REMARK  status: ('A' for Active; 'I' for Inactive)
REMARK    1  A    between atoms: C_1  and  C_2
REMARK    2  A    between atoms: C_6  and  C_7
REMARK    3  A    between atoms: C_7  and  C_8
REMARK    4  A    between atoms: C_8  and  N_9
REMARK    5  A    between atoms: N_9  and  C_10
REMARK    6  A    between atoms: C_10  and  C_11
REMARK    7  A    between atoms: C_11  and  N_12
REMARK                            x       y       z     vdW  Elec       q    Type
REMARK                         _______ _______ _______ _____ _____    ______ ____
ROOT
ATOM      1  C   UNL     1       2.121   6.509  20.118  0.00  0.00    +0.000 C 
ENDROOT
BRANCH   1   2
ATOM      2  N   UNL     1       1.829   5.074  20.157  0.00  0.00    +0.000 NA
ATOM      3  H   UNL     1       0.835   4.927  19.982  0.00  0.00    +0.000 HD
BRANCH   2   4
ATOM      4  C   UNL     1       2.200   4.480  21.453  0.00  0.00    +0.000 C 
BRANCH   4   5
ATOM      5  C   UNL     1       2.374   2.953  21.449  0.00  0.00    +0.000 C 
BRANCH   5  11
ATOM      6  C   UNL     1       0.354   2.383  18.838  0.00  0.00    +0.000 C 
ATOM      7  C   UNL     1       1.811   2.192  19.020  0.00  0.00    +0.000 A 
ATOM      8  N   UNL     1       2.622   1.688  18.036  0.00  0.00    +0.000 N 
ATOM      9  C   UNL     1       3.894   1.636  18.521  0.00  0.00    +0.000 A 
ATOM     10  N   UNL     1       3.953   2.080  19.754  0.00  0.00    +0.000 NA
ATOM     11  C   UNL     1       2.662   2.427  20.086  0.00  0.00    +0.000 A 
ATOM     12  H   UNL     1       2.334   1.402  17.113  0.00  0.00    +0.000 HD
ENDBRANCH   5  11
ENDBRANCH   4   5
ENDBRANCH   2   4
ENDBRANCH   1   2
BRANCH   1  13
ATOM     13  C   UNL     1       2.486   6.975  18.704  0.00  0.00    +0.000 C 
BRANCH  13  14
ATOM     14  N   UNL     1       3.791   6.478  18.305  0.00  0.00    +0.000 N 
ATOM     15  C   UNL     1       3.915   5.361  17.524  0.00  0.00    +0.000 C 
ATOM     16  O   UNL     1       2.942   4.717  17.149  0.00  0.00    +0.000 OA
ATOM     17  N   UNL     1       5.209   5.006  17.211  0.00  0.00    +0.000 N 
ATOM     18  C   UNL     1       6.446   5.663  17.643  0.00  0.00    +0.000 C 
ATOM     19  C   UNL     1       7.317   5.978  16.423  0.00  0.00    +0.000 C 
ATOM     20  O   UNL     1       7.582   4.792  15.656  0.00  0.00    +0.000 OA
ATOM     21  C   UNL     1       6.356   4.185  15.207  0.00  0.00    +0.000 C 
ATOM     22  C   UNL     1       5.454   3.819  16.389  0.00  0.00    +0.000 C 
ATOM     23  H   UNL     1       4.499   7.182  18.212  0.00  0.00    +0.000 HD
ENDBRANCH  13  14
ENDBRANCH   1  13
TORSDOF 6
ENDMDL
MODEL 8
REMARK VINA RESULT:      -6.0      2.966      6.632
REMARK  Name = 
REMARK  7 active torsions:
REMARK  status: ('A' for Active; 'I' for Inactive)
REMARK    1  A    between atoms: C_1  and  C_2
REMARK    2  A    between atoms: C_6  and  C_7
REMARK    3  A    between atoms: C_7  and  C_8
REMARK    4  A    between atoms: C_8  and  N_9
REMARK    5  A    between atoms: N_9  and  C_10
REMARK    6  A    between atoms: C_10  and  C_11
REMARK    7  A    between atoms: C_11  and  N_12
REMARK                            x       y       z     vdW  Elec       q    Type
REMARK                         _______ _______ _______ _____ _____    ______ ____
ROOT
ATOM      1  C   UNL     1       3.737   1.479  18.456  0.00  0.00    +0.000 C 
ENDROOT
BRANCH   1   2
ATOM      2  N   UNL     1       2.330   1.388  18.853  0.00  0.00    +0.000 NA
ATOM      3  H   UNL     1       2.011   0.425  18.747  0.00  0.00    +0.000 HD
BRANCH   2   4
ATOM      4  C   UNL     1       1.481   2.285  18.049  0.00  0.00    +0.000 C 
BRANCH   4   5
ATOM      5  C   UNL     1       0.782   3.405  18.836  0.00  0.00    +0.000 C 
BRANCH   5  11
ATOM      6  C   UNL     1       2.348   3.807  21.770  0.00  0.00    +0.000 C 
ATOM      7  C   UNL     1       2.376   4.599  20.519  0.00  0.00    +0.000 A 
ATOM      8  N   UNL     1       3.122   5.741  20.380  0.00  0.00    +0.000 N 
ATOM      9  C   UNL     1       2.924   6.225  19.122  0.00  0.00    +0.000 A 
ATOM     10  N   UNL     1       2.101   5.464  18.442  0.00  0.00    +0.000 NA
ATOM     11  C   UNL     1       1.743   4.446  19.298  0.00  0.00    +0.000 A 
ATOM     12  H   UNL     1       3.715   6.156  21.082  0.00  0.00    +0.000 HD
ENDBRANCH   5  11
ENDBRANCH   4   5
ENDBRANCH   2   4
ENDBRANCH   1   2
BRANCH   1  13
ATOM     13  C   UNL     1       3.954   2.547  17.379  0.00  0.00    +0.000 C 
BRANCH  13  14
ATOM     14  N   UNL     1       5.152   3.326  17.641  0.00  0.00    +0.000 N 
ATOM     15  C   UNL     1       5.432   4.457  16.922  0.00  0.00    +0.000 C 
ATOM     16  O   UNL     1       4.707   4.848  16.015  0.00  0.00    +0.000 OA
ATOM     17  N   UNL     1       6.594   5.105  17.281  0.00  0.00    +0.000 N 
ATOM     18  C   UNL     1       7.561   4.704  18.306  0.00  0.00    +0.000 C 
ATOM     19  C   UNL     1       7.816   5.874  19.261  0.00  0.00    +0.000 C 
ATOM     20  O   UNL     1       8.250   7.042  18.545  0.00  0.00    +0.000 OA
ATOM     21  C   UNL     1       7.268   7.443  17.571  0.00  0.00    +0.000 C 
ATOM     22  C   UNL     1       6.994   6.319  16.567  0.00  0.00    +0.000 C 
ATOM     23  H   UNL     1       5.474   3.295  18.590  0.00  0.00    +0.000 HD
ENDBRANCH  13  14
ENDBRANCH   1  13
TORSDOF 6
ENDMDL
MODEL 9
REMARK VINA RESULT:      -6.0      3.903      5.480
REMARK  Name = 
REMARK  7 active torsions:
REMARK  status: ('A' for Active; 'I' for Inactive)
REMARK    1  A    between atoms: C_1  and  C_2
REMARK    2  A    between atoms: C_6  and  C_7
REMARK    3  A    between atoms: C_7  and  C_8
REMARK    4  A    between atoms: C_8  and  N_9
REMARK    5  A    between atoms: N_9  and  C_10
REMARK    6  A    between atoms: C_10  and  C_11
REMARK    7  A    between atoms: C_11  and  N_12
REMARK                            x       y       z     vdW  Elec       q    Type
REMARK                         _______ _______ _______ _____ _____    ______ ____
ROOT
ATOM      1  C   UNL     1       2.814   5.068  18.040  0.00  0.00    +0.000 C 
ENDROOT
BRANCH   1   2
ATOM      2  N   UNL     1       4.040   4.307  17.787  0.00  0.00    +0.000 NA
ATOM      3  H   UNL     1       3.797   3.380  17.439  0.00  0.00    +0.000 HD
BRANCH   2   4
ATOM      4  C   UNL     1       4.862   4.183  19.004  0.00  0.00    +0.000 C 
BRANCH   4   5
ATOM      5  C   UNL     1       6.175   4.981  18.992  0.00  0.00    +0.000 C 
BRANCH   5  11
ATOM      6  C   UNL     1       7.548   7.685  17.568  0.00  0.00    +0.000 C 
ATOM      7  C   UNL     1       7.238   6.338  17.036  0.00  0.00    +0.000 A 
ATOM      8  N   UNL     1       7.489   5.977  15.738  0.00  0.00    +0.000 N 
ATOM      9  C   UNL     1       7.087   4.686  15.572  0.00  0.00    +0.000 A 
ATOM     10  N   UNL     1       6.599   4.192  16.685  0.00  0.00    +0.000 NA
ATOM     11  C   UNL     1       6.679   5.210  17.609  0.00  0.00    +0.000 A 
ATOM     12  H   UNL     1       7.898   6.560  15.024  0.00  0.00    +0.000 HD
ENDBRANCH   5  11
ENDBRANCH   4   5
ENDBRANCH   2   4
ENDBRANCH   1   2
BRANCH   1  13
ATOM     13  C   UNL     1       3.022   6.569  17.814  0.00  0.00    +0.000 C 
BRANCH  13  14
ATOM     14  N   UNL     1       2.406   7.352  18.872  0.00  0.00    +0.000 N 
ATOM     15  C   UNL     1       1.912   8.605  18.628  0.00  0.00    +0.000 C 
ATOM     16  O   UNL     1       1.990   9.133  17.525  0.00  0.00    +0.000 OA
ATOM     17  N   UNL     1       1.345   9.232  19.717  0.00  0.00    +0.000 N 
ATOM     18  C   UNL     1       1.245   8.725  21.089  0.00  0.00    +0.000 C 
ATOM     19  C   UNL     1      -0.208   8.811  21.566  0.00  0.00    +0.000 C 
ATOM     20  O   UNL     1      -0.712  10.153  21.453  0.00  0.00    +0.000 OA
ATOM     21  C   UNL     1      -0.642  10.616  20.092  0.00  0.00    +0.000 C 
ATOM     22  C   UNL     1       0.797  10.582  19.569  0.00  0.00    +0.000 C 
ATOM     23  H   UNL     1       1.953   6.812  19.585  0.00  0.00    +0.000 HD
ENDBRANCH  13  14
ENDBRANCH   1  13
TORSDOF 6
ENDMDL
