MODEL 1
REMARK VINA RESULT:      -8.5      0.000      0.000
REMARK  Name = 
REMARK  2 active torsions:
REMARK  status: ('A' for Active; 'I' for Inactive)
REMARK    1  A    between atoms: C_2  and  C_3
REMARK    2  A    between atoms: C_6  and  C_7
REMARK                            x       y       z     vdW  Elec       q    Type
REMARK                         _______ _______ _______ _____ _____    ______ ____
ROOT
ATOM      1  C   UNL     1       2.895   7.031  18.573  0.00  0.00    +0.000 A 
ATOM      2  C   UNL     1       2.596   8.107  17.741  0.00  0.00    +0.000 A 
ATOM      3  C   UNL     1       1.650   9.039  18.134  0.00  0.00    +0.000 A 
ATOM      4  C   UNL     1       1.144   9.052  19.444  0.00  0.00    +0.000 A 
ATOM      5  C   UNL     1       1.540   8.018  20.313  0.00  0.00    +0.000 A 
ATOM      6  C   UNL     1       2.395   7.000  19.876  0.00  0.00    +0.000 A 
ENDROOT
BRANCH   4   7
ATOM      7  C   UNL     1       0.433  10.246  19.937  0.00  0.00    +0.000 A 
ATOM      8  C   UNL     1      -0.477  10.991  19.144  0.00  0.00    +0.000 A 
ATOM      9  C   UNL     1      -1.400  11.863  19.732  0.00  0.00    +0.000 A 
ATOM     10  C   UNL     1      -1.401  11.958  21.107  0.00  0.00    +0.000 A 
ATOM     11  C   UNL     1      -0.445  11.333  21.866  0.00  0.00    +0.000 A 
ATOM     12  C   UNL     1       0.500  10.515  21.316  0.00  0.00    +0.000 A 
ATOM     13  O   UNL     1      -0.663  11.461  23.205  0.00  0.00    +0.000 OA
ATOM     14  C   UNL     1      -2.035  11.890  23.148  0.00  0.00    +0.000 C 
ATOM     15  O   UNL     1      -2.356  12.529  21.890  0.00  0.00    +0.000 OA
ENDBRANCH   4   7
BRANCH   1  17
ATOM     16  O   UNL     1       4.945   6.040  18.138  0.00  0.00    +0.000 OA
ATOM     17  C   UNL     1       3.731   5.902  18.091  0.00  0.00    +0.000 C 
ATOM     18  N   UNL     1       3.091   4.740  17.637  0.00  0.00    +0.000 N 
ATOM     19  C   UNL     1       1.651   4.439  17.664  0.00  0.00    +0.000 C 
ATOM     20  C   UNL     1       1.343   3.198  18.488  0.00  0.00    +0.000 C 
ATOM     21  C   UNL     1       2.194   2.019  18.045  0.00  0.00    +0.000 C 
ATOM     22  C   UNL     1       3.676   2.395  18.035  0.00  0.00    +0.000 C 
ATOM     23  C   UNL     1       3.926   3.636  17.180  0.00  0.00    +0.000 C 
ENDBRANCH   1  17
TORSDOF 2
ENDMDL
MODEL 2
REMARK VINA RESULT:      -8.3      0.309      1.050
REMARK  Name = 
REMARK  2 active torsions:
REMARK  status: ('A' for Active; 'I' for Inactive)
REMARK    1  A    between atoms: C_2  and  C_3
REMARK    2  A    between atoms: C_6  and  C_7
REMARK                            x       y       z     vdW  Elec       q    Type
REMARK                         _______ _______ _______ _____ _____    ______ ____
ROOT
ATOM      1  C   UNL     1       2.826   6.832  18.625  0.00  0.00    +0.000 A 
ATOM      2  C   UNL     1       2.280   6.906  19.903  0.00  0.00    +0.000 A 
ATOM      3  C   UNL     1       1.720   8.094  20.345  0.00  0.00    +0.000 A 
ATOM      4  C   UNL     1       1.488   9.160  19.461  0.00  0.00    +0.000 A 
ATOM      5  C   UNL     1       1.949   9.029  18.137  0.00  0.00    +0.000 A 
ATOM      6  C   UNL     1       2.632   7.881  17.725  0.00  0.00    +0.000 A 
ENDROOT
BRANCH   4   7
ATOM      7  C   UNL     1       0.578  10.249  19.859  0.00  0.00    +0.000 A 
ATOM      8  C   UNL     1      -0.519  10.673  19.068  0.00  0.00    +0.000 A 
ATOM      9  C   UNL     1      -1.563  11.423  19.622  0.00  0.00    +0.000 A 
ATOM     10  C   UNL     1      -1.491  11.718  20.967  0.00  0.00    +0.000 A 
ATOM     11  C   UNL     1      -0.376  11.413  21.706  0.00  0.00    +0.000 A 
ATOM     12  C   UNL     1       0.680  10.727  21.178  0.00  0.00    +0.000 A 
ATOM     13  O   UNL     1      -0.525  11.693  23.031  0.00  0.00    +0.000 OA
ATOM     14  C   UNL     1      -1.957  11.828  23.051  0.00  0.00    +0.000 C 
ATOM     15  O   UNL     1      -2.489  12.199  21.757  0.00  0.00    +0.000 OA
ENDBRANCH   4   7
BRANCH   1  17
ATOM     16  O   UNL     1       4.845   5.752  18.263  0.00  0.00    +0.000 OA
ATOM     17  C   UNL     1       3.628   5.655  18.204  0.00  0.00    +0.000 C 
ATOM     18  N   UNL     1       2.954   4.497  17.789  0.00  0.00    +0.000 N 
ATOM     19  C   UNL     1       1.504   4.249  17.807  0.00  0.00    +0.000 C 
ATOM     20  C   UNL     1       1.139   3.055  18.677  0.00  0.00    +0.000 C 
ATOM     21  C   UNL     1       1.954   1.830  18.298  0.00  0.00    +0.000 C 
ATOM     22  C   UNL     1       3.449   2.153  18.294  0.00  0.00    +0.000 C 
ATOM     23  C   UNL     1       3.755   3.346  17.393  0.00  0.00    +0.000 C 
ENDBRANCH   1  17
TORSDOF 2
ENDMDL
MODEL 3
REMARK VINA RESULT:      -8.3      1.050      1.826
REMARK  Name = 
REMARK  2 active torsions:
REMARK  status: ('A' for Active; 'I' for Inactive)
REMARK    1  A    between atoms: C_2  and  C_3
REMARK    2  A    between atoms: C_6  and  C_7
REMARK                            x       y       z     vdW  Elec       q    Type
REMARK                         _______ _______ _______ _____ _____    ______ ____
ROOT
ATOM      1  C   UNL     1       2.584   7.016  18.827  0.00  0.00    +0.000 A 
ATOM      2  C   UNL     1       2.206   6.736  20.138  0.00  0.00    +0.000 A 
ATOM      3  C   UNL     1       1.593   7.716  20.901  0.00  0.00    +0.000 A 
ATOM      4  C   UNL     1       1.141   8.911  20.321  0.00  0.00    +0.000 A 
ATOM      5  C   UNL     1       1.434   9.135  18.962  0.00  0.00    +0.000 A 
ATOM      6  C   UNL     1       2.169   8.203  18.223  0.00  0.00    +0.000 A 
ENDROOT
BRANCH   4   7
ATOM      7  C   UNL     1       0.186   9.761  21.057  0.00  0.00    +0.000 A 
ATOM      8  C   UNL     1      -0.351   9.411  22.320  0.00  0.00    +0.000 A 
ATOM      9  C   UNL     1      -0.937  10.374  23.148  0.00  0.00    +0.000 A 
ATOM     10  C   UNL     1      -0.958  11.677  22.696  0.00  0.00    +0.000 A 
ATOM     11  C   UNL     1      -0.548  11.997  21.426  0.00  0.00    +0.000 A 
ATOM     12  C   UNL     1      -0.019  11.068  20.577  0.00  0.00    +0.000 A 
ATOM     13  O   UNL     1      -0.549  13.339  21.191  0.00  0.00    +0.000 OA
ATOM     14  C   UNL     1      -0.629  13.785  22.556  0.00  0.00    +0.000 C 
ATOM     15  O   UNL     1      -1.234  12.794  23.420  0.00  0.00    +0.000 OA
ENDBRANCH   4   7
BRANCH   1  17
ATOM     16  O   UNL     1       4.604   6.390  17.877  0.00  0.00    +0.000 OA
ATOM     17  C   UNL     1       3.438   6.073  18.060  0.00  0.00    +0.000 C 
ATOM     18  N   UNL     1       2.874   4.869  17.614  0.00  0.00    +0.000 N 
ATOM     19  C   UNL     1       1.526   4.350  17.896  0.00  0.00    +0.000 C 
ATOM     20  C   UNL     1       1.569   3.011  18.617  0.00  0.00    +0.000 C 
ATOM     21  C   UNL     1       2.452   2.018  17.879  0.00  0.00    +0.000 C 
ATOM     22  C   UNL     1       3.834   2.616  17.614  0.00  0.00    +0.000 C 
ATOM     23  C   UNL     1       3.729   3.948  16.875  0.00  0.00    +0.000 C 
ENDBRANCH   1  17
TORSDOF 2
ENDMDL
MODEL 4
REMARK VINA RESULT:      -8.2      2.360      8.420
REMARK  Name = 
REMARK  2 active torsions:
REMARK  status: ('A' for Active; 'I' for Inactive)
REMARK    1  A    between atoms: C_2  and  C_3
REMARK    2  A    between atoms: C_6  and  C_7
REMARK                            x       y       z     vdW  Elec       q    Type
REMARK                         _______ _______ _______ _____ _____    ______ ____
ROOT
ATOM      1  C   UNL     1       1.405   9.237  19.413  0.00  0.00    +0.000 A 
ATOM      2  C   UNL     1       1.685   8.117  20.192  0.00  0.00    +0.000 A 
ATOM      3  C   UNL     1       2.279   7.007  19.613  0.00  0.00    +0.000 A 
ATOM      4  C   UNL     1       2.806   7.062  18.313  0.00  0.00    +0.000 A 
ATOM      5  C   UNL     1       2.612   8.243  17.572  0.00  0.00    +0.000 A 
ATOM      6  C   UNL     1       1.897   9.318  18.110  0.00  0.00    +0.000 A 
ENDROOT
BRANCH   4   7
ATOM      7  C   UNL     1       3.738   6.010  17.862  0.00  0.00    +0.000 A 
ATOM      8  C   UNL     1       3.362   4.652  17.710  0.00  0.00    +0.000 A 
ATOM      9  C   UNL     1       4.130   3.772  16.940  0.00  0.00    +0.000 A 
ATOM     10  C   UNL     1       5.255   4.279  16.325  0.00  0.00    +0.000 A 
ATOM     11  C   UNL     1       5.686   5.558  16.567  0.00  0.00    +0.000 A 
ATOM     12  C   UNL     1       4.983   6.424  17.355  0.00  0.00    +0.000 A 
ATOM     13  O   UNL     1       6.754   5.913  15.800  0.00  0.00    +0.000 OA
ATOM     14  C   UNL     1       6.661   4.861  14.823  0.00  0.00    +0.000 C 
ATOM     15  O   UNL     1       5.991   3.689  15.344  0.00  0.00    +0.000 OA
ENDBRANCH   4   7
BRANCH   1  17
ATOM     16  O   UNL     1       1.107  11.132  20.715  0.00  0.00    +0.000 OA
ATOM     17  C   UNL     1       0.573  10.347  19.944  0.00  0.00    +0.000 C 
ATOM     18  N   UNL     1      -0.758  10.451  19.518  0.00  0.00    +0.000 N 
ATOM     19  C   UNL     1      -1.442   9.634  18.504  0.00  0.00    +0.000 C 
ATOM     20  C   UNL     1      -1.957  10.475  17.345  0.00  0.00    +0.000 C 
ATOM     21  C   UNL     1      -2.796  11.640  17.843  0.00  0.00    +0.000 C 
ATOM     22  C   UNL     1      -2.033  12.447  18.894  0.00  0.00    +0.000 C 
ATOM     23  C   UNL     1      -1.557  11.554  20.038  0.00  0.00    +0.000 C 
ENDBRANCH   1  17
TORSDOF 2
ENDMDL
MODEL 5
REMARK VINA RESULT:      -7.9      1.344      1.686
REMARK  Name = 
REMARK  2 active torsions:
REMARK  status: ('A' for Active; 'I' for Inactive)
REMARK    1  A    between atoms: C_2  and  C_3
REMARK    2  A    between atoms: C_6  and  C_7
REMARK                            x       y       z     vdW  Elec       q    Type
REMARK                         _______ _______ _______ _____ _____    ______ ____
ROOT
ATOM      1  C   UNL     1       2.811   7.111  18.586  0.00  0.00    +0.000 A 
ATOM      2  C   UNL     1       2.489   8.256  17.860  0.00  0.00    +0.000 A 
ATOM      3  C   UNL     1       1.580   9.165  18.376  0.00  0.00    +0.000 A 
ATOM      4  C   UNL     1       1.141   9.077  19.706  0.00  0.00    +0.000 A 
ATOM      5  C   UNL     1       1.563   7.970  20.467  0.00  0.00    +0.000 A 
ATOM      6  C   UNL     1       2.377   6.981  19.905  0.00  0.00    +0.000 A 
ENDROOT
BRANCH   4   7
ATOM      7  C   UNL     1       0.477  10.236  20.330  0.00  0.00    +0.000 A 
ATOM      8  C   UNL     1      -0.288  10.146  21.520  0.00  0.00    +0.000 A 
ATOM      9  C   UNL     1      -0.580  11.284  22.280  0.00  0.00    +0.000 A 
ATOM     10  C   UNL     1      -0.083  12.491  21.836  0.00  0.00    +0.000 A 
ATOM     11  C   UNL     1       0.553  12.599  20.625  0.00  0.00    +0.000 A 
ATOM     12  C   UNL     1       0.807  11.512  19.838  0.00  0.00    +0.000 A 
ATOM     13  O   UNL     1       1.057  13.844  20.400  0.00  0.00    +0.000 OA
ATOM     14  C   UNL     1       0.991  14.338  21.749  0.00  0.00    +0.000 C 
ATOM     15  O   UNL     1      -0.021  13.659  22.530  0.00  0.00    +0.000 OA
ENDBRANCH   4   7
BRANCH   1  17
ATOM     16  O   UNL     1       4.806   6.186  17.853  0.00  0.00    +0.000 OA
ATOM     17  C   UNL     1       3.602   6.015  17.971  0.00  0.00    +0.000 C 
ATOM     18  N   UNL     1       2.936   4.842  17.586  0.00  0.00    +0.000 N 
ATOM     19  C   UNL     1       1.522   4.500  17.804  0.00  0.00    +0.000 C 
ATOM     20  C   UNL     1       1.362   3.237  18.638  0.00  0.00    +0.000 C 
ATOM     21  C   UNL     1       2.175   2.091  18.059  0.00  0.00    +0.000 C 
ATOM     22  C   UNL     1       3.631   2.509  17.853  0.00  0.00    +0.000 C 
ATOM     23  C   UNL     1       3.729   3.770  16.997  0.00  0.00    +0.000 C 
ENDBRANCH   1  17
TORSDOF 2
ENDMDL
MODEL 6
REMARK VINA RESULT:      -7.9      1.390      2.058
REMARK  Name = 
REMARK  2 active torsions:
REMARK  status: ('A' for Active; 'I' for Inactive)
REMARK    1  A    between atoms: C_2  and  C_3
REMARK    2  A    between atoms: C_6  and  C_7
REMARK                            x       y       z     vdW  Elec       q    Type
REMARK                         _______ _______ _______ _____ _____    ______ ____
ROOT
ATOM      1  C   UNL     1       2.917   7.039  18.540  0.00  0.00    +0.000 A 
ATOM      2  C   UNL     1       2.640   8.082  17.660  0.00  0.00    +0.000 A 
ATOM      3  C   UNL     1       1.698   9.038  18.000  0.00  0.00    +0.000 A 
ATOM      4  C   UNL     1       1.173   9.110  19.300  0.00  0.00    +0.000 A 
ATOM      5  C   UNL     1       1.547   8.110  20.217  0.00  0.00    +0.000 A 
ATOM      6  C   UNL     1       2.397   7.068  19.835  0.00  0.00    +0.000 A 
ENDROOT
BRANCH   4   7
ATOM      7  C   UNL     1       0.467  10.331  19.731  0.00  0.00    +0.000 A 
ATOM      8  C   UNL     1       0.463  10.794  21.071  0.00  0.00    +0.000 A 
ATOM      9  C   UNL     1       0.120  12.115  21.378  0.00  0.00    +0.000 A 
ATOM     10  C   UNL     1      -0.198  12.951  20.329  0.00  0.00    +0.000 A 
ATOM     11  C   UNL     1      -0.311  12.476  19.047  0.00  0.00    +0.000 A 
ATOM     12  C   UNL     1      -0.032  11.179  18.726  0.00  0.00    +0.000 A 
ATOM     13  O   UNL     1      -0.536  13.462  18.134  0.00  0.00    +0.000 OA
ATOM     14  C   UNL     1      -0.162  14.585  18.951  0.00  0.00    +0.000 C 
ATOM     15  O   UNL     1      -0.307  14.307  20.363  0.00  0.00    +0.000 OA
ENDBRANCH   4   7
BRANCH   1  17
ATOM     16  O   UNL     1       4.962   6.002  18.201  0.00  0.00    +0.000 OA
ATOM     17  C   UNL     1       3.748   5.883  18.118  0.00  0.00    +0.000 C 
ATOM     18  N   UNL     1       3.104   4.719  17.676  0.00  0.00    +0.000 N 
ATOM     19  C   UNL     1       1.659   4.443  17.664  0.00  0.00    +0.000 C 
ATOM     20  C   UNL     1       1.302   3.231  18.512  0.00  0.00    +0.000 C 
ATOM     21  C   UNL     1       2.147   2.026  18.131  0.00  0.00    +0.000 C 
ATOM     22  C   UNL     1       3.635   2.377  18.159  0.00  0.00    +0.000 C 
ATOM     23  C   UNL     1       3.934   3.588  17.279  0.00  0.00    +0.000 C 
ENDBRANCH   1  17
TORSDOF 2
ENDMDL
MODEL 7
REMARK VINA RESULT:      -7.9      1.466      2.532
REMARK  Name = 
REMARK  2 active torsions:
REMARK  status: ('A' for Active; 'I' for Inactive)
REMARK    1  A    between atoms: C_2  and  C_3
REMARK    2  A    between atoms: C_6  and  C_7
REMARK                            x       y       z     vdW  Elec       q    Type
REMARK                         _______ _______ _______ _____ _____    ______ ____
ROOT
ATOM      1  C   UNL     1       2.518   6.401  18.379  0.00  0.00    +0.000 A 
ATOM      2  C   UNL     1       2.179   6.501  19.726  0.00  0.00    +0.000 A 
ATOM      3  C   UNL     1       1.819   7.729  20.256  0.00  0.00    +0.000 A 
ATOM      4  C   UNL     1       1.572   8.833  19.426  0.00  0.00    +0.000 A 
ATOM      5  C   UNL     1       1.814   8.688  18.046  0.00  0.00    +0.000 A 
ATOM      6  C   UNL     1       2.304   7.485  17.527  0.00  0.00    +0.000 A 
ENDROOT
BRANCH   4   7
ATOM      7  C   UNL     1       0.851  10.002  19.965  0.00  0.00    +0.000 A 
ATOM      8  C   UNL     1       0.006  10.824  19.179  0.00  0.00    +0.000 A 
ATOM      9  C   UNL     1      -0.938  11.668  19.774  0.00  0.00    +0.000 A 
ATOM     10  C   UNL     1      -1.025  11.657  21.150  0.00  0.00    +0.000 A 
ATOM     11  C   UNL     1      -0.130  10.954  21.916  0.00  0.00    +0.000 A 
ATOM     12  C   UNL     1       0.835  10.162  21.363  0.00  0.00    +0.000 A 
ATOM     13  O   UNL     1      -0.431  10.984  23.244  0.00  0.00    +0.000 OA
ATOM     14  C   UNL     1      -1.789  11.444  23.136  0.00  0.00    +0.000 C 
ATOM     15  O   UNL     1      -2.018  12.186  21.914  0.00  0.00    +0.000 OA
ENDBRANCH   4   7
BRANCH   1  17
ATOM     16  O   UNL     1       2.357   4.274  17.472  0.00  0.00    +0.000 OA
ATOM     17  C   UNL     1       3.120   5.158  17.833  0.00  0.00    +0.000 C 
ATOM     18  N   UNL     1       4.516   5.074  17.739  0.00  0.00    +0.000 N 
ATOM     19  C   UNL     1       5.500   6.129  18.028  0.00  0.00    +0.000 C 
ATOM     20  C   UNL     1       6.345   6.472  16.810  0.00  0.00    +0.000 C 
ATOM     21  C   UNL     1       6.964   5.224  16.202  0.00  0.00    +0.000 C 
ATOM     22  C   UNL     1       5.894   4.167  15.928  0.00  0.00    +0.000 C 
ATOM     23  C   UNL     1       5.091   3.853  17.188  0.00  0.00    +0.000 C 
ENDBRANCH   1  17
TORSDOF 2
ENDMDL
MODEL 8
REMARK VINA RESULT:      -7.9      1.249      2.135
REMARK  Name = 
REMARK  2 active torsions:
REMARK  status: ('A' for Active; 'I' for Inactive)
REMARK    1  A    between atoms: C_2  and  C_3
REMARK    2  A    between atoms: C_6  and  C_7
REMARK                            x       y       z     vdW  Elec       q    Type
REMARK                         _______ _______ _______ _____ _____    ______ ____
ROOT
ATOM      1  C   UNL     1       2.802   6.916  18.704  0.00  0.00    +0.000 A 
ATOM      2  C   UNL     1       2.197   7.006  19.955  0.00  0.00    +0.000 A 
ATOM      3  C   UNL     1       1.568   8.181  20.333  0.00  0.00    +0.000 A 
ATOM      4  C   UNL     1       1.331   9.208  19.406  0.00  0.00    +0.000 A 
ATOM      5  C   UNL     1       1.854   9.057  18.108  0.00  0.00    +0.000 A 
ATOM      6  C   UNL     1       2.604   7.927  17.763  0.00  0.00    +0.000 A 
ENDROOT
BRANCH   4   7
ATOM      7  C   UNL     1       0.358  10.268  19.730  0.00  0.00    +0.000 A 
ATOM      8  C   UNL     1      -0.165  10.472  21.031  0.00  0.00    +0.000 A 
ATOM      9  C   UNL     1      -0.772  11.682  21.384  0.00  0.00    +0.000 A 
ATOM     10  C   UNL     1      -0.826  12.672  20.426  0.00  0.00    +0.000 A 
ATOM     11  C   UNL     1      -0.430  12.436  19.134  0.00  0.00    +0.000 A 
ATOM     12  C   UNL     1       0.119  11.247  18.747  0.00  0.00    +0.000 A 
ATOM     13  O   UNL     1      -0.465  13.554  18.356  0.00  0.00    +0.000 OA
ATOM     14  C   UNL     1      -0.550  14.531  19.408  0.00  0.00    +0.000 C 
ATOM     15  O   UNL     1      -1.127  13.984  20.617  0.00  0.00    +0.000 OA
ENDBRANCH   4   7
BRANCH   1  17
ATOM     16  O   UNL     1       4.872   5.886  18.545  0.00  0.00    +0.000 OA
ATOM     17  C   UNL     1       3.671   5.763  18.356  0.00  0.00    +0.000 C 
ATOM     18  N   UNL     1       3.071   4.597  17.860  0.00  0.00    +0.000 N 
ATOM     19  C   UNL     1       1.633   4.316  17.721  0.00  0.00    +0.000 C 
ATOM     20  C   UNL     1       1.207   3.103  18.535  0.00  0.00    +0.000 C 
ATOM     21  C   UNL     1       2.086   1.901  18.229  0.00  0.00    +0.000 C 
ATOM     22  C   UNL     1       3.564   2.257  18.387  0.00  0.00    +0.000 C 
ATOM     23  C   UNL     1       3.936   3.469  17.536  0.00  0.00    +0.000 C 
ENDBRANCH   1  17
TORSDOF 2
ENDMDL
MODEL 9
REMARK VINA RESULT:      -7.9      1.583      2.419
REMARK  Name = 
REMARK  2 active torsions:
REMARK  status: ('A' for Active; 'I' for Inactive)
REMARK    1  A    between atoms: C_2  and  C_3
REMARK    2  A    between atoms: C_6  and  C_7
REMARK                            x       y       z     vdW  Elec       q    Type
REMARK                         _______ _______ _______ _____ _____    ______ ____
ROOT
ATOM      1  C   UNL     1       2.617   6.304  18.529  0.00  0.00    +0.000 A 
ATOM      2  C   UNL     1       2.486   7.512  17.849  0.00  0.00    +0.000 A 
ATOM      3  C   UNL     1       1.808   8.565  18.441  0.00  0.00    +0.000 A 
ATOM      4  C   UNL     1       1.441   8.522  19.795  0.00  0.00    +0.000 A 
ATOM      5  C   UNL     1       1.679   7.329  20.505  0.00  0.00    +0.000 A 
ATOM      6  C   UNL     1       2.245   6.218  19.871  0.00  0.00    +0.000 A 
ENDROOT
BRANCH   4   7
ATOM      7  C   UNL     1       1.058   9.769  20.484  0.00  0.00    +0.000 A 
ATOM      8  C   UNL     1       0.966  11.022  19.828  0.00  0.00    +0.000 A 
ATOM      9  C   UNL     1       0.254  12.084  20.396  0.00  0.00    +0.000 A 
ATOM     10  C   UNL     1      -0.366  11.860  21.607  0.00  0.00    +0.000 A 
ATOM     11  C   UNL     1      -0.179  10.690  22.299  0.00  0.00    +0.000 A 
ATOM     12  C   UNL     1       0.553   9.655  21.792  0.00  0.00    +0.000 A 
ATOM     13  O   UNL     1      -0.944  10.611  23.424  0.00  0.00    +0.000 OA
ATOM     14  C   UNL     1      -1.870  11.668  23.115  0.00  0.00    +0.000 C 
ATOM     15  O   UNL     1      -1.304  12.642  22.207  0.00  0.00    +0.000 OA
ENDBRANCH   4   7
BRANCH   1  17
ATOM     16  O   UNL     1       2.317   4.276  17.446  0.00  0.00    +0.000 OA
ATOM     17  C   UNL     1       3.136   5.093  17.842  0.00  0.00    +0.000 C 
ATOM     18  N   UNL     1       4.520   4.965  17.664  0.00  0.00    +0.000 N 
ATOM     19  C   UNL     1       5.562   5.950  17.992  0.00  0.00    +0.000 C 
ATOM     20  C   UNL     1       6.358   6.371  16.765  0.00  0.00    +0.000 C 
ATOM     21  C   UNL     1       6.890   5.161  16.015  0.00  0.00    +0.000 C 
ATOM     22  C   UNL     1       5.763   4.175  15.707  0.00  0.00    +0.000 C 
ATOM     23  C   UNL     1       5.013   3.778  16.976  0.00  0.00    +0.000 C 
ENDBRANCH   1  17
TORSDOF 2
ENDMDL
