MODEL 1
REMARK VINA RESULT:      -7.6      0.000      0.000
REMARK  Name = 
REMARK  10 active torsions:
REMARK  status: ('A' for Active; 'I' for Inactive)
REMARK    1  A    between atoms: C_1  and  C_2
REMARK    2  A    between atoms: C_2  and  C_3
REMARK    3  A    between atoms: C_3  and  N_4
REMARK    4  A    between atoms: N_4  and  C_5
REMARK    5  A    between atoms: C_5  and  C_6
REMARK    6  A    between atoms: C_6  and  C_7
REMARK    7  A    between atoms: C_8  and  C_10
REMARK    8  A    between atoms: C_10  and  C_11
REMARK    9  A    between atoms: N_13  and  C_14
REMARK   10  A    between atoms: C_14  and  C_15
REMARK                            x       y       z     vdW  Elec       q    Type
REMARK                         _______ _______ _______ _____ _____    ______ ____
ROOT
ATOM      1  C   UNL     1       2.586   5.713  19.987  0.00  0.00    +0.000 A 
ATOM      2  C   UNL     1       3.911   5.746  19.603  0.00  0.00    +0.000 A 
ATOM      3  N   UNL     1       4.256   4.505  19.133  0.00  0.00    +0.000 N 
ATOM      4  C   UNL     1       3.146   3.685  19.098  0.00  0.00    +0.000 A 
ATOM      5  C   UNL     1       2.987   2.358  18.667  0.00  0.00    +0.000 A 
ATOM      6  C   UNL     1       1.723   1.771  18.779  0.00  0.00    +0.000 A 
ATOM      7  C   UNL     1       0.649   2.482  19.306  0.00  0.00    +0.000 A 
ATOM      8  C   UNL     1       0.819   3.803  19.737  0.00  0.00    +0.000 A 
ATOM      9  C   UNL     1       2.083   4.422  19.628  0.00  0.00    +0.000 A 
ENDROOT
BRANCH   1  10
ATOM     10  C   UNL     1       1.854   6.811  20.699  0.00  0.00    +0.000 C 
BRANCH  10  12
ATOM     11  N   UNL     1       0.697   8.984  20.187  0.00  0.00    +0.000 N 
ATOM     12  C   UNL     1       1.669   8.046  19.807  0.00  0.00    +0.000 C 
ATOM     13  O   UNL     1       2.337   8.210  18.784  0.00  0.00    +0.000 OA
BRANCH  11  14
ATOM     14  C   UNL     1       0.477  10.122  19.277  0.00  0.00    +0.000 C 
BRANCH  14  16
ATOM     15  C   UNL     1      -1.488  10.045  17.635  0.00  0.00    +0.000 C 
ATOM     16  C   UNL     1      -0.984  10.486  19.000  0.00  0.00    +0.000 C 
ENDBRANCH  14  16
ENDBRANCH  11  14
BRANCH  11  17
ATOM     17  C   UNL     1      -0.134   8.869  21.390  0.00  0.00    +0.000 C 
BRANCH  17  18
ATOM     18  C   UNL     1       0.204   9.848  22.523  0.00  0.00    +0.000 C 
ATOM     19  C   UNL     1      -0.983  10.656  23.027  0.00  0.00    +0.000 C 
ENDBRANCH  17  18
ENDBRANCH  11  17
ENDBRANCH  10  12
ENDBRANCH   1  10
BRANCH   3  20
ATOM     20  C   UNL     1       5.625   4.112  18.810  0.00  0.00    +0.000 C 
BRANCH  20  21
ATOM     21  C   UNL     1       5.946   4.365  17.357  0.00  0.00    +0.000 A 
ATOM     22  C   UNL     1       4.988   4.125  16.359  0.00  0.00    +0.000 A 
ATOM     23  C   UNL     1       5.312   4.281  15.012  0.00  0.00    +0.000 A 
ATOM     24  C   UNL     1       6.593   4.693  14.655  0.00  0.00    +0.000 A 
ATOM     25 BR   UNL     1       7.053   4.842  12.828  0.00  0.00    +0.000 Br
ATOM     26  C   UNL     1       7.542   4.981  15.633  0.00  0.00    +0.000 A 
ATOM     27  C   UNL     1       7.217   4.821  16.982  0.00  0.00    +0.000 A 
ENDBRANCH  20  21
ENDBRANCH   3  20
TORSDOF 8
ENDMDL
MODEL 2
REMARK VINA RESULT:      -7.5      1.242      2.371
REMARK  Name = 
REMARK  10 active torsions:
REMARK  status: ('A' for Active; 'I' for Inactive)
REMARK    1  A    between atoms: C_1  and  C_2
REMARK    2  A    between atoms: C_2  and  C_3
REMARK    3  A    between atoms: C_3  and  N_4
REMARK    4  A    between atoms: N_4  and  C_5
REMARK    5  A    between atoms: C_5  and  C_6
REMARK    6  A    between atoms: C_6  and  C_7
REMARK    7  A    between atoms: C_8  and  C_10
REMARK    8  A    between atoms: C_10  and  C_11
REMARK    9  A    between atoms: N_13  and  C_14
REMARK   10  A    between atoms: C_14  and  C_15
REMARK                            x       y       z     vdW  Elec       q    Type
REMARK                         _______ _______ _______ _____ _____    ______ ____
ROOT
ATOM      1  C   UNL     1       2.465   6.631  18.626  0.00  0.00    +0.000 A 
ATOM      2  C   UNL     1       3.705   6.531  18.028  0.00  0.00    +0.000 A 
ATOM      3  N   UNL     1       4.307   5.380  18.469  0.00  0.00    +0.000 N 
ATOM      4  C   UNL     1       3.434   4.663  19.263  0.00  0.00    +0.000 A 
ATOM      5  C   UNL     1       3.573   3.423  19.906  0.00  0.00    +0.000 A 
ATOM      6  C   UNL     1       2.506   2.953  20.678  0.00  0.00    +0.000 A 
ATOM      7  C   UNL     1       1.336   3.695  20.808  0.00  0.00    +0.000 A 
ATOM      8  C   UNL     1       1.210   4.933  20.166  0.00  0.00    +0.000 A 
ATOM      9  C   UNL     1       2.269   5.427  19.374  0.00  0.00    +0.000 A 
ENDROOT
BRANCH   1  10
ATOM     10  C   UNL     1       1.546   7.812  18.541  0.00  0.00    +0.000 C 
BRANCH  10  12
ATOM     11  N   UNL     1       0.850   9.831  19.869  0.00  0.00    +0.000 N 
ATOM     12  C   UNL     1       1.467   8.571  19.872  0.00  0.00    +0.000 C 
ATOM     13  O   UNL     1       1.939   8.104  20.911  0.00  0.00    +0.000 OA
BRANCH  11  14
ATOM     14  C   UNL     1       0.854  10.580  21.137  0.00  0.00    +0.000 C 
BRANCH  14  16
ATOM     15  C   UNL     1      -0.182   9.558  23.246  0.00  0.00    +0.000 C 
ATOM     16  C   UNL     1      -0.392  10.423  22.013  0.00  0.00    +0.000 C 
ENDBRANCH  14  16
ENDBRANCH  11  14
BRANCH  11  17
ATOM     17  C   UNL     1       0.257  10.456  18.680  0.00  0.00    +0.000 C 
BRANCH  17  18
ATOM     18  C   UNL     1      -1.270  10.350  18.570  0.00  0.00    +0.000 C 
ATOM     19  C   UNL     1      -1.771   9.922  17.199  0.00  0.00    +0.000 C 
ENDBRANCH  17  18
ENDBRANCH  11  17
ENDBRANCH  10  12
ENDBRANCH   1  10
BRANCH   3  20
ATOM     20  C   UNL     1       5.699   5.037  18.195  0.00  0.00    +0.000 C 
BRANCH  20  21
ATOM     21  C   UNL     1       5.929   4.788  16.724  0.00  0.00    +0.000 A 
ATOM     22  C   UNL     1       5.024   4.017  15.978  0.00  0.00    +0.000 A 
ATOM     23  C   UNL     1       5.280   3.720  14.639  0.00  0.00    +0.000 A 
ATOM     24  C   UNL     1       6.436   4.206  14.035  0.00  0.00    +0.000 A 
ATOM     25 BR   UNL     1       6.816   3.750  12.240  0.00  0.00    +0.000 Br
ATOM     26  C   UNL     1       7.322   5.011  14.747  0.00  0.00    +0.000 A 
ATOM     27  C   UNL     1       7.066   5.305  16.088  0.00  0.00    +0.000 A 
ENDBRANCH  20  21
ENDBRANCH   3  20
TORSDOF 8
ENDMDL
MODEL 3
REMARK VINA RESULT:      -7.4      1.095      1.278
REMARK  Name = 
REMARK  10 active torsions:
REMARK  status: ('A' for Active; 'I' for Inactive)
REMARK    1  A    between atoms: C_1  and  C_2
REMARK    2  A    between atoms: C_2  and  C_3
REMARK    3  A    between atoms: C_3  and  N_4
REMARK    4  A    between atoms: N_4  and  C_5
REMARK    5  A    between atoms: C_5  and  C_6
REMARK    6  A    between atoms: C_6  and  C_7
REMARK    7  A    between atoms: C_8  and  C_10
REMARK    8  A    between atoms: C_10  and  C_11
REMARK    9  A    between atoms: N_13  and  C_14
REMARK   10  A    between atoms: C_14  and  C_15
REMARK                            x       y       z     vdW  Elec       q    Type
REMARK                         _______ _______ _______ _____ _____    ______ ____
ROOT
ATOM      1  C   UNL     1       2.593   6.251  19.833  0.00  0.00    +0.000 A 
ATOM      2  C   UNL     1       3.878   6.246  19.329  0.00  0.00    +0.000 A 
ATOM      3  N   UNL     1       4.266   4.943  19.147  0.00  0.00    +0.000 N 
ATOM      4  C   UNL     1       3.213   4.093  19.419  0.00  0.00    +0.000 A 
ATOM      5  C   UNL     1       3.108   2.694  19.342  0.00  0.00    +0.000 A 
ATOM      6  C   UNL     1       1.898   2.099  19.713  0.00  0.00    +0.000 A 
ATOM      7  C   UNL     1       0.825   2.871  20.148  0.00  0.00    +0.000 A 
ATOM      8  C   UNL     1       0.942   4.263  20.225  0.00  0.00    +0.000 A 
ATOM      9  C   UNL     1       2.150   4.891  19.849  0.00  0.00    +0.000 A 
ENDROOT
BRANCH   1  10
ATOM     10  C   UNL     1       1.850   7.459  20.320  0.00  0.00    +0.000 C 
BRANCH  10  12
ATOM     11  N   UNL     1       1.272   9.794  19.585  0.00  0.00    +0.000 N 
ATOM     12  C   UNL     1       1.657   8.498  19.208  0.00  0.00    +0.000 C 
ATOM     13  O   UNL     1       1.820   8.211  18.020  0.00  0.00    +0.000 OA
BRANCH  11  14
ATOM     14  C   UNL     1       1.014  10.757  18.500  0.00  0.00    +0.000 C 
BRANCH  14  16
ATOM     15  C   UNL     1       0.745  13.279  18.864  0.00  0.00    +0.000 C 
ATOM     16  C   UNL     1       1.701  12.118  18.634  0.00  0.00    +0.000 C 
ENDBRANCH  14  16
ENDBRANCH  11  14
BRANCH  11  17
ATOM     17  C   UNL     1       1.065  10.220  20.974  0.00  0.00    +0.000 C 
BRANCH  17  18
ATOM     18  C   UNL     1      -0.367  10.069  21.506  0.00  0.00    +0.000 C 
ATOM     19  C   UNL     1      -0.452   9.631  22.960  0.00  0.00    +0.000 C 
ENDBRANCH  17  18
ENDBRANCH  11  17
ENDBRANCH  10  12
ENDBRANCH   1  10
BRANCH   3  20
ATOM     20  C   UNL     1       5.627   4.544  18.803  0.00  0.00    +0.000 C 
BRANCH  20  21
ATOM     21  C   UNL     1       5.828   4.491  17.308  0.00  0.00    +0.000 A 
ATOM     22  C   UNL     1       4.802   4.039  16.462  0.00  0.00    +0.000 A 
ATOM     23  C   UNL     1       5.017   3.914  15.090  0.00  0.00    +0.000 A 
ATOM     24  C   UNL     1       6.255   4.255  14.553  0.00  0.00    +0.000 A 
ATOM     25 BR   UNL     1       6.569   4.025  12.703  0.00  0.00    +0.000 Br
ATOM     26  C   UNL     1       7.269   4.750  15.370  0.00  0.00    +0.000 A 
ATOM     27  C   UNL     1       7.054   4.871  16.744  0.00  0.00    +0.000 A 
ENDBRANCH  20  21
ENDBRANCH   3  20
TORSDOF 8
ENDMDL
MODEL 4
REMARK VINA RESULT:      -7.4      1.277      2.454
REMARK  Name = 
REMARK  10 active torsions:
REMARK  status: ('A' for Active; 'I' for Inactive)
REMARK    1  A    between atoms: C_1  and  C_2
REMARK    2  A    between atoms: C_2  and  C_3
REMARK    3  A    between atoms: C_3  and  N_4
REMARK    4  A    between atoms: N_4  and  C_5
REMARK    5  A    between atoms: C_5  and  C_6
REMARK    6  A    between atoms: C_6  and  C_7
REMARK    7  A    between atoms: C_8  and  C_10
REMARK    8  A    between atoms: C_10  and  C_11
REMARK    9  A    between atoms: N_13  and  C_14
REMARK   10  A    between atoms: C_14  and  C_15
REMARK                            x       y       z     vdW  Elec       q    Type
REMARK                         _______ _______ _______ _____ _____    ______ ____
ROOT
ATOM      1  C   UNL     1       2.442   6.593  18.780  0.00  0.00    +0.000 A 
ATOM      2  C   UNL     1       3.701   6.524  18.220  0.00  0.00    +0.000 A 
ATOM      3  N   UNL     1       4.320   5.391  18.684  0.00  0.00    +0.000 N 
ATOM      4  C   UNL     1       3.443   4.655  19.455  0.00  0.00    +0.000 A 
ATOM      5  C   UNL     1       3.596   3.422  20.109  0.00  0.00    +0.000 A 
ATOM      6  C   UNL     1       2.520   2.927  20.852  0.00  0.00    +0.000 A 
ATOM      7  C   UNL     1       1.328   3.639  20.944  0.00  0.00    +0.000 A 
ATOM      8  C   UNL     1       1.187   4.870  20.292  0.00  0.00    +0.000 A 
ATOM      9  C   UNL     1       2.256   5.388  19.529  0.00  0.00    +0.000 A 
ENDROOT
BRANCH   1  10
ATOM     10  C   UNL     1       1.495   7.749  18.662  0.00  0.00    +0.000 C 
BRANCH  10  12
ATOM     11  N   UNL     1       0.880   9.854  19.894  0.00  0.00    +0.000 N 
ATOM     12  C   UNL     1       1.418   8.560  19.963  0.00  0.00    +0.000 C 
ATOM     13  O   UNL     1       1.825   8.103  21.034  0.00  0.00    +0.000 OA
BRANCH  11  14
ATOM     14  C   UNL     1       0.888  10.647  21.136  0.00  0.00    +0.000 C 
BRANCH  14  16
ATOM     15  C   UNL     1      -0.393   9.709  23.147  0.00  0.00    +0.000 C 
ATOM     16  C   UNL     1      -0.412  10.640  21.944  0.00  0.00    +0.000 C 
ENDBRANCH  14  16
ENDBRANCH  11  14
BRANCH  11  17
ATOM     17  C   UNL     1       0.367  10.469  18.664  0.00  0.00    +0.000 C 
BRANCH  17  18
ATOM     18  C   UNL     1      -1.145  10.336  18.439  0.00  0.00    +0.000 C 
ATOM     19  C   UNL     1      -1.820  11.610  17.953  0.00  0.00    +0.000 C 
ENDBRANCH  17  18
ENDBRANCH  11  17
ENDBRANCH  10  12
ENDBRANCH   1  10
BRANCH   3  20
ATOM     20  C   UNL     1       5.728   5.084  18.452  0.00  0.00    +0.000 C 
BRANCH  20  21
ATOM     21  C   UNL     1       5.983   4.705  17.014  0.00  0.00    +0.000 A 
ATOM     22  C   UNL     1       7.003   5.329  16.278  0.00  0.00    +0.000 A 
ATOM     23  C   UNL     1       7.184   5.036  14.926  0.00  0.00    +0.000 A 
ATOM     24  C   UNL     1       6.355   4.106  14.306  0.00  0.00    +0.000 A 
ATOM     25 BR   UNL     1       6.557   3.757  12.459  0.00  0.00    +0.000 Br
ATOM     26  C   UNL     1       5.368   3.443  15.032  0.00  0.00    +0.000 A 
ATOM     27  C   UNL     1       5.185   3.739  16.384  0.00  0.00    +0.000 A 
ENDBRANCH  20  21
ENDBRANCH   3  20
TORSDOF 8
ENDMDL
MODEL 5
REMARK VINA RESULT:      -7.4      0.960      1.103
REMARK  Name = 
REMARK  10 active torsions:
REMARK  status: ('A' for Active; 'I' for Inactive)
REMARK    1  A    between atoms: C_1  and  C_2
REMARK    2  A    between atoms: C_2  and  C_3
REMARK    3  A    between atoms: C_3  and  N_4
REMARK    4  A    between atoms: N_4  and  C_5
REMARK    5  A    between atoms: C_5  and  C_6
REMARK    6  A    between atoms: C_6  and  C_7
REMARK    7  A    between atoms: C_8  and  C_10
REMARK    8  A    between atoms: C_10  and  C_11
REMARK    9  A    between atoms: N_13  and  C_14
REMARK   10  A    between atoms: C_14  and  C_15
REMARK                            x       y       z     vdW  Elec       q    Type
REMARK                         _______ _______ _______ _____ _____    ______ ____
ROOT
ATOM      1  C   UNL     1       2.652   6.427  19.859  0.00  0.00    +0.000 A 
ATOM      2  C   UNL     1       3.926   6.383  19.331  0.00  0.00    +0.000 A 
ATOM      3  N   UNL     1       4.303   5.069  19.219  0.00  0.00    +0.000 N 
ATOM      4  C   UNL     1       3.252   4.244  19.563  0.00  0.00    +0.000 A 
ATOM      5  C   UNL     1       3.138   2.844  19.573  0.00  0.00    +0.000 A 
ATOM      6  C   UNL     1       1.933   2.280  20.003  0.00  0.00    +0.000 A 
ATOM      7  C   UNL     1       0.873   3.083  20.413  0.00  0.00    +0.000 A 
ATOM      8  C   UNL     1       0.999   4.477  20.403  0.00  0.00    +0.000 A 
ATOM      9  C   UNL     1       2.202   5.073  19.966  0.00  0.00    +0.000 A 
ENDROOT
BRANCH   1  10
ATOM     10  C   UNL     1       1.926   7.667  20.288  0.00  0.00    +0.000 C 
BRANCH  10  12
ATOM     11  N   UNL     1       0.486   9.473  19.294  0.00  0.00    +0.000 N 
ATOM     12  C   UNL     1       1.496   8.521  19.088  0.00  0.00    +0.000 C 
ATOM     13  O   UNL     1       2.007   8.375  17.975  0.00  0.00    +0.000 OA
BRANCH  11  14
ATOM     14  C   UNL     1       0.030  10.228  18.114  0.00  0.00    +0.000 C 
BRANCH  14  16
ATOM     15  C   UNL     1      -2.147   9.911  16.799  0.00  0.00    +0.000 C 
ATOM     16  C   UNL     1      -1.475  10.499  18.030  0.00  0.00    +0.000 C 
ENDBRANCH  14  16
ENDBRANCH  11  14
BRANCH  11  17
ATOM     17  C   UNL     1      -0.168   9.715  20.585  0.00  0.00    +0.000 C 
BRANCH  17  18
ATOM     18  C   UNL     1       0.484  10.791  21.464  0.00  0.00    +0.000 C 
ATOM     19  C   UNL     1       1.124  11.932  20.687  0.00  0.00    +0.000 C 
ENDBRANCH  17  18
ENDBRANCH  11  17
ENDBRANCH  10  12
ENDBRANCH   1  10
BRANCH   3  20
ATOM     20  C   UNL     1       5.655   4.641  18.872  0.00  0.00    +0.000 C 
BRANCH  20  21
ATOM     21  C   UNL     1       5.838   4.542  17.378  0.00  0.00    +0.000 A 
ATOM     22  C   UNL     1       4.756   4.224  16.542  0.00  0.00    +0.000 A 
ATOM     23  C   UNL     1       4.943   4.053  15.171  0.00  0.00    +0.000 A 
ATOM     24  C   UNL     1       6.213   4.214  14.624  0.00  0.00    +0.000 A 
ATOM     25 BR   UNL     1       6.482   3.918  12.777  0.00  0.00    +0.000 Br
ATOM     26  C   UNL     1       7.290   4.575  15.431  0.00  0.00    +0.000 A 
ATOM     27  C   UNL     1       7.102   4.743  16.804  0.00  0.00    +0.000 A 
ENDBRANCH  20  21
ENDBRANCH   3  20
TORSDOF 8
ENDMDL
MODEL 6
REMARK VINA RESULT:      -7.3      2.850      6.665
REMARK  Name = 
REMARK  10 active torsions:
REMARK  status: ('A' for Active; 'I' for Inactive)
REMARK    1  A    between atoms: C_1  and  C_2
REMARK    2  A    between atoms: C_2  and  C_3
REMARK    3  A    between atoms: C_3  and  N_4
REMARK    4  A    between atoms: N_4  and  C_5
REMARK    5  A    between atoms: C_5  and  C_6
REMARK    6  A    between atoms: C_6  and  C_7
REMARK    7  A    between atoms: C_8  and  C_10
REMARK    8  A    between atoms: C_10  and  C_11
REMARK    9  A    between atoms: N_13  and  C_14
REMARK   10  A    between atoms: C_14  and  C_15
REMARK                            x       y       z     vdW  Elec       q    Type
REMARK                         _______ _______ _______ _____ _____    ______ ____
ROOT
ATOM      1  C   UNL     1       4.288   4.348  19.030  0.00  0.00    +0.000 A 
ATOM      2  C   UNL     1       3.909   5.393  19.848  0.00  0.00    +0.000 A 
ATOM      3  N   UNL     1       2.571   5.264  20.121  0.00  0.00    +0.000 N 
ATOM      4  C   UNL     1       2.089   4.086  19.586  0.00  0.00    +0.000 A 
ATOM      5  C   UNL     1       0.812   3.502  19.631  0.00  0.00    +0.000 A 
ATOM      6  C   UNL     1       0.613   2.292  18.961  0.00  0.00    +0.000 A 
ATOM      7  C   UNL     1       1.652   1.680  18.265  0.00  0.00    +0.000 A 
ATOM      8  C   UNL     1       2.919   2.273  18.223  0.00  0.00    +0.000 A 
ATOM      9  C   UNL     1       3.150   3.491  18.898  0.00  0.00    +0.000 A 
ENDROOT
BRANCH   1  10
ATOM     10  C   UNL     1       5.626   4.196  18.370  0.00  0.00    +0.000 C 
BRANCH  10  12
ATOM     11  N   UNL     1       6.933   6.297  17.921  0.00  0.00    +0.000 N 
ATOM     12  C   UNL     1       6.615   5.276  18.829  0.00  0.00    +0.000 C 
ATOM     13  O   UNL     1       7.128   5.248  19.950  0.00  0.00    +0.000 OA
BRANCH  11  14
ATOM     14  C   UNL     1       7.944   7.280  18.349  0.00  0.00    +0.000 C 
BRANCH  14  16
ATOM     15  C   UNL     1       8.683   9.734  18.363  0.00  0.00    +0.000 C 
ATOM     16  C   UNL     1       7.885   8.646  17.660  0.00  0.00    +0.000 C 
ENDBRANCH  14  16
ENDBRANCH  11  14
BRANCH  11  17
ATOM     17  C   UNL     1       6.363   6.409  16.574  0.00  0.00    +0.000 C 
BRANCH  17  18
ATOM     18  C   UNL     1       6.888   5.397  15.547  0.00  0.00    +0.000 C 
ATOM     19  C   UNL     1       5.806   4.743  14.701  0.00  0.00    +0.000 C 
ENDBRANCH  17  18
ENDBRANCH  11  17
ENDBRANCH  10  12
ENDBRANCH   1  10
BRANCH   3  20
ATOM     20  C   UNL     1       1.781   6.285  20.804  0.00  0.00    +0.000 C 
BRANCH  20  21
ATOM     21  C   UNL     1       1.755   7.577  20.026  0.00  0.00    +0.000 A 
ATOM     22  C   UNL     1       2.305   7.649  18.736  0.00  0.00    +0.000 A 
ATOM     23  C   UNL     1       2.354   8.863  18.051  0.00  0.00    +0.000 A 
ATOM     24  C   UNL     1       1.839  10.011  18.647  0.00  0.00    +0.000 A 
ATOM     25 BR   UNL     1       1.963  11.669  17.747  0.00  0.00    +0.000 Br
ATOM     26  C   UNL     1       1.247   9.950  19.906  0.00  0.00    +0.000 A 
ATOM     27  C   UNL     1       1.202   8.735  20.592  0.00  0.00    +0.000 A 
ENDBRANCH  20  21
ENDBRANCH   3  20
TORSDOF 8
ENDMDL
MODEL 7
REMARK VINA RESULT:      -7.3      0.857      1.280
REMARK  Name = 
REMARK  10 active torsions:
REMARK  status: ('A' for Active; 'I' for Inactive)
REMARK    1  A    between atoms: C_1  and  C_2
REMARK    2  A    between atoms: C_2  and  C_3
REMARK    3  A    between atoms: C_3  and  N_4
REMARK    4  A    between atoms: N_4  and  C_5
REMARK    5  A    between atoms: C_5  and  C_6
REMARK    6  A    between atoms: C_6  and  C_7
REMARK    7  A    between atoms: C_8  and  C_10
REMARK    8  A    between atoms: C_10  and  C_11
REMARK    9  A    between atoms: N_13  and  C_14
REMARK   10  A    between atoms: C_14  and  C_15
REMARK                            x       y       z     vdW  Elec       q    Type
REMARK                         _______ _______ _______ _____ _____    ______ ____
ROOT
ATOM      1  C   UNL     1       2.739   6.247  19.780  0.00  0.00    +0.000 A 
ATOM      2  C   UNL     1       4.043   6.152  19.338  0.00  0.00    +0.000 A 
ATOM      3  N   UNL     1       4.352   4.825  19.184  0.00  0.00    +0.000 N 
ATOM      4  C   UNL     1       3.233   4.048  19.411  0.00  0.00    +0.000 A 
ATOM      5  C   UNL     1       3.040   2.659  19.340  0.00  0.00    +0.000 A 
ATOM      6  C   UNL     1       1.778   2.148  19.656  0.00  0.00    +0.000 A 
ATOM      7  C   UNL     1       0.739   2.993  20.034  0.00  0.00    +0.000 A 
ATOM      8  C   UNL     1       0.944   4.376  20.107  0.00  0.00    +0.000 A 
ATOM      9  C   UNL     1       2.206   4.919  19.785  0.00  0.00    +0.000 A 
ENDROOT
BRANCH   1  10
ATOM     10  C   UNL     1       2.055   7.506  20.223  0.00  0.00    +0.000 C 
BRANCH  10  12
ATOM     11  N   UNL     1       0.627   9.335  19.254  0.00  0.00    +0.000 N 
ATOM     12  C   UNL     1       1.618   8.368  19.031  0.00  0.00    +0.000 C 
ATOM     13  O   UNL     1       2.106   8.214  17.909  0.00  0.00    +0.000 OA
BRANCH  11  14
ATOM     14  C   UNL     1       0.162  10.098  18.083  0.00  0.00    +0.000 C 
BRANCH  14  16
ATOM     15  C   UNL     1      -1.779  11.767  17.961  0.00  0.00    +0.000 C 
ATOM     16  C   UNL     1      -1.351  10.308  17.976  0.00  0.00    +0.000 C 
ENDBRANCH  14  16
ENDBRANCH  11  14
BRANCH  11  17
ATOM     17  C   UNL     1       0.000   9.587  20.557  0.00  0.00    +0.000 C 
BRANCH  17  18
ATOM     18  C   UNL     1       0.477  10.851  21.286  0.00  0.00    +0.000 C 
ATOM     19  C   UNL     1      -0.633  11.836  21.623  0.00  0.00    +0.000 C 
ENDBRANCH  17  18
ENDBRANCH  11  17
ENDBRANCH  10  12
ENDBRANCH   1  10
BRANCH   3  20
ATOM     20  C   UNL     1       5.698   4.333  18.908  0.00  0.00    +0.000 C 
BRANCH  20  21
ATOM     21  C   UNL     1       5.992   4.322  17.428  0.00  0.00    +0.000 A 
ATOM     22  C   UNL     1       7.230   4.768  16.940  0.00  0.00    +0.000 A 
ATOM     23  C   UNL     1       7.471   4.835  15.567  0.00  0.00    +0.000 A 
ATOM     24  C   UNL     1       6.478   4.441  14.675  0.00  0.00    +0.000 A 
ATOM     25 BR   UNL     1       6.778   4.592  12.815  0.00  0.00    +0.000 Br
ATOM     26  C   UNL     1       5.260   3.952  15.142  0.00  0.00    +0.000 A 
ATOM     27  C   UNL     1       5.019   3.889  16.516  0.00  0.00    +0.000 A 
ENDBRANCH  20  21
ENDBRANCH   3  20
TORSDOF 8
ENDMDL
MODEL 8
REMARK VINA RESULT:      -7.2      1.300      1.756
REMARK  Name = 
REMARK  10 active torsions:
REMARK  status: ('A' for Active; 'I' for Inactive)
REMARK    1  A    between atoms: C_1  and  C_2
REMARK    2  A    between atoms: C_2  and  C_3
REMARK    3  A    between atoms: C_3  and  N_4
REMARK    4  A    between atoms: N_4  and  C_5
REMARK    5  A    between atoms: C_5  and  C_6
REMARK    6  A    between atoms: C_6  and  C_7
REMARK    7  A    between atoms: C_8  and  C_10
REMARK    8  A    between atoms: C_10  and  C_11
REMARK    9  A    between atoms: N_13  and  C_14
REMARK   10  A    between atoms: C_14  and  C_15
REMARK                            x       y       z     vdW  Elec       q    Type
REMARK                         _______ _______ _______ _____ _____    ______ ____
ROOT
ATOM      1  C   UNL     1       2.424   6.523  19.978  0.00  0.00    +0.000 A 
ATOM      2  C   UNL     1       3.701   6.628  19.466  0.00  0.00    +0.000 A 
ATOM      3  N   UNL     1       4.246   5.371  19.402  0.00  0.00    +0.000 N 
ATOM      4  C   UNL     1       3.304   4.428  19.760  0.00  0.00    +0.000 A 
ATOM      5  C   UNL     1       3.371   3.026  19.814  0.00  0.00    +0.000 A 
ATOM      6  C   UNL     1       2.243   2.324  20.247  0.00  0.00    +0.000 A 
ATOM      7  C   UNL     1       1.082   2.996  20.618  0.00  0.00    +0.000 A 
ATOM      8  C   UNL     1       1.027   4.394  20.565  0.00  0.00    +0.000 A 
ATOM      9  C   UNL     1       2.150   5.126  20.124  0.00  0.00    +0.000 A 
ENDROOT
BRANCH   1  10
ATOM     10  C   UNL     1       1.537   7.671  20.358  0.00  0.00    +0.000 C 
BRANCH  10  12
ATOM     11  N   UNL     1       1.215  10.057  19.632  0.00  0.00    +0.000 N 
ATOM     12  C   UNL     1       1.469   8.731  19.250  0.00  0.00    +0.000 C 
ATOM     13  O   UNL     1       1.618   8.435  18.063  0.00  0.00    +0.000 OA
BRANCH  11  14
ATOM     14  C   UNL     1       1.074  11.048  18.550  0.00  0.00    +0.000 C 
BRANCH  14  16
ATOM     15  C   UNL     1       0.874  13.582  18.876  0.00  0.00    +0.000 C 
ATOM     16  C   UNL     1       1.799  12.380  18.761  0.00  0.00    +0.000 C 
ENDBRANCH  14  16
ENDBRANCH  11  14
BRANCH  11  17
ATOM     17  C   UNL     1       1.034  10.495  21.020  0.00  0.00    +0.000 C 
BRANCH  17  18
ATOM     18  C   UNL     1      -0.405  10.436  21.550  0.00  0.00    +0.000 C 
ATOM     19  C   UNL     1      -0.562   9.669  22.854  0.00  0.00    +0.000 C 
ENDBRANCH  17  18
ENDBRANCH  11  17
ENDBRANCH  10  12
ENDBRANCH   1  10
BRANCH   3  20
ATOM     20  C   UNL     1       5.647   5.111  19.085  0.00  0.00    +0.000 C 
BRANCH  20  21
ATOM     21  C   UNL     1       5.828   4.746  17.632  0.00  0.00    +0.000 A 
ATOM     22  C   UNL     1       7.110   4.683  17.063  0.00  0.00    +0.000 A 
ATOM     23  C   UNL     1       7.271   4.425  15.702  0.00  0.00    +0.000 A 
ATOM     24  C   UNL     1       6.150   4.214  14.904  0.00  0.00    +0.000 A 
ATOM     25 BR   UNL     1       6.363   3.931  13.047  0.00  0.00    +0.000 Br
ATOM     26  C   UNL     1       4.873   4.227  15.460  0.00  0.00    +0.000 A 
ATOM     27  C   UNL     1       4.713   4.488  16.822  0.00  0.00    +0.000 A 
ENDBRANCH  20  21
ENDBRANCH   3  20
TORSDOF 8
ENDMDL
MODEL 9
REMARK VINA RESULT:      -7.2      1.277      2.144
REMARK  Name = 
REMARK  10 active torsions:
REMARK  status: ('A' for Active; 'I' for Inactive)
REMARK    1  A    between atoms: C_1  and  C_2
REMARK    2  A    between atoms: C_2  and  C_3
REMARK    3  A    between atoms: C_3  and  N_4
REMARK    4  A    between atoms: N_4  and  C_5
REMARK    5  A    between atoms: C_5  and  C_6
REMARK    6  A    between atoms: C_6  and  C_7
REMARK    7  A    between atoms: C_8  and  C_10
REMARK    8  A    between atoms: C_10  and  C_11
REMARK    9  A    between atoms: N_13  and  C_14
REMARK   10  A    between atoms: C_14  and  C_15
REMARK                            x       y       z     vdW  Elec       q    Type
REMARK                         _______ _______ _______ _____ _____    ______ ____
ROOT
ATOM      1  C   UNL     1       2.448   6.561  19.080  0.00  0.00    +0.000 A 
ATOM      2  C   UNL     1       3.688   6.498  18.477  0.00  0.00    +0.000 A 
ATOM      3  N   UNL     1       4.259   5.291  18.788  0.00  0.00    +0.000 N 
ATOM      4  C   UNL     1       3.366   4.511  19.495  0.00  0.00    +0.000 A 
ATOM      5  C   UNL     1       3.472   3.203  19.995  0.00  0.00    +0.000 A 
ATOM      6  C   UNL     1       2.391   2.676  20.708  0.00  0.00    +0.000 A 
ATOM      7  C   UNL     1       1.239   3.428  20.918  0.00  0.00    +0.000 A 
ATOM      8  C   UNL     1       1.145   4.732  20.419  0.00  0.00    +0.000 A 
ATOM      9  C   UNL     1       2.219   5.286  19.689  0.00  0.00    +0.000 A 
ENDROOT
BRANCH   1  10
ATOM     10  C   UNL     1       1.558   7.766  19.126  0.00  0.00    +0.000 C 
BRANCH  10  12
ATOM     11  N   UNL     1       0.607   9.446  20.738  0.00  0.00    +0.000 N 
ATOM     12  C   UNL     1       1.461   8.350  20.542  0.00  0.00    +0.000 C 
ATOM     13  O   UNL     1       2.116   7.887  21.479  0.00  0.00    +0.000 OA
BRANCH  11  14
ATOM     14  C   UNL     1       0.587  10.045  22.084  0.00  0.00    +0.000 C 
BRANCH  14  16
ATOM     15  C   UNL     1      -1.444  11.255  23.072  0.00  0.00    +0.000 C 
ATOM     16  C   UNL     1      -0.734   9.929  22.850  0.00  0.00    +0.000 C 
ENDBRANCH  14  16
ENDBRANCH  11  14
BRANCH  11  17
ATOM     17  C   UNL     1      -0.212  10.052  19.682  0.00  0.00    +0.000 C 
BRANCH  17  18
ATOM     18  C   UNL     1       0.341  11.350  19.078  0.00  0.00    +0.000 C 
ATOM     19  C   UNL     1      -0.361  12.612  19.554  0.00  0.00    +0.000 C 
ENDBRANCH  17  18
ENDBRANCH  11  17
ENDBRANCH  10  12
ENDBRANCH   1  10
BRANCH   3  20
ATOM     20  C   UNL     1       5.644   4.946  18.479  0.00  0.00    +0.000 C 
BRANCH  20  21
ATOM     21  C   UNL     1       5.844   4.730  16.999  0.00  0.00    +0.000 A 
ATOM     22  C   UNL     1       4.870   4.072  16.232  0.00  0.00    +0.000 A 
ATOM     23  C   UNL     1       5.091   3.801  14.882  0.00  0.00    +0.000 A 
ATOM     24  C   UNL     1       6.285   4.201  14.287  0.00  0.00    +0.000 A 
ATOM     25 BR   UNL     1       6.615   3.776  12.475  0.00  0.00    +0.000 Br
ATOM     26  C   UNL     1       7.244   4.896  15.020  0.00  0.00    +0.000 A 
ATOM     27  C   UNL     1       7.022   5.164  16.372  0.00  0.00    +0.000 A 
ENDBRANCH  20  21
ENDBRANCH   3  20
TORSDOF 8
ENDMDL
