MODEL 1
REMARK VINA RESULT:      -7.0      0.000      0.000
REMARK  Name = 
REMARK  9 active torsions:
REMARK  status: ('A' for Active; 'I' for Inactive)
REMARK    1  A    between atoms: C_1  and  C_2
REMARK    2  A    between atoms: C_2  and  C_3
REMARK    3  A    between atoms: C_3  and  C_4
REMARK    4  A    between atoms: C_4  and  O_5
REMARK    5  A    between atoms: O_5  and  C_6
REMARK    6  A    between atoms: C_8  and  C_9
REMARK    7  A    between atoms: N_11  and  C_12
REMARK    8  A    between atoms: C_22  and  O_23
REMARK    9  A    between atoms: O_23  and  C_24
REMARK                            x       y       z     vdW  Elec       q    Type
REMARK                         _______ _______ _______ _____ _____    ______ ____
ROOT
ATOM      1  C   UNL     1       7.014   5.810  15.827  0.00  0.00    +0.000 A 
ATOM      2  C   UNL     1       6.025   5.389  16.734  0.00  0.00    +0.000 A 
ATOM      3  C   UNL     1       5.104   4.395  16.390  0.00  0.00    +0.000 A 
ATOM      4  C   UNL     1       5.145   3.834  15.112  0.00  0.00    +0.000 A 
ATOM      5  C   UNL     1       6.129   4.242  14.205  0.00  0.00    +0.000 A 
ATOM      6  C   UNL     1       7.080   5.218  14.551  0.00  0.00    +0.000 A 
ENDROOT
BRANCH   3   7
ATOM      7  C   UNL     1       4.092   3.951  17.382  0.00  0.00    +0.000 C 
ATOM      8  O   UNL     1       2.997   3.561  16.999  0.00  0.00    +0.000 OA
ATOM      9  N   UNL     1       4.468   4.138  18.705  0.00  0.00    +0.000 N 
ATOM     10  H   UNL     1       5.108   4.915  18.840  0.00  0.00    +0.000 HD
BRANCH   9  11
ATOM     11  C   UNL     1       3.579   3.890  19.786  0.00  0.00    +0.000 A 
ATOM     12  C   UNL     1       2.721   4.863  20.323  0.00  0.00    +0.000 A 
ATOM     13 BR   UNL     1       2.421   6.561  19.532  0.00  0.00    +0.000 Br
ATOM     14  C   UNL     1       1.920   4.507  21.403  0.00  0.00    +0.000 A 
ATOM     15  N   UNL     1       1.897   3.275  21.965  0.00  0.00    +0.000 NA
ATOM     16  C   UNL     1       2.699   2.344  21.403  0.00  0.00    +0.000 A 
ATOM     17  C   UNL     1       3.531   2.592  20.318  0.00  0.00    +0.000 A 
ATOM     18 BR   UNL     1       4.596   1.179  19.639  0.00  0.00    +0.000 Br
ENDBRANCH   9  11
ENDBRANCH   3   7
BRANCH   6  19
ATOM     19  O   UNL     1       8.109   5.573  13.714  0.00  0.00    +0.000 OA
ATOM     20  C   UNL     1       7.919   5.363  12.318  0.00  0.00    +0.000 C 
ENDBRANCH   6  19
BRANCH   1  21
ATOM     21  O   UNL     1       7.847   6.761  16.362  0.00  0.00    +0.000 OA
BRANCH  21  22
ATOM     22  C   UNL     1       7.560   7.259  17.670  0.00  0.00    +0.000 C 
BRANCH  22  23
ATOM     23  C   UNL     1       7.705   8.787  17.642  0.00  0.00    +0.000 C 
BRANCH  23  25
ATOM     24  C   UNL     1       9.196  10.703  18.381  0.00  0.00    +0.000 C 
ATOM     25  C   UNL     1       8.756   9.272  18.641  0.00  0.00    +0.000 C 
ENDBRANCH  23  25
ENDBRANCH  22  23
ENDBRANCH  21  22
ENDBRANCH   1  21
TORSDOF 7
ENDMDL
MODEL 2
REMARK VINA RESULT:      -6.7      2.399      4.591
REMARK  Name = 
REMARK  9 active torsions:
REMARK  status: ('A' for Active; 'I' for Inactive)
REMARK    1  A    between atoms: C_1  and  C_2
REMARK    2  A    between atoms: C_2  and  C_3
REMARK    3  A    between atoms: C_3  and  C_4
REMARK    4  A    between atoms: C_4  and  O_5
REMARK    5  A    between atoms: O_5  and  C_6
REMARK    6  A    between atoms: C_8  and  C_9
REMARK    7  A    between atoms: N_11  and  C_12
REMARK    8  A    between atoms: C_22  and  O_23
REMARK    9  A    between atoms: O_23  and  C_24
REMARK                            x       y       z     vdW  Elec       q    Type
REMARK                         _______ _______ _______ _____ _____    ______ ____
ROOT
ATOM      1  C   UNL     1       5.739   4.275  14.120  0.00  0.00    +0.000 A 
ATOM      2  C   UNL     1       5.148   4.161  15.392  0.00  0.00    +0.000 A 
ATOM      3  C   UNL     1       5.854   4.500  16.550  0.00  0.00    +0.000 A 
ATOM      4  C   UNL     1       7.178   4.927  16.445  0.00  0.00    +0.000 A 
ATOM      5  C   UNL     1       7.773   5.050  15.185  0.00  0.00    +0.000 A 
ATOM      6  C   UNL     1       7.063   4.743  14.011  0.00  0.00    +0.000 A 
ENDROOT
BRANCH   3   7
ATOM      7  C   UNL     1       5.191   4.397  17.875  0.00  0.00    +0.000 C 
ATOM      8  O   UNL     1       5.864   4.192  18.876  0.00  0.00    +0.000 OA
ATOM      9  N   UNL     1       3.804   4.433  17.824  0.00  0.00    +0.000 N 
ATOM     10  H   UNL     1       3.419   4.073  16.955  0.00  0.00    +0.000 HD
BRANCH   9  11
ATOM     11  C   UNL     1       2.999   4.221  18.976  0.00  0.00    +0.000 A 
ATOM     12  C   UNL     1       2.437   5.263  19.731  0.00  0.00    +0.000 A 
ATOM     13 BR   UNL     1       2.438   7.081  19.190  0.00  0.00    +0.000 Br
ATOM     14  C   UNL     1       1.692   4.928  20.857  0.00  0.00    +0.000 A 
ATOM     15  N   UNL     1       1.456   3.660  21.270  0.00  0.00    +0.000 NA
ATOM     16  C   UNL     1       1.971   2.674  20.502  0.00  0.00    +0.000 A 
ATOM     17  C   UNL     1       2.721   2.898  19.354  0.00  0.00    +0.000 A 
ATOM     18 BR   UNL     1       3.372   1.408  18.381  0.00  0.00    +0.000 Br
ENDBRANCH   9  11
ENDBRANCH   3   7
BRANCH   6  19
ATOM     19  O   UNL     1       7.590   4.939  12.759  0.00  0.00    +0.000 OA
ATOM     20  C   UNL     1       8.545   5.985  12.607  0.00  0.00    +0.000 C 
ENDBRANCH   6  19
BRANCH   1  21
ATOM     21  O   UNL     1       4.876   3.937  13.108  0.00  0.00    +0.000 OA
BRANCH  21  22
ATOM     22  C   UNL     1       5.310   2.992  12.129  0.00  0.00    +0.000 C 
BRANCH  22  23
ATOM     23  C   UNL     1       4.177   2.801  11.112  0.00  0.00    +0.000 C 
BRANCH  23  25
ATOM     24  C   UNL     1       2.858   4.051   9.339  0.00  0.00    +0.000 C 
ATOM     25  C   UNL     1       3.583   4.140  10.672  0.00  0.00    +0.000 C 
ENDBRANCH  23  25
ENDBRANCH  22  23
ENDBRANCH  21  22
ENDBRANCH   1  21
TORSDOF 7
ENDMDL
MODEL 3
REMARK VINA RESULT:      -6.7      2.260      4.898
REMARK  Name = 
REMARK  9 active torsions:
REMARK  status: ('A' for Active; 'I' for Inactive)
REMARK    1  A    between atoms: C_1  and  C_2
REMARK    2  A    between atoms: C_2  and  C_3
REMARK    3  A    between atoms: C_3  and  C_4
REMARK    4  A    between atoms: C_4  and  O_5
REMARK    5  A    between atoms: O_5  and  C_6
REMARK    6  A    between atoms: C_8  and  C_9
REMARK    7  A    between atoms: N_11  and  C_12
REMARK    8  A    between atoms: C_22  and  O_23
REMARK    9  A    between atoms: O_23  and  C_24
REMARK                            x       y       z     vdW  Elec       q    Type
REMARK                         _______ _______ _______ _____ _____    ______ ____
ROOT
ATOM      1  C   UNL     1       5.883   4.345  14.216  0.00  0.00    +0.000 A 
ATOM      2  C   UNL     1       5.248   4.110  15.449  0.00  0.00    +0.000 A 
ATOM      3  C   UNL     1       5.792   4.587  16.645  0.00  0.00    +0.000 A 
ATOM      4  C   UNL     1       7.003   5.280  16.619  0.00  0.00    +0.000 A 
ATOM      5  C   UNL     1       7.639   5.524  15.397  0.00  0.00    +0.000 A 
ATOM      6  C   UNL     1       7.085   5.077  14.185  0.00  0.00    +0.000 A 
ENDROOT
BRANCH   3   7
ATOM      7  C   UNL     1       5.080   4.348  17.927  0.00  0.00    +0.000 C 
ATOM      8  O   UNL     1       5.721   4.089  18.937  0.00  0.00    +0.000 OA
ATOM      9  N   UNL     1       3.697   4.332  17.818  0.00  0.00    +0.000 N 
ATOM     10  H   UNL     1       3.363   4.031  16.906  0.00  0.00    +0.000 HD
BRANCH   9  11
ATOM     11  C   UNL     1       2.855   3.994  18.912  0.00  0.00    +0.000 A 
ATOM     12  C   UNL     1       2.621   2.675  19.331  0.00  0.00    +0.000 A 
ATOM     13 BR   UNL     1       3.583   1.173  18.683  0.00  0.00    +0.000 Br
ATOM     14  C   UNL     1       1.752   2.470  20.397  0.00  0.00    +0.000 A 
ATOM     15  N   UNL     1       1.125   3.461  21.075  0.00  0.00    +0.000 NA
ATOM     16  C   UNL     1       1.401   4.724  20.682  0.00  0.00    +0.000 A 
ATOM     17  C   UNL     1       2.260   5.039  19.636  0.00  0.00    +0.000 A 
ATOM     18 BR   UNL     1       2.548   6.862  19.207  0.00  0.00    +0.000 Br
ENDBRANCH   9  11
ENDBRANCH   3   7
BRANCH   6  19
ATOM     19  O   UNL     1       7.640   5.378  12.966  0.00  0.00    +0.000 OA
ATOM     20  C   UNL     1       8.950   5.938  12.964  0.00  0.00    +0.000 C 
ENDBRANCH   6  19
BRANCH   1  21
ATOM     21  O   UNL     1       5.175   3.836  13.155  0.00  0.00    +0.000 OA
BRANCH  21  22
ATOM     22  C   UNL     1       5.783   2.821  12.355  0.00  0.00    +0.000 C 
BRANCH  22  23
ATOM     23  C   UNL     1       4.903   2.598  11.117  0.00  0.00    +0.000 C 
BRANCH  23  25
ATOM     24  C   UNL     1       3.157   3.929   9.843  0.00  0.00    +0.000 C 
ATOM     25  C   UNL     1       3.604   3.402  11.197  0.00  0.00    +0.000 C 
ENDBRANCH  23  25
ENDBRANCH  22  23
ENDBRANCH  21  22
ENDBRANCH   1  21
TORSDOF 7
ENDMDL
MODEL 4
REMARK VINA RESULT:      -6.5      5.099      7.326
REMARK  Name = 
REMARK  9 active torsions:
REMARK  status: ('A' for Active; 'I' for Inactive)
REMARK    1  A    between atoms: C_1  and  C_2
REMARK    2  A    between atoms: C_2  and  C_3
REMARK    3  A    between atoms: C_3  and  C_4
REMARK    4  A    between atoms: C_4  and  O_5
REMARK    5  A    between atoms: O_5  and  C_6
REMARK    6  A    between atoms: C_8  and  C_9
REMARK    7  A    between atoms: N_11  and  C_12
REMARK    8  A    between atoms: C_22  and  O_23
REMARK    9  A    between atoms: O_23  and  C_24
REMARK                            x       y       z     vdW  Elec       q    Type
REMARK                         _______ _______ _______ _____ _____    ______ ____
ROOT
ATOM      1  C   UNL     1       1.093   9.762  20.092  0.00  0.00    +0.000 A 
ATOM      2  C   UNL     1       1.606   8.456  20.188  0.00  0.00    +0.000 A 
ATOM      3  C   UNL     1       2.126   7.799  19.069  0.00  0.00    +0.000 A 
ATOM      4  C   UNL     1       2.105   8.438  17.828  0.00  0.00    +0.000 A 
ATOM      5  C   UNL     1       1.602   9.739  17.723  0.00  0.00    +0.000 A 
ATOM      6  C   UNL     1       1.106  10.421  18.848  0.00  0.00    +0.000 A 
ENDROOT
BRANCH   3   7
ATOM      7  C   UNL     1       2.689   6.432  19.210  0.00  0.00    +0.000 C 
ATOM      8  O   UNL     1       3.590   6.226  20.013  0.00  0.00    +0.000 OA
ATOM      9  N   UNL     1       2.193   5.513  18.297  0.00  0.00    +0.000 N 
ATOM     10  H   UNL     1       1.899   5.930  17.417  0.00  0.00    +0.000 HD
BRANCH   9  11
ATOM     11  C   UNL     1       2.706   4.191  18.198  0.00  0.00    +0.000 A 
ATOM     12  C   UNL     1       3.772   3.834  17.357  0.00  0.00    +0.000 A 
ATOM     13 BR   UNL     1       4.855   5.088  16.431  0.00  0.00    +0.000 Br
ATOM     14  C   UNL     1       4.164   2.500  17.325  0.00  0.00    +0.000 A 
ATOM     15  N   UNL     1       3.598   1.518  18.066  0.00  0.00    +0.000 NA
ATOM     16  C   UNL     1       2.603   1.894  18.901  0.00  0.00    +0.000 A 
ATOM     17  C   UNL     1       2.142   3.200  19.016  0.00  0.00    +0.000 A 
ATOM     18 BR   UNL     1       0.740   3.570  20.236  0.00  0.00    +0.000 Br
ENDBRANCH   9  11
ENDBRANCH   3   7
BRANCH   6  19
ATOM     19  O   UNL     1       0.690  11.728  18.792  0.00  0.00    +0.000 OA
ATOM     20  C   UNL     1      -0.705  11.964  18.618  0.00  0.00    +0.000 C 
ENDBRANCH   6  19
BRANCH   1  21
ATOM     21  O   UNL     1       0.670  10.250  21.303  0.00  0.00    +0.000 OA
BRANCH  21  22
ATOM     22  C   UNL     1       0.371   9.320  22.346  0.00  0.00    +0.000 C 
BRANCH  22  23
ATOM     23  C   UNL     1      -0.762   9.906  23.199  0.00  0.00    +0.000 C 
BRANCH  23  25
ATOM     24  C   UNL     1      -2.404  11.843  23.227  0.00  0.00    +0.000 C 
ATOM     25  C   UNL     1      -0.994  11.386  22.888  0.00  0.00    +0.000 C 
ENDBRANCH  23  25
ENDBRANCH  22  23
ENDBRANCH  21  22
ENDBRANCH   1  21
TORSDOF 7
ENDMDL
MODEL 5
REMARK VINA RESULT:      -6.4      2.038      4.833
REMARK  Name = 
REMARK  9 active torsions:
REMARK  status: ('A' for Active; 'I' for Inactive)
REMARK    1  A    between atoms: C_1  and  C_2
REMARK    2  A    between atoms: C_2  and  C_3
REMARK    3  A    between atoms: C_3  and  C_4
REMARK    4  A    between atoms: C_4  and  O_5
REMARK    5  A    between atoms: O_5  and  C_6
REMARK    6  A    between atoms: C_8  and  C_9
REMARK    7  A    between atoms: N_11  and  C_12
REMARK    8  A    between atoms: C_22  and  O_23
REMARK    9  A    between atoms: O_23  and  C_24
REMARK                            x       y       z     vdW  Elec       q    Type
REMARK                         _______ _______ _______ _____ _____    ______ ____
ROOT
ATOM      1  C   UNL     1       6.448   4.112  13.962  0.00  0.00    +0.000 A 
ATOM      2  C   UNL     1       5.450   3.741  14.882  0.00  0.00    +0.000 A 
ATOM      3  C   UNL     1       5.353   4.359  16.131  0.00  0.00    +0.000 A 
ATOM      4  C   UNL     1       6.281   5.339  16.487  0.00  0.00    +0.000 A 
ATOM      5  C   UNL     1       7.273   5.720  15.576  0.00  0.00    +0.000 A 
ATOM      6  C   UNL     1       7.362   5.128  14.305  0.00  0.00    +0.000 A 
ENDROOT
BRANCH   3   7
ATOM      7  C   UNL     1       4.268   3.966  17.068  0.00  0.00    +0.000 C 
ATOM      8  O   UNL     1       3.267   3.409  16.637  0.00  0.00    +0.000 OA
ATOM      9  N   UNL     1       4.461   4.390  18.375  0.00  0.00    +0.000 N 
ATOM     10  H   UNL     1       5.010   5.242  18.451  0.00  0.00    +0.000 HD
BRANCH   9  11
ATOM     11  C   UNL     1       3.472   4.216  19.380  0.00  0.00    +0.000 A 
ATOM     12  C   UNL     1       3.376   3.069  20.184  0.00  0.00    +0.000 A 
ATOM     13 BR   UNL     1       4.693   1.704  20.241  0.00  0.00    +0.000 Br
ATOM     14  C   UNL     1       2.343   3.004  21.114  0.00  0.00    +0.000 A 
ATOM     15  N   UNL     1       1.428   3.983  21.311  0.00  0.00    +0.000 NA
ATOM     16  C   UNL     1       1.567   5.095  20.555  0.00  0.00    +0.000 A 
ATOM     17  C   UNL     1       2.567   5.266  19.606  0.00  0.00    +0.000 A 
ATOM     18 BR   UNL     1       2.632   6.887  18.628  0.00  0.00    +0.000 Br
ENDBRANCH   9  11
ENDBRANCH   3   7
BRANCH   6  19
ATOM     19  O   UNL     1       8.267   5.543  13.360  0.00  0.00    +0.000 OA
ATOM     20  C   UNL     1       7.754   5.937  12.091  0.00  0.00    +0.000 C 
ENDBRANCH   6  19
BRANCH   1  21
ATOM     21  O   UNL     1       6.354   3.423  12.779  0.00  0.00    +0.000 OA
BRANCH  21  22
ATOM     22  C   UNL     1       5.079   2.911  12.388  0.00  0.00    +0.000 C 
BRANCH  22  23
ATOM     23  C   UNL     1       4.410   3.945  11.472  0.00  0.00    +0.000 C 
BRANCH  23  25
ATOM     24  C   UNL     1       2.846   4.271   9.498  0.00  0.00    +0.000 C 
ATOM     25  C   UNL     1       3.439   3.284  10.492  0.00  0.00    +0.000 C 
ENDBRANCH  23  25
ENDBRANCH  22  23
ENDBRANCH  21  22
ENDBRANCH   1  21
TORSDOF 7
ENDMDL
MODEL 6
REMARK VINA RESULT:      -6.4      0.455      1.980
REMARK  Name = 
REMARK  9 active torsions:
REMARK  status: ('A' for Active; 'I' for Inactive)
REMARK    1  A    between atoms: C_1  and  C_2
REMARK    2  A    between atoms: C_2  and  C_3
REMARK    3  A    between atoms: C_3  and  C_4
REMARK    4  A    between atoms: C_4  and  O_5
REMARK    5  A    between atoms: O_5  and  C_6
REMARK    6  A    between atoms: C_8  and  C_9
REMARK    7  A    between atoms: N_11  and  C_12
REMARK    8  A    between atoms: C_22  and  O_23
REMARK    9  A    between atoms: O_23  and  C_24
REMARK                            x       y       z     vdW  Elec       q    Type
REMARK                         _______ _______ _______ _____ _____    ______ ____
ROOT
ATOM      1  C   UNL     1       7.069   5.669  15.977  0.00  0.00    +0.000 A 
ATOM      2  C   UNL     1       6.110   5.183  16.883  0.00  0.00    +0.000 A 
ATOM      3  C   UNL     1       5.135   4.266  16.481  0.00  0.00    +0.000 A 
ATOM      4  C   UNL     1       5.091   3.851  15.149  0.00  0.00    +0.000 A 
ATOM      5  C   UNL     1       6.045   4.324  14.241  0.00  0.00    +0.000 A 
ATOM      6  C   UNL     1       7.050   5.222  14.642  0.00  0.00    +0.000 A 
ENDROOT
BRANCH   3   7
ATOM      7  C   UNL     1       4.155   3.748  17.470  0.00  0.00    +0.000 C 
ATOM      8  O   UNL     1       3.165   3.141  17.083  0.00  0.00    +0.000 OA
ATOM      9  N   UNL     1       4.416   4.121  18.781  0.00  0.00    +0.000 N 
ATOM     10  H   UNL     1       4.907   5.006  18.863  0.00  0.00    +0.000 HD
BRANCH   9  11
ATOM     11  C   UNL     1       3.520   3.825  19.844  0.00  0.00    +0.000 A 
ATOM     12  C   UNL     1       3.552   2.627  20.575  0.00  0.00    +0.000 A 
ATOM     13 BR   UNL     1       4.944   1.344  20.443  0.00  0.00    +0.000 Br
ATOM     14  C   UNL     1       2.601   2.442  21.573  0.00  0.00    +0.000 A 
ATOM     15  N   UNL     1       1.650   3.349  21.903  0.00  0.00    +0.000 NA
ATOM     16  C   UNL     1       1.667   4.512  21.214  0.00  0.00    +0.000 A 
ATOM     17  C   UNL     1       2.578   4.802  20.205  0.00  0.00    +0.000 A 
ATOM     18 BR   UNL     1       2.475   6.482  19.334  0.00  0.00    +0.000 Br
ENDBRANCH   9  11
ENDBRANCH   3   7
BRANCH   6  19
ATOM     19  O   UNL     1       8.050   5.633  13.796  0.00  0.00    +0.000 OA
ATOM     20  C   UNL     1       7.898   5.338  12.411  0.00  0.00    +0.000 C 
ENDBRANCH   6  19
BRANCH   1  21
ATOM     21  O   UNL     1       7.965   6.524  16.569  0.00  0.00    +0.000 OA
BRANCH  21  22
ATOM     22  C   UNL     1       7.598   7.150  17.799  0.00  0.00    +0.000 C 
BRANCH  22  23
ATOM     23  C   UNL     1       7.112   8.572  17.485  0.00  0.00    +0.000 C 
BRANCH  23  25
ATOM     24  C   UNL     1       8.967   9.256  19.078  0.00  0.00    +0.000 C 
ATOM     25  C   UNL     1       8.171   9.619  17.835  0.00  0.00    +0.000 C 
ENDBRANCH  23  25
ENDBRANCH  22  23
ENDBRANCH  21  22
ENDBRANCH   1  21
TORSDOF 7
ENDMDL
MODEL 7
REMARK VINA RESULT:      -6.3      5.296      7.976
REMARK  Name = 
REMARK  9 active torsions:
REMARK  status: ('A' for Active; 'I' for Inactive)
REMARK    1  A    between atoms: C_1  and  C_2
REMARK    2  A    between atoms: C_2  and  C_3
REMARK    3  A    between atoms: C_3  and  C_4
REMARK    4  A    between atoms: C_4  and  O_5
REMARK    5  A    between atoms: O_5  and  C_6
REMARK    6  A    between atoms: C_8  and  C_9
REMARK    7  A    between atoms: N_11  and  C_12
REMARK    8  A    between atoms: C_22  and  O_23
REMARK    9  A    between atoms: O_23  and  C_24
REMARK                            x       y       z     vdW  Elec       q    Type
REMARK                         _______ _______ _______ _____ _____    ______ ____
ROOT
ATOM      1  C   UNL     1       0.724  10.321  20.066  0.00  0.00    +0.000 A 
ATOM      2  C   UNL     1       1.264   9.271  19.301  0.00  0.00    +0.000 A 
ATOM      3  C   UNL     1       1.755   8.112  19.909  0.00  0.00    +0.000 A 
ATOM      4  C   UNL     1       1.741   8.009  21.301  0.00  0.00    +0.000 A 
ATOM      5  C   UNL     1       1.200   9.045  22.070  0.00  0.00    +0.000 A 
ATOM      6  C   UNL     1       0.674  10.201  21.469  0.00  0.00    +0.000 A 
ENDROOT
BRANCH   3   7
ATOM      7  C   UNL     1       2.290   7.009  19.071  0.00  0.00    +0.000 C 
ATOM      8  O   UNL     1       2.152   7.048  17.855  0.00  0.00    +0.000 OA
ATOM      9  N   UNL     1       2.815   5.946  19.793  0.00  0.00    +0.000 N 
ATOM     10  H   UNL     1       2.387   5.823  20.707  0.00  0.00    +0.000 HD
BRANCH   9  11
ATOM     11  C   UNL     1       3.255   4.749  19.166  0.00  0.00    +0.000 A 
ATOM     12  C   UNL     1       4.412   4.670  18.374  0.00  0.00    +0.000 A 
ATOM     13 BR   UNL     1       5.696   6.059  18.234  0.00  0.00    +0.000 Br
ATOM     14  C   UNL     1       4.722   3.447  17.787  0.00  0.00    +0.000 A 
ATOM     15  N   UNL     1       3.991   2.317  17.941  0.00  0.00    +0.000 NA
ATOM     16  C   UNL     1       2.907   2.408  18.743  0.00  0.00    +0.000 A 
ATOM     17  C   UNL     1       2.514   3.577  19.384  0.00  0.00    +0.000 A 
ATOM     18 BR   UNL     1       0.970   3.544  20.482  0.00  0.00    +0.000 Br
ENDBRANCH   9  11
ENDBRANCH   3   7
BRANCH   6  19
ATOM     19  O   UNL     1       0.058  11.192  22.191  0.00  0.00    +0.000 OA
ATOM     20  C   UNL     1      -1.009  10.807  23.053  0.00  0.00    +0.000 C 
ENDBRANCH   6  19
BRANCH   1  21
ATOM     21  O   UNL     1       0.256  11.351  19.288  0.00  0.00    +0.000 OA
BRANCH  21  22
ATOM     22  C   UNL     1      -1.122  11.350  18.914  0.00  0.00    +0.000 C 
BRANCH  22  23
ATOM     23  C   UNL     1      -1.315  10.306  17.805  0.00  0.00    +0.000 C 
BRANCH  23  25
ATOM     24  C   UNL     1      -2.937   9.878  15.899  0.00  0.00    +0.000 C 
ATOM     25  C   UNL     1      -2.780  10.205  17.376  0.00  0.00    +0.000 C 
ENDBRANCH  23  25
ENDBRANCH  22  23
ENDBRANCH  21  22
ENDBRANCH   1  21
TORSDOF 7
ENDMDL
MODEL 8
REMARK VINA RESULT:      -6.3      5.950      8.449
REMARK  Name = 
REMARK  9 active torsions:
REMARK  status: ('A' for Active; 'I' for Inactive)
REMARK    1  A    between atoms: C_1  and  C_2
REMARK    2  A    between atoms: C_2  and  C_3
REMARK    3  A    between atoms: C_3  and  C_4
REMARK    4  A    between atoms: C_4  and  O_5
REMARK    5  A    between atoms: O_5  and  C_6
REMARK    6  A    between atoms: C_8  and  C_9
REMARK    7  A    between atoms: N_11  and  C_12
REMARK    8  A    between atoms: C_22  and  O_23
REMARK    9  A    between atoms: O_23  and  C_24
REMARK                            x       y       z     vdW  Elec       q    Type
REMARK                         _______ _______ _______ _____ _____    ______ ____
ROOT
ATOM      1  C   UNL     1       2.354   6.530  19.779  0.00  0.00    +0.000 A 
ATOM      2  C   UNL     1       1.558   7.655  20.064  0.00  0.00    +0.000 A 
ATOM      3  C   UNL     1       1.516   8.749  19.196  0.00  0.00    +0.000 A 
ATOM      4  C   UNL     1       2.303   8.742  18.043  0.00  0.00    +0.000 A 
ATOM      5  C   UNL     1       3.093   7.625  17.748  0.00  0.00    +0.000 A 
ATOM      6  C   UNL     1       3.119   6.505  18.597  0.00  0.00    +0.000 A 
ENDROOT
BRANCH   3   7
ATOM      7  C   UNL     1       0.641   9.908  19.510  0.00  0.00    +0.000 C 
ATOM      8  O   UNL     1      -0.383  10.087  18.866  0.00  0.00    +0.000 OA
ATOM      9  N   UNL     1       1.157  10.770  20.468  0.00  0.00    +0.000 N 
ATOM     10  H   UNL     1       2.173  10.787  20.496  0.00  0.00    +0.000 HD
BRANCH   9  11
ATOM     11  C   UNL     1       0.522  11.996  20.804  0.00  0.00    +0.000 A 
ATOM     12  C   UNL     1      -0.476  12.108  21.785  0.00  0.00    +0.000 A 
ATOM     13 BR   UNL     1      -0.940  10.715  22.987  0.00  0.00    +0.000 Br
ATOM     14  C   UNL     1      -1.045  13.359  22.001  0.00  0.00    +0.000 A 
ATOM     15  N   UNL     1      -0.690  14.487  21.340  0.00  0.00    +0.000 NA
ATOM     16  C   UNL     1       0.304  14.361  20.432  0.00  0.00    +0.000 A 
ATOM     17  C   UNL     1       0.944  13.161  20.146  0.00  0.00    +0.000 A 
ATOM     18 BR   UNL     1       2.324  13.148  18.847  0.00  0.00    +0.000 Br
ENDBRANCH   9  11
ENDBRANCH   3   7
BRANCH   6  19
ATOM     19  O   UNL     1       3.814   5.362  18.288  0.00  0.00    +0.000 OA
ATOM     20  C   UNL     1       5.090   5.188  18.897  0.00  0.00    +0.000 C 
ENDBRANCH   6  19
BRANCH   1  21
ATOM     21  O   UNL     1       2.228   5.545  20.726  0.00  0.00    +0.000 OA
BRANCH  21  22
ATOM     22  C   UNL     1       1.160   4.605  20.594  0.00  0.00    +0.000 C 
BRANCH  22  23
ATOM     23  C   UNL     1       1.679   3.228  21.032  0.00  0.00    +0.000 C 
BRANCH  23  25
ATOM     24  C   UNL     1       1.132   2.778  18.594  0.00  0.00    +0.000 C 
ATOM     25  C   UNL     1       1.851   2.285  19.840  0.00  0.00    +0.000 C 
ENDBRANCH  23  25
ENDBRANCH  22  23
ENDBRANCH  21  22
ENDBRANCH   1  21
TORSDOF 7
ENDMDL
MODEL 9
REMARK VINA RESULT:      -6.3      5.878      8.135
REMARK  Name = 
REMARK  9 active torsions:
REMARK  status: ('A' for Active; 'I' for Inactive)
REMARK    1  A    between atoms: C_1  and  C_2
REMARK    2  A    between atoms: C_2  and  C_3
REMARK    3  A    between atoms: C_3  and  C_4
REMARK    4  A    between atoms: C_4  and  O_5
REMARK    5  A    between atoms: O_5  and  C_6
REMARK    6  A    between atoms: C_8  and  C_9
REMARK    7  A    between atoms: N_11  and  C_12
REMARK    8  A    between atoms: C_22  and  O_23
REMARK    9  A    between atoms: O_23  and  C_24
REMARK                            x       y       z     vdW  Elec       q    Type
REMARK                         _______ _______ _______ _____ _____    ______ ____
ROOT
ATOM      1  C   UNL     1       2.587   6.653  19.473  0.00  0.00    +0.000 A 
ATOM      2  C   UNL     1       1.734   7.685  19.906  0.00  0.00    +0.000 A 
ATOM      3  C   UNL     1       1.520   8.822  19.122  0.00  0.00    +0.000 A 
ATOM      4  C   UNL     1       2.189   8.952  17.905  0.00  0.00    +0.000 A 
ATOM      5  C   UNL     1       3.035   7.929  17.463  0.00  0.00    +0.000 A 
ATOM      6  C   UNL     1       3.234   6.766  18.227  0.00  0.00    +0.000 A 
ENDROOT
BRANCH   3   7
ATOM      7  C   UNL     1       0.588   9.879  19.594  0.00  0.00    +0.000 C 
ATOM      8  O   UNL     1      -0.482  10.042  19.025  0.00  0.00    +0.000 OA
ATOM      9  N   UNL     1       1.100  10.682  20.604  0.00  0.00    +0.000 N 
ATOM     10  H   UNL     1       2.113  10.771  20.580  0.00  0.00    +0.000 HD
BRANCH   9  11
ATOM     11  C   UNL     1       0.404  11.821  21.091  0.00  0.00    +0.000 A 
ATOM     12  C   UNL     1       0.473  13.088  20.489  0.00  0.00    +0.000 A 
ATOM     13 BR   UNL     1       1.280  13.416  18.804  0.00  0.00    +0.000 Br
ATOM     14  C   UNL     1      -0.231  14.133  21.078  0.00  0.00    +0.000 A 
ATOM     15  N   UNL     1      -0.997  14.010  22.189  0.00  0.00    +0.000 NA
ATOM     16  C   UNL     1      -1.082  12.772  22.724  0.00  0.00    +0.000 A 
ATOM     17  C   UNL     1      -0.428  11.659  22.210  0.00  0.00    +0.000 A 
ATOM     18 BR   UNL     1      -0.652   9.987  23.072  0.00  0.00    +0.000 Br
ENDBRANCH   9  11
ENDBRANCH   3   7
BRANCH   6  19
ATOM     19  O   UNL     1       3.986   5.709  17.779  0.00  0.00    +0.000 OA
ATOM     20  C   UNL     1       5.392   5.766  18.003  0.00  0.00    +0.000 C 
ENDBRANCH   6  19
BRANCH   1  21
ATOM     21  O   UNL     1       2.634   5.605  20.358  0.00  0.00    +0.000 OA
BRANCH  21  22
ATOM     22  C   UNL     1       1.435   4.871  20.609  0.00  0.00    +0.000 C 
BRANCH  22  23
ATOM     23  C   UNL     1       1.648   3.429  20.126  0.00  0.00    +0.000 C 
BRANCH  23  25
ATOM     24  C   UNL     1       2.333   2.676  17.800  0.00  0.00    +0.000 C 
ATOM     25  C   UNL     1       1.226   3.256  18.666  0.00  0.00    +0.000 C 
ENDBRANCH  23  25
ENDBRANCH  22  23
ENDBRANCH  21  22
ENDBRANCH   1  21
TORSDOF 7
ENDMDL
