MODEL 1
REMARK VINA RESULT:      -7.2      0.000      0.000
REMARK  Name = 
REMARK  11 active torsions:
REMARK  status: ('A' for Active; 'I' for Inactive)
REMARK    1  A    between atoms: C_1  and  C_2
REMARK    2  A    between atoms: C_2  and  C_3
REMARK    3  A    between atoms: C_3  and  C_4
REMARK    4  A    between atoms: C_4  and  C_5
REMARK    5  A    between atoms: C_9  and  O_10
REMARK    6  A    between atoms: C_11  and  C_12
REMARK    7  A    between atoms: C_14  and  C_15
REMARK    8  A    between atoms: C_15  and  C_16
REMARK    9  A    between atoms: C_16  and  C_17
REMARK   10  A    between atoms: C_17  and  C_18
REMARK   11  A    between atoms: C_22  and  O_23
REMARK                            x       y       z     vdW  Elec       q    Type
REMARK                         _______ _______ _______ _____ _____    ______ ____
ROOT
ATOM      1  C   UNL     1       7.139   6.451  17.806  0.00  0.00    +0.000 A 
ATOM      2  C   UNL     1       7.197   5.743  16.603  0.00  0.00    +0.000 A 
ATOM      3  C   UNL     1       6.108   4.976  16.203  0.00  0.00    +0.000 A 
ATOM      4 BR   UNL     1       6.223   4.037  14.556  0.00  0.00    +0.000 Br
ATOM      5  C   UNL     1       4.951   4.902  16.996  0.00  0.00    +0.000 A 
ATOM      6  C   UNL     1       4.869   5.558  18.245  0.00  0.00    +0.000 A 
ATOM      7  C   UNL     1       6.003   6.312  18.623  0.00  0.00    +0.000 A 
ENDROOT
BRANCH   6   8
ATOM      8  C   UNL     1       3.678   5.469  19.152  0.00  0.00    +0.000 A 
ATOM      9  C   UNL     1       2.872   6.607  19.379  0.00  0.00    +0.000 A 
ATOM     10  C   UNL     1       1.769   6.609  20.252  0.00  0.00    +0.000 A 
ATOM     11  C   UNL     1       1.387   5.411  20.855  0.00  0.00    +0.000 A 
ATOM     12  C   UNL     1       2.135   4.259  20.633  0.00  0.00    +0.000 A 
ATOM     13 BR   UNL     1       1.582   2.649  21.477  0.00  0.00    +0.000 Br
ATOM     14  C   UNL     1       3.277   4.289  19.815  0.00  0.00    +0.000 A 
BRANCH  14  15
ATOM     15  O   UNL     1       4.018   3.137  19.675  0.00  0.00    +0.000 OA
ATOM     16  H   UNL     1       4.891   3.300  20.075  0.00  0.00    +0.000 HD
ENDBRANCH  14  15
BRANCH  10  17
ATOM     17  C   UNL     1       1.036   7.898  20.537  0.00  0.00    +0.000 C 
BRANCH  17  18
ATOM     18  C   UNL     1       1.480   8.597  21.831  0.00  0.00    +0.000 C 
BRANCH  18  19
ATOM     19  C   UNL     1       0.686   9.870  22.141  0.00  0.00    +0.000 C 
ATOM     20  C   UNL     1      -0.356   9.618  23.221  0.00  0.00    +0.000 C 
ENDBRANCH  18  19
ENDBRANCH  17  18
ENDBRANCH  10  17
ENDBRANCH   6   8
BRANCH   5  21
ATOM     21  O   UNL     1       3.876   4.185  16.526  0.00  0.00    +0.000 OA
ATOM     22  H   UNL     1       3.553   4.632  15.722  0.00  0.00    +0.000 HD
ENDBRANCH   5  21
BRANCH   1  23
ATOM     23  C   UNL     1       8.270   7.367  18.216  0.00  0.00    +0.000 C 
BRANCH  23  24
ATOM     24  C   UNL     1       7.978   8.828  17.853  0.00  0.00    +0.000 C 
BRANCH  24  26
ATOM     25  C   UNL     1       8.939  11.148  17.963  0.00  0.00    +0.000 C 
ATOM     26  C   UNL     1       8.845   9.796  18.656  0.00  0.00    +0.000 C 
ENDBRANCH  24  26
ENDBRANCH  23  24
ENDBRANCH   1  23
TORSDOF 9
ENDMDL
MODEL 2
REMARK VINA RESULT:      -7.2      0.497      6.766
REMARK  Name = 
REMARK  11 active torsions:
REMARK  status: ('A' for Active; 'I' for Inactive)
REMARK    1  A    between atoms: C_1  and  C_2
REMARK    2  A    between atoms: C_2  and  C_3
REMARK    3  A    between atoms: C_3  and  C_4
REMARK    4  A    between atoms: C_4  and  C_5
REMARK    5  A    between atoms: C_9  and  O_10
REMARK    6  A    between atoms: C_11  and  C_12
REMARK    7  A    between atoms: C_14  and  C_15
REMARK    8  A    between atoms: C_15  and  C_16
REMARK    9  A    between atoms: C_16  and  C_17
REMARK   10  A    between atoms: C_17  and  C_18
REMARK   11  A    between atoms: C_22  and  O_23
REMARK                            x       y       z     vdW  Elec       q    Type
REMARK                         _______ _______ _______ _____ _____    ______ ____
ROOT
ATOM      1  C   UNL     1       1.977   6.998  20.100  0.00  0.00    +0.000 A 
ATOM      2  C   UNL     1       1.574   5.838  20.765  0.00  0.00    +0.000 A 
ATOM      3  C   UNL     1       2.259   4.647  20.548  0.00  0.00    +0.000 A 
ATOM      4 BR   UNL     1       1.686   3.095  21.482  0.00  0.00    +0.000 Br
ATOM      5  C   UNL     1       3.349   4.596  19.665  0.00  0.00    +0.000 A 
ATOM      6  C   UNL     1       3.757   5.731  18.929  0.00  0.00    +0.000 A 
ATOM      7  C   UNL     1       3.024   6.916  19.165  0.00  0.00    +0.000 A 
ENDROOT
BRANCH   6   8
ATOM      8  C   UNL     1       4.880   5.716  17.935  0.00  0.00    +0.000 A 
ATOM      9  C   UNL     1       6.028   6.511  18.150  0.00  0.00    +0.000 A 
ATOM     10  C   UNL     1       7.098   6.583  17.239  0.00  0.00    +0.000 A 
ATOM     11  C   UNL     1       7.077   5.761  16.112  0.00  0.00    +0.000 A 
ATOM     12  C   UNL     1       5.979   4.939  15.879  0.00  0.00    +0.000 A 
ATOM     13 BR   UNL     1       5.989   3.839  14.330  0.00  0.00    +0.000 Br
ATOM     14  C   UNL     1       4.885   4.932  16.761  0.00  0.00    +0.000 A 
BRANCH  14  15
ATOM     15  O   UNL     1       3.797   4.146  16.455  0.00  0.00    +0.000 OA
ATOM     16  H   UNL     1       3.055   4.742  16.249  0.00  0.00    +0.000 HD
ENDBRANCH  14  15
BRANCH  10  17
ATOM     17  C   UNL     1       8.230   7.552  17.481  0.00  0.00    +0.000 C 
BRANCH  17  18
ATOM     18  C   UNL     1       7.771   8.961  17.887  0.00  0.00    +0.000 C 
BRANCH  18  19
ATOM     19  C   UNL     1       8.787   9.708  18.756  0.00  0.00    +0.000 C 
ATOM     20  C   UNL     1       9.243  10.995  18.085  0.00  0.00    +0.000 C 
ENDBRANCH  18  19
ENDBRANCH  17  18
ENDBRANCH  10  17
ENDBRANCH   6   8
BRANCH   5  21
ATOM     21  O   UNL     1       4.035   3.411  19.534  0.00  0.00    +0.000 OA
ATOM     22  H   UNL     1       4.302   3.327  18.601  0.00  0.00    +0.000 HD
ENDBRANCH   5  21
BRANCH   1  23
ATOM     23  C   UNL     1       1.311   8.324  20.390  0.00  0.00    +0.000 C 
BRANCH  23  24
ATOM     24  C   UNL     1       0.360   8.232  21.589  0.00  0.00    +0.000 C 
BRANCH  24  26
ATOM     25  C   UNL     1      -0.627   9.961  23.123  0.00  0.00    +0.000 C 
ATOM     26  C   UNL     1       0.656   9.307  22.633  0.00  0.00    +0.000 C 
ENDBRANCH  24  26
ENDBRANCH  23  24
ENDBRANCH   1  23
TORSDOF 9
ENDMDL
MODEL 3
REMARK VINA RESULT:      -7.2      4.201      6.369
REMARK  Name = 
REMARK  11 active torsions:
REMARK  status: ('A' for Active; 'I' for Inactive)
REMARK    1  A    between atoms: C_1  and  C_2
REMARK    2  A    between atoms: C_2  and  C_3
REMARK    3  A    between atoms: C_3  and  C_4
REMARK    4  A    between atoms: C_4  and  C_5
REMARK    5  A    between atoms: C_9  and  O_10
REMARK    6  A    between atoms: C_11  and  C_12
REMARK    7  A    between atoms: C_14  and  C_15
REMARK    8  A    between atoms: C_15  and  C_16
REMARK    9  A    between atoms: C_16  and  C_17
REMARK   10  A    between atoms: C_17  and  C_18
REMARK   11  A    between atoms: C_22  and  O_23
REMARK                            x       y       z     vdW  Elec       q    Type
REMARK                         _______ _______ _______ _____ _____    ______ ____
ROOT
ATOM      1  C   UNL     1       5.859   3.467  12.585  0.00  0.00    +0.000 A 
ATOM      2  C   UNL     1       7.059   4.148  12.368  0.00  0.00    +0.000 A 
ATOM      3  C   UNL     1       7.576   4.969  13.364  0.00  0.00    +0.000 A 
ATOM      4 BR   UNL     1       9.215   5.867  13.032  0.00  0.00    +0.000 Br
ATOM      5  C   UNL     1       6.902   5.125  14.586  0.00  0.00    +0.000 A 
ATOM      6  C   UNL     1       5.658   4.500  14.830  0.00  0.00    +0.000 A 
ATOM      7  C   UNL     1       5.160   3.689  13.785  0.00  0.00    +0.000 A 
ENDROOT
BRANCH   6   8
ATOM      8  C   UNL     1       4.875   4.676  16.096  0.00  0.00    +0.000 A 
ATOM      9  C   UNL     1       4.601   3.562  16.922  0.00  0.00    +0.000 A 
ATOM     10  C   UNL     1       3.833   3.645  18.098  0.00  0.00    +0.000 A 
ATOM     11  C   UNL     1       3.397   4.897  18.529  0.00  0.00    +0.000 A 
ATOM     12  C   UNL     1       3.673   6.025  17.762  0.00  0.00    +0.000 A 
ATOM     13 BR   UNL     1       3.056   7.711  18.383  0.00  0.00    +0.000 Br
ATOM     14  C   UNL     1       4.379   5.917  16.552  0.00  0.00    +0.000 A 
BRANCH  14  15
ATOM     15  O   UNL     1       4.574   7.053  15.799  0.00  0.00    +0.000 OA
ATOM     16  H   UNL     1       3.874   7.686  16.037  0.00  0.00    +0.000 HD
ENDBRANCH  14  15
BRANCH  10  17
ATOM     17  C   UNL     1       3.479   2.388  18.856  0.00  0.00    +0.000 C 
BRANCH  17  18
ATOM     18  C   UNL     1       1.969   2.143  18.990  0.00  0.00    +0.000 C 
BRANCH  18  19
ATOM     19  C   UNL     1       1.416   2.481  20.378  0.00  0.00    +0.000 C 
ATOM     20  C   UNL     1       2.542   2.725  21.373  0.00  0.00    +0.000 C 
ENDBRANCH  18  19
ENDBRANCH  17  18
ENDBRANCH  10  17
ENDBRANCH   6   8
BRANCH   5  21
ATOM     21  O   UNL     1       7.486   5.895  15.566  0.00  0.00    +0.000 OA
ATOM     22  H   UNL     1       7.397   5.415  16.409  0.00  0.00    +0.000 HD
ENDBRANCH   5  21
BRANCH   1  23
ATOM     23  C   UNL     1       5.326   2.496  11.557  0.00  0.00    +0.000 C 
BRANCH  23  24
ATOM     24  C   UNL     1       3.870   2.802  11.186  0.00  0.00    +0.000 C 
BRANCH  24  26
ATOM     25  C   UNL     1       2.788   4.128   9.346  0.00  0.00    +0.000 C 
ATOM     26  C   UNL     1       3.726   4.179  10.543  0.00  0.00    +0.000 C 
ENDBRANCH  24  26
ENDBRANCH  23  24
ENDBRANCH   1  23
TORSDOF 9
ENDMDL
MODEL 4
REMARK VINA RESULT:      -7.0      0.910      1.023
REMARK  Name = 
REMARK  11 active torsions:
REMARK  status: ('A' for Active; 'I' for Inactive)
REMARK    1  A    between atoms: C_1  and  C_2
REMARK    2  A    between atoms: C_2  and  C_3
REMARK    3  A    between atoms: C_3  and  C_4
REMARK    4  A    between atoms: C_4  and  C_5
REMARK    5  A    between atoms: C_9  and  O_10
REMARK    6  A    between atoms: C_11  and  C_12
REMARK    7  A    between atoms: C_14  and  C_15
REMARK    8  A    between atoms: C_15  and  C_16
REMARK    9  A    between atoms: C_16  and  C_17
REMARK   10  A    between atoms: C_17  and  C_18
REMARK   11  A    between atoms: C_22  and  O_23
REMARK                            x       y       z     vdW  Elec       q    Type
REMARK                         _______ _______ _______ _____ _____    ______ ____
ROOT
ATOM      1  C   UNL     1       7.148   6.470  17.825  0.00  0.00    +0.000 A 
ATOM      2  C   UNL     1       7.194   5.777  16.613  0.00  0.00    +0.000 A 
ATOM      3  C   UNL     1       6.105   5.009  16.216  0.00  0.00    +0.000 A 
ATOM      4 BR   UNL     1       6.204   4.093  14.556  0.00  0.00    +0.000 Br
ATOM      5  C   UNL     1       4.959   4.919  17.023  0.00  0.00    +0.000 A 
ATOM      6  C   UNL     1       4.889   5.558  18.282  0.00  0.00    +0.000 A 
ATOM      7  C   UNL     1       6.023   6.313  18.655  0.00  0.00    +0.000 A 
ENDROOT
BRANCH   6   8
ATOM      8  C   UNL     1       3.710   5.450  19.202  0.00  0.00    +0.000 A 
ATOM      9  C   UNL     1       2.923   6.589  19.484  0.00  0.00    +0.000 A 
ATOM     10  C   UNL     1       1.833   6.572  20.373  0.00  0.00    +0.000 A 
ATOM     11  C   UNL     1       1.444   5.357  20.936  0.00  0.00    +0.000 A 
ATOM     12  C   UNL     1       2.173   4.205  20.660  0.00  0.00    +0.000 A 
ATOM     13 BR   UNL     1       1.611   2.571  21.451  0.00  0.00    +0.000 Br
ATOM     14  C   UNL     1       3.303   4.250  19.826  0.00  0.00    +0.000 A 
BRANCH  14  15
ATOM     15  O   UNL     1       4.026   3.095  19.632  0.00  0.00    +0.000 OA
ATOM     16  H   UNL     1       3.415   2.345  19.741  0.00  0.00    +0.000 HD
ENDBRANCH  14  15
BRANCH  10  17
ATOM     17  C   UNL     1       1.122   7.859  20.717  0.00  0.00    +0.000 C 
BRANCH  17  18
ATOM     18  C   UNL     1       1.405   9.010  19.741  0.00  0.00    +0.000 C 
BRANCH  18  19
ATOM     19  C   UNL     1       0.188   9.904  19.481  0.00  0.00    +0.000 C 
ATOM     20  C   UNL     1       0.380  11.284  20.092  0.00  0.00    +0.000 C 
ENDBRANCH  18  19
ENDBRANCH  17  18
ENDBRANCH  10  17
ENDBRANCH   6   8
BRANCH   5  21
ATOM     21  O   UNL     1       3.881   4.202  16.557  0.00  0.00    +0.000 OA
ATOM     22  H   UNL     1       3.798   4.382  15.603  0.00  0.00    +0.000 HD
ENDBRANCH   5  21
BRANCH   1  23
ATOM     23  C   UNL     1       8.279   7.386  18.233  0.00  0.00    +0.000 C 
BRANCH  23  24
ATOM     24  C   UNL     1       8.018   8.836  17.806  0.00  0.00    +0.000 C 
BRANCH  24  26
ATOM     25  C   UNL     1       8.806  11.215  17.989  0.00  0.00    +0.000 C 
ATOM     26  C   UNL     1       8.866   9.824  18.602  0.00  0.00    +0.000 C 
ENDBRANCH  24  26
ENDBRANCH  23  24
ENDBRANCH   1  23
TORSDOF 9
ENDMDL
MODEL 5
REMARK VINA RESULT:      -7.0      4.094      8.486
REMARK  Name = 
REMARK  11 active torsions:
REMARK  status: ('A' for Active; 'I' for Inactive)
REMARK    1  A    between atoms: C_1  and  C_2
REMARK    2  A    between atoms: C_2  and  C_3
REMARK    3  A    between atoms: C_3  and  C_4
REMARK    4  A    between atoms: C_4  and  C_5
REMARK    5  A    between atoms: C_9  and  O_10
REMARK    6  A    between atoms: C_11  and  C_12
REMARK    7  A    between atoms: C_14  and  C_15
REMARK    8  A    between atoms: C_15  and  C_16
REMARK    9  A    between atoms: C_16  and  C_17
REMARK   10  A    between atoms: C_17  and  C_18
REMARK   11  A    between atoms: C_22  and  O_23
REMARK                            x       y       z     vdW  Elec       q    Type
REMARK                         _______ _______ _______ _____ _____    ______ ____
ROOT
ATOM      1  C   UNL     1       4.140   3.532  18.158  0.00  0.00    +0.000 A 
ATOM      2  C   UNL     1       3.663   4.763  18.615  0.00  0.00    +0.000 A 
ATOM      3  C   UNL     1       3.826   5.899  17.830  0.00  0.00    +0.000 A 
ATOM      4 BR   UNL     1       3.154   7.551  18.483  0.00  0.00    +0.000 Br
ATOM      5  C   UNL     1       4.467   5.824  16.583  0.00  0.00    +0.000 A 
ATOM      6  C   UNL     1       5.013   4.611  16.104  0.00  0.00    +0.000 A 
ATOM      7  C   UNL     1       4.842   3.485  16.941  0.00  0.00    +0.000 A 
ENDROOT
BRANCH   6   8
ATOM      8  C   UNL     1       5.751   4.489  14.805  0.00  0.00    +0.000 A 
ATOM      9  C   UNL     1       5.227   3.692  13.762  0.00  0.00    +0.000 A 
ATOM     10  C   UNL     1       5.887   3.494  12.537  0.00  0.00    +0.000 A 
ATOM     11  C   UNL     1       7.071   4.189  12.291  0.00  0.00    +0.000 A 
ATOM     12  C   UNL     1       7.606   5.010  13.279  0.00  0.00    +0.000 A 
ATOM     13 BR   UNL     1       9.222   5.935  12.905  0.00  0.00    +0.000 Br
ATOM     14  C   UNL     1       6.972   5.141  14.526  0.00  0.00    +0.000 A 
BRANCH  14  15
ATOM     15  O   UNL     1       7.572   5.917  15.492  0.00  0.00    +0.000 OA
ATOM     16  H   UNL     1       7.011   6.702  15.628  0.00  0.00    +0.000 HD
ENDBRANCH  14  15
BRANCH  10  17
ATOM     17  C   UNL     1       5.322   2.527  11.524  0.00  0.00    +0.000 C 
BRANCH  17  18
ATOM     18  C   UNL     1       3.872   2.826  11.114  0.00  0.00    +0.000 C 
BRANCH  18  19
ATOM     19  C   UNL     1       3.690   4.210  10.482  0.00  0.00    +0.000 C 
ATOM     20  C   UNL     1       2.755   4.146   9.283  0.00  0.00    +0.000 C 
ENDBRANCH  18  19
ENDBRANCH  17  18
ENDBRANCH  10  17
ENDBRANCH   6   8
BRANCH   5  21
ATOM     21  O   UNL     1       4.544   6.961  15.813  0.00  0.00    +0.000 OA
ATOM     22  H   UNL     1       4.380   6.702  14.888  0.00  0.00    +0.000 HD
ENDBRANCH   5  21
BRANCH   1  23
ATOM     23  C   UNL     1       3.891   2.268  18.948  0.00  0.00    +0.000 C 
BRANCH  23  24
ATOM     24  C   UNL     1       2.995   2.525  20.166  0.00  0.00    +0.000 C 
BRANCH  24  26
ATOM     25  C   UNL     1       0.722   3.580  20.349  0.00  0.00    +0.000 C 
ATOM     26  C   UNL     1       1.514   2.394  19.819  0.00  0.00    +0.000 C 
ENDBRANCH  24  26
ENDBRANCH  23  24
ENDBRANCH   1  23
TORSDOF 9
ENDMDL
MODEL 6
REMARK VINA RESULT:      -6.8      3.116      7.274
REMARK  Name = 
REMARK  11 active torsions:
REMARK  status: ('A' for Active; 'I' for Inactive)
REMARK    1  A    between atoms: C_1  and  C_2
REMARK    2  A    between atoms: C_2  and  C_3
REMARK    3  A    between atoms: C_3  and  C_4
REMARK    4  A    between atoms: C_4  and  C_5
REMARK    5  A    between atoms: C_9  and  O_10
REMARK    6  A    between atoms: C_11  and  C_12
REMARK    7  A    between atoms: C_14  and  C_15
REMARK    8  A    between atoms: C_15  and  C_16
REMARK    9  A    between atoms: C_16  and  C_17
REMARK   10  A    between atoms: C_17  and  C_18
REMARK   11  A    between atoms: C_22  and  O_23
REMARK                            x       y       z     vdW  Elec       q    Type
REMARK                         _______ _______ _______ _____ _____    ______ ____
ROOT
ATOM      1  C   UNL     1       0.485  10.140  18.887  0.00  0.00    +0.000 A 
ATOM      2  C   UNL     1       0.173  10.208  20.247  0.00  0.00    +0.000 A 
ATOM      3  C   UNL     1       0.662   9.238  21.115  0.00  0.00    +0.000 A 
ATOM      4 BR   UNL     1       0.222   9.375  22.958  0.00  0.00    +0.000 Br
ATOM      5  C   UNL     1       1.464   8.188  20.641  0.00  0.00    +0.000 A 
ATOM      6  C   UNL     1       1.761   8.047  19.266  0.00  0.00    +0.000 A 
ATOM      7  C   UNL     1       1.230   9.043  18.415  0.00  0.00    +0.000 A 
ENDROOT
BRANCH   6   8
ATOM      8  C   UNL     1       2.568   6.917  18.703  0.00  0.00    +0.000 A 
ATOM      9  C   UNL     1       3.633   7.180  17.811  0.00  0.00    +0.000 A 
ATOM     10  C   UNL     1       4.401   6.167  17.208  0.00  0.00    +0.000 A 
ATOM     11  C   UNL     1       4.172   4.841  17.575  0.00  0.00    +0.000 A 
ATOM     12  C   UNL     1       3.154   4.541  18.474  0.00  0.00    +0.000 A 
ATOM     13 BR   UNL     1       2.873   2.722  18.943  0.00  0.00    +0.000 Br
ATOM     14  C   UNL     1       2.347   5.557  19.014  0.00  0.00    +0.000 A 
BRANCH  14  15
ATOM     15  O   UNL     1       1.315   5.204  19.853  0.00  0.00    +0.000 OA
ATOM     16  H   UNL     1       1.709   4.873  20.679  0.00  0.00    +0.000 HD
ENDBRANCH  14  15
BRANCH  10  17
ATOM     17  C   UNL     1       5.437   6.526  16.169  0.00  0.00    +0.000 C 
BRANCH  17  18
ATOM     18  C   UNL     1       6.870   6.128  16.552  0.00  0.00    +0.000 C 
BRANCH  18  19
ATOM     19  C   UNL     1       7.451   6.965  17.697  0.00  0.00    +0.000 C 
ATOM     20  C   UNL     1       7.808   6.091  18.889  0.00  0.00    +0.000 C 
ENDBRANCH  18  19
ENDBRANCH  17  18
ENDBRANCH  10  17
ENDBRANCH   6   8
BRANCH   5  21
ATOM     21  O   UNL     1       1.979   7.292  21.549  0.00  0.00    +0.000 OA
ATOM     22  H   UNL     1       1.477   6.461  21.459  0.00  0.00    +0.000 HD
ENDBRANCH   5  21
BRANCH   1  23
ATOM     23  C   UNL     1       0.047  11.232  17.939  0.00  0.00    +0.000 C 
BRANCH  23  24
ATOM     24  C   UNL     1      -1.480  11.301  17.819  0.00  0.00    +0.000 C 
BRANCH  24  26
ATOM     25  C   UNL     1      -3.372   9.666  17.569  0.00  0.00    +0.000 C 
ATOM     26  C   UNL     1      -2.040  10.136  17.005  0.00  0.00    +0.000 C 
ENDBRANCH  24  26
ENDBRANCH  23  24
ENDBRANCH   1  23
TORSDOF 9
ENDMDL
MODEL 7
REMARK VINA RESULT:      -6.7      1.972      7.112
REMARK  Name = 
REMARK  11 active torsions:
REMARK  status: ('A' for Active; 'I' for Inactive)
REMARK    1  A    between atoms: C_1  and  C_2
REMARK    2  A    between atoms: C_2  and  C_3
REMARK    3  A    between atoms: C_3  and  C_4
REMARK    4  A    between atoms: C_4  and  C_5
REMARK    5  A    between atoms: C_9  and  O_10
REMARK    6  A    between atoms: C_11  and  C_12
REMARK    7  A    between atoms: C_14  and  C_15
REMARK    8  A    between atoms: C_15  and  C_16
REMARK    9  A    between atoms: C_16  and  C_17
REMARK   10  A    between atoms: C_17  and  C_18
REMARK   11  A    between atoms: C_22  and  O_23
REMARK                            x       y       z     vdW  Elec       q    Type
REMARK                         _______ _______ _______ _____ _____    ______ ____
ROOT
ATOM      1  C   UNL     1       2.372   4.873  20.864  0.00  0.00    +0.000 A 
ATOM      2  C   UNL     1       1.565   6.007  20.982  0.00  0.00    +0.000 A 
ATOM      3  C   UNL     1       1.770   7.090  20.134  0.00  0.00    +0.000 A 
ATOM      4 BR   UNL     1       0.643   8.607  20.322  0.00  0.00    +0.000 Br
ATOM      5  C   UNL     1       2.781   7.059  19.161  0.00  0.00    +0.000 A 
ATOM      6  C   UNL     1       3.657   5.956  19.040  0.00  0.00    +0.000 A 
ATOM      7  C   UNL     1       3.426   4.884  19.933  0.00  0.00    +0.000 A 
ENDROOT
BRANCH   6   8
ATOM      8  C   UNL     1       4.784   5.895  18.054  0.00  0.00    +0.000 A 
ATOM      9  C   UNL     1       5.974   6.621  18.290  0.00  0.00    +0.000 A 
ATOM     10  C   UNL     1       7.052   6.648  17.387  0.00  0.00    +0.000 A 
ATOM     11  C   UNL     1       6.994   5.849  16.246  0.00  0.00    +0.000 A 
ATOM     12  C   UNL     1       5.853   5.093  15.992  0.00  0.00    +0.000 A 
ATOM     13 BR   UNL     1       5.814   4.021  14.424  0.00  0.00    +0.000 Br
ATOM     14  C   UNL     1       4.754   5.132  16.866  0.00  0.00    +0.000 A 
BRANCH  14  15
ATOM     15  O   UNL     1       3.626   4.414  16.540  0.00  0.00    +0.000 OA
ATOM     16  H   UNL     1       3.052   4.397  17.326  0.00  0.00    +0.000 HD
ENDBRANCH  14  15
BRANCH  10  17
ATOM     17  C   UNL     1       8.235   7.549  17.653  0.00  0.00    +0.000 C 
BRANCH  17  18
ATOM     18  C   UNL     1       7.868   9.032  17.815  0.00  0.00    +0.000 C 
BRANCH  18  19
ATOM     19  C   UNL     1       8.805   9.794  18.757  0.00  0.00    +0.000 C 
ATOM     20  C   UNL     1       9.468  10.963  18.043  0.00  0.00    +0.000 C 
ENDBRANCH  18  19
ENDBRANCH  17  18
ENDBRANCH  10  17
ENDBRANCH   6   8
BRANCH   5  21
ATOM     21  O   UNL     1       2.901   8.126  18.302  0.00  0.00    +0.000 OA
ATOM     22  H   UNL     1       2.575   8.917  18.769  0.00  0.00    +0.000 HD
ENDBRANCH   5  21
BRANCH   1  23
ATOM     23  C   UNL     1       2.109   3.647  21.707  0.00  0.00    +0.000 C 
BRANCH  23  24
ATOM     24  C   UNL     1       1.751   2.430  20.845  0.00  0.00    +0.000 C 
BRANCH  24  26
ATOM     25  C   UNL     1       1.157   2.433  18.403  0.00  0.00    +0.000 C 
ATOM     26  C   UNL     1       0.679   2.763  19.810  0.00  0.00    +0.000 C 
ENDBRANCH  24  26
ENDBRANCH  23  24
ENDBRANCH   1  23
TORSDOF 9
ENDMDL
MODEL 8
REMARK VINA RESULT:      -6.7      3.121      4.323
REMARK  Name = 
REMARK  11 active torsions:
REMARK  status: ('A' for Active; 'I' for Inactive)
REMARK    1  A    between atoms: C_1  and  C_2
REMARK    2  A    between atoms: C_2  and  C_3
REMARK    3  A    between atoms: C_3  and  C_4
REMARK    4  A    between atoms: C_4  and  C_5
REMARK    5  A    between atoms: C_9  and  O_10
REMARK    6  A    between atoms: C_11  and  C_12
REMARK    7  A    between atoms: C_14  and  C_15
REMARK    8  A    between atoms: C_15  and  C_16
REMARK    9  A    between atoms: C_16  and  C_17
REMARK   10  A    between atoms: C_17  and  C_18
REMARK   11  A    between atoms: C_22  and  O_23
REMARK                            x       y       z     vdW  Elec       q    Type
REMARK                         _______ _______ _______ _____ _____    ______ ____
ROOT
ATOM      1  C   UNL     1       4.488   6.209  17.172  0.00  0.00    +0.000 A 
ATOM      2  C   UNL     1       4.222   4.868  17.455  0.00  0.00    +0.000 A 
ATOM      3  C   UNL     1       3.148   4.536  18.273  0.00  0.00    +0.000 A 
ATOM      4 BR   UNL     1       2.815   2.700  18.624  0.00  0.00    +0.000 Br
ATOM      5  C   UNL     1       2.328   5.536  18.822  0.00  0.00    +0.000 A 
ATOM      6  C   UNL     1       2.591   6.908  18.608  0.00  0.00    +0.000 A 
ATOM      7  C   UNL     1       3.703   7.202  17.785  0.00  0.00    +0.000 A 
ENDROOT
BRANCH   6   8
ATOM      8  C   UNL     1       1.779   8.013  19.213  0.00  0.00    +0.000 A 
ATOM      9  C   UNL     1       1.235   9.026  18.391  0.00  0.00    +0.000 A 
ATOM     10  C   UNL     1       0.504  10.117  18.894  0.00  0.00    +0.000 A 
ATOM     11  C   UNL     1       0.214  10.161  20.258  0.00  0.00    +0.000 A 
ATOM     12  C   UNL     1       0.704   9.166  21.098  0.00  0.00    +0.000 A 
ATOM     13 BR   UNL     1       0.291   9.266  22.950  0.00  0.00    +0.000 Br
ATOM     14  C   UNL     1       1.495   8.120  20.592  0.00  0.00    +0.000 A 
BRANCH  14  15
ATOM     15  O   UNL     1       2.006   7.194  21.472  0.00  0.00    +0.000 OA
ATOM     16  H   UNL     1       1.562   7.328  22.329  0.00  0.00    +0.000 HD
ENDBRANCH  14  15
BRANCH  10  17
ATOM     17  C   UNL     1       0.065  11.223  17.964  0.00  0.00    +0.000 C 
BRANCH  17  18
ATOM     18  C   UNL     1      -1.459  11.351  17.820  0.00  0.00    +0.000 C 
BRANCH  18  19
ATOM     19  C   UNL     1      -2.127  10.095  17.251  0.00  0.00    +0.000 C 
ATOM     20  C   UNL     1      -3.619  10.084  17.550  0.00  0.00    +0.000 C 
ENDBRANCH  18  19
ENDBRANCH  17  18
ENDBRANCH  10  17
ENDBRANCH   6   8
BRANCH   5  21
ATOM     21  O   UNL     1       1.238   5.156  19.571  0.00  0.00    +0.000 OA
ATOM     22  H   UNL     1       1.436   5.360  20.502  0.00  0.00    +0.000 HD
ENDBRANCH   5  21
BRANCH   1  23
ATOM     23  C   UNL     1       5.589   6.591  16.209  0.00  0.00    +0.000 C 
BRANCH  23  24
ATOM     24  C   UNL     1       6.948   6.032  16.649  0.00  0.00    +0.000 C 
BRANCH  24  26
ATOM     25  C   UNL     1       7.811   8.185  17.616  0.00  0.00    +0.000 C 
ATOM     26  C   UNL     1       7.470   6.730  17.903  0.00  0.00    +0.000 C 
ENDBRANCH  24  26
ENDBRANCH  23  24
ENDBRANCH   1  23
TORSDOF 9
ENDMDL
MODEL 9
REMARK VINA RESULT:      -6.7      3.333      6.766
REMARK  Name = 
REMARK  11 active torsions:
REMARK  status: ('A' for Active; 'I' for Inactive)
REMARK    1  A    between atoms: C_1  and  C_2
REMARK    2  A    between atoms: C_2  and  C_3
REMARK    3  A    between atoms: C_3  and  C_4
REMARK    4  A    between atoms: C_4  and  C_5
REMARK    5  A    between atoms: C_9  and  O_10
REMARK    6  A    between atoms: C_11  and  C_12
REMARK    7  A    between atoms: C_14  and  C_15
REMARK    8  A    between atoms: C_15  and  C_16
REMARK    9  A    between atoms: C_16  and  C_17
REMARK   10  A    between atoms: C_17  and  C_18
REMARK   11  A    between atoms: C_22  and  O_23
REMARK                            x       y       z     vdW  Elec       q    Type
REMARK                         _______ _______ _______ _____ _____    ______ ____
ROOT
ATOM      1  C   UNL     1       1.037   8.558  20.898  0.00  0.00    +0.000 A 
ATOM      2  C   UNL     1       1.016   9.807  20.273  0.00  0.00    +0.000 A 
ATOM      3  C   UNL     1       1.534   9.945  18.990  0.00  0.00    +0.000 A 
ATOM      4 BR   UNL     1       1.476  11.658  18.174  0.00  0.00    +0.000 Br
ATOM      5  C   UNL     1       2.081   8.842  18.315  0.00  0.00    +0.000 A 
ATOM      6  C   UNL     1       2.173   7.571  18.927  0.00  0.00    +0.000 A 
ATOM      7  C   UNL     1       1.652   7.479  20.237  0.00  0.00    +0.000 A 
ENDROOT
BRANCH   6   8
ATOM      8  C   UNL     1       2.795   6.376  18.269  0.00  0.00    +0.000 A 
ATOM      9  C   UNL     1       2.128   5.130  18.285  0.00  0.00    +0.000 A 
ATOM     10  C   UNL     1       2.672   3.958  17.730  0.00  0.00    +0.000 A 
ATOM     11  C   UNL     1       3.884   4.038  17.045  0.00  0.00    +0.000 A 
ATOM     12  C   UNL     1       4.558   5.253  16.978  0.00  0.00    +0.000 A 
ATOM     13 BR   UNL     1       6.208   5.318  16.038  0.00  0.00    +0.000 Br
ATOM     14  C   UNL     1       4.037   6.401  17.599  0.00  0.00    +0.000 A 
BRANCH  14  15
ATOM     15  O   UNL     1       4.771   7.565  17.556  0.00  0.00    +0.000 OA
ATOM     16  H   UNL     1       4.170   8.280  17.281  0.00  0.00    +0.000 HD
ENDBRANCH  14  15
BRANCH  10  17
ATOM     17  C   UNL     1       1.954   2.640  17.901  0.00  0.00    +0.000 C 
BRANCH  17  18
ATOM     18  C   UNL     1       1.004   2.597  19.107  0.00  0.00    +0.000 C 
BRANCH  18  19
ATOM     19  C   UNL     1       1.711   2.294  20.432  0.00  0.00    +0.000 C 
ATOM     20  C   UNL     1       1.689   3.503  21.354  0.00  0.00    +0.000 C 
ENDBRANCH  18  19
ENDBRANCH  17  18
ENDBRANCH  10  17
ENDBRANCH   6   8
BRANCH   5  21
ATOM     21  O   UNL     1       2.519   9.013  17.022  0.00  0.00    +0.000 OA
ATOM     22  H   UNL     1       2.349   8.183  16.541  0.00  0.00    +0.000 HD
ENDBRANCH   5  21
BRANCH   1  23
ATOM     23  C   UNL     1       0.395   8.361  22.252  0.00  0.00    +0.000 C 
BRANCH  23  24
ATOM     24  C   UNL     1       0.388   9.658  23.071  0.00  0.00    +0.000 C 
BRANCH  24  26
ATOM     25  C   UNL     1      -0.997  11.738  22.804  0.00  0.00    +0.000 C 
ATOM     26  C   UNL     1      -1.012  10.261  23.167  0.00  0.00    +0.000 C 
ENDBRANCH  24  26
ENDBRANCH  23  24
ENDBRANCH   1  23
TORSDOF 9
ENDMDL
