MODEL 1
REMARK VINA RESULT:      -8.2      0.000      0.000
REMARK  Name = 
REMARK  3 active torsions:
REMARK  status: ('A' for Active; 'I' for Inactive)
REMARK    1  A    between atoms: C_1  and  C_2
REMARK    2  A    between atoms: C_9  and  C_10
REMARK    3  A    between atoms: C_15  and  C_16
REMARK                            x       y       z     vdW  Elec       q    Type
REMARK                         _______ _______ _______ _____ _____    ______ ____
ROOT
ATOM      1  C   UNL     1       5.639   3.544  12.292  0.00  0.00    +0.000 C 
ATOM      2  C   UNL     1       6.000   4.015  13.670  0.00  0.00    +0.000 A 
ATOM      3  C   UNL     1       7.261   4.586  13.956  0.00  0.00    +0.000 A 
ATOM      4  C   UNL     1       7.591   5.013  15.250  0.00  0.00    +0.000 A 
ATOM      5  C   UNL     1       6.637   4.853  16.232  0.00  0.00    +0.000 A 
ATOM      6  C   UNL     1       5.387   4.301  15.961  0.00  0.00    +0.000 A 
ATOM      7  C   UNL     1       5.054   3.872  14.690  0.00  0.00    +0.000 A 
ATOM      8  C   UNL     1       4.656   4.283  17.224  0.00  0.00    +0.000 C 
ATOM      9  C   UNL     1       3.409   3.810  17.345  0.00  0.00    +0.000 C 
ATOM     10  C   UNL     1       5.573   4.858  18.274  0.00  0.00    +0.000 C 
ATOM     11  O   UNL     1       5.368   5.020  19.460  0.00  0.00    +0.000 OA
ATOM     12  N   UNL     1       6.737   5.180  17.583  0.00  0.00    +0.000 N 
ATOM     13  H   UNL     1       7.543   5.587  18.036  0.00  0.00    +0.000 HD
ENDROOT
BRANCH   9  14
ATOM     14  C   UNL     1       2.665   3.709  18.596  0.00  0.00    +0.000 A 
ATOM     15  C   UNL     1       2.610   2.470  19.244  0.00  0.00    +0.000 A 
ATOM     16  C   UNL     1       1.914   2.338  20.442  0.00  0.00    +0.000 A 
ATOM     17  C   UNL     1       1.277   3.445  20.998  0.00  0.00    +0.000 A 
ATOM     18  C   UNL     1       1.342   4.687  20.365  0.00  0.00    +0.000 A 
ATOM     19  C   UNL     1       2.038   4.837  19.158  0.00  0.00    +0.000 A 
ATOM     20  C   UNL     1       2.096   6.183  18.489  0.00  0.00    +0.000 C 
ENDBRANCH   9  14
TORSDOF 1
ENDMDL
MODEL 2
REMARK VINA RESULT:      -8.2      0.505      1.616
REMARK  Name = 
REMARK  3 active torsions:
REMARK  status: ('A' for Active; 'I' for Inactive)
REMARK    1  A    between atoms: C_1  and  C_2
REMARK    2  A    between atoms: C_9  and  C_10
REMARK    3  A    between atoms: C_15  and  C_16
REMARK                            x       y       z     vdW  Elec       q    Type
REMARK                         _______ _______ _______ _____ _____    ______ ____
ROOT
ATOM      1  C   UNL     1       5.518   3.444  12.339  0.00  0.00    +0.000 C 
ATOM      2  C   UNL     1       5.905   4.017  13.670  0.00  0.00    +0.000 A 
ATOM      3  C   UNL     1       7.127   4.701  13.860  0.00  0.00    +0.000 A 
ATOM      4  C   UNL     1       7.483   5.223  15.112  0.00  0.00    +0.000 A 
ATOM      5  C   UNL     1       6.594   5.043  16.149  0.00  0.00    +0.000 A 
ATOM      6  C   UNL     1       5.381   4.379  15.972  0.00  0.00    +0.000 A 
ATOM      7  C   UNL     1       5.024   3.856  14.744  0.00  0.00    +0.000 A 
ATOM      8  C   UNL     1       4.715   4.373  17.271  0.00  0.00    +0.000 C 
ATOM      9  C   UNL     1       3.518   3.810  17.481  0.00  0.00    +0.000 C 
ATOM     10  C   UNL     1       5.632   5.076  18.240  0.00  0.00    +0.000 C 
ATOM     11  O   UNL     1       5.471   5.286  19.426  0.00  0.00    +0.000 OA
ATOM     12  N   UNL     1       6.730   5.450  17.474  0.00  0.00    +0.000 N 
ATOM     13  H   UNL     1       7.521   5.943  17.864  0.00  0.00    +0.000 HD
ENDROOT
BRANCH   9  14
ATOM     14  C   UNL     1       2.845   3.720  18.772  0.00  0.00    +0.000 A 
ATOM     15  C   UNL     1       1.892   4.691  19.100  0.00  0.00    +0.000 A 
ATOM     16  C   UNL     1       1.227   4.633  20.321  0.00  0.00    +0.000 A 
ATOM     17  C   UNL     1       1.507   3.602  21.214  0.00  0.00    +0.000 A 
ATOM     18  C   UNL     1       2.445   2.621  20.886  0.00  0.00    +0.000 A 
ATOM     19  C   UNL     1       3.125   2.665  19.661  0.00  0.00    +0.000 A 
ATOM     20  C   UNL     1       4.134   1.601  19.326  0.00  0.00    +0.000 C 
ENDBRANCH   9  14
TORSDOF 1
ENDMDL
MODEL 3
REMARK VINA RESULT:      -8.1      1.267      2.128
REMARK  Name = 
REMARK  3 active torsions:
REMARK  status: ('A' for Active; 'I' for Inactive)
REMARK    1  A    between atoms: C_1  and  C_2
REMARK    2  A    between atoms: C_9  and  C_10
REMARK    3  A    between atoms: C_15  and  C_16
REMARK                            x       y       z     vdW  Elec       q    Type
REMARK                         _______ _______ _______ _____ _____    ______ ____
ROOT
ATOM      1  C   UNL     1       5.236   2.762  11.495  0.00  0.00    +0.000 C 
ATOM      2  C   UNL     1       5.823   3.567  12.616  0.00  0.00    +0.000 A 
ATOM      3  C   UNL     1       7.101   4.164  12.515  0.00  0.00    +0.000 A 
ATOM      4  C   UNL     1       7.645   4.905  13.573  0.00  0.00    +0.000 A 
ATOM      5  C   UNL     1       6.884   5.030  14.716  0.00  0.00    +0.000 A 
ATOM      6  C   UNL     1       5.618   4.455  14.824  0.00  0.00    +0.000 A 
ATOM      7  C   UNL     1       5.077   3.717  13.789  0.00  0.00    +0.000 A 
ATOM      8  C   UNL     1       5.123   4.785  16.156  0.00  0.00    +0.000 C 
ATOM      9  C   UNL     1       3.929   4.389  16.616  0.00  0.00    +0.000 C 
ATOM     10  C   UNL     1       6.198   5.593  16.840  0.00  0.00    +0.000 C 
ATOM     11  O   UNL     1       6.202   6.064  17.960  0.00  0.00    +0.000 OA
ATOM     12  N   UNL     1       7.212   5.696  15.894  0.00  0.00    +0.000 N 
ATOM     13  H   UNL     1       8.076   6.188  16.076  0.00  0.00    +0.000 HD
ENDROOT
BRANCH   9  14
ATOM     14  C   UNL     1       3.421   4.636  17.961  0.00  0.00    +0.000 A 
ATOM     15  C   UNL     1       2.946   5.915  18.273  0.00  0.00    +0.000 A 
ATOM     16  C   UNL     1       2.449   6.185  19.544  0.00  0.00    +0.000 A 
ATOM     17  C   UNL     1       2.418   5.176  20.504  0.00  0.00    +0.000 A 
ATOM     18  C   UNL     1       2.875   3.894  20.194  0.00  0.00    +0.000 A 
ATOM     19  C   UNL     1       3.380   3.605  18.919  0.00  0.00    +0.000 A 
ATOM     20  C   UNL     1       3.869   2.219  18.603  0.00  0.00    +0.000 C 
ENDBRANCH   9  14
TORSDOF 1
ENDMDL
MODEL 4
REMARK VINA RESULT:      -7.9      1.226      1.460
REMARK  Name = 
REMARK  3 active torsions:
REMARK  status: ('A' for Active; 'I' for Inactive)
REMARK    1  A    between atoms: C_1  and  C_2
REMARK    2  A    between atoms: C_9  and  C_10
REMARK    3  A    between atoms: C_15  and  C_16
REMARK                            x       y       z     vdW  Elec       q    Type
REMARK                         _______ _______ _______ _____ _____    ______ ____
ROOT
ATOM      1  C   UNL     1       4.972   3.031  11.344  0.00  0.00    +0.000 C 
ATOM      2  C   UNL     1       5.645   3.694  12.509  0.00  0.00    +0.000 A 
ATOM      3  C   UNL     1       6.941   4.249  12.404  0.00  0.00    +0.000 A 
ATOM      4  C   UNL     1       7.565   4.857  13.503  0.00  0.00    +0.000 A 
ATOM      5  C   UNL     1       6.865   4.891  14.689  0.00  0.00    +0.000 A 
ATOM      6  C   UNL     1       5.583   4.356  14.803  0.00  0.00    +0.000 A 
ATOM      7  C   UNL     1       4.962   3.749  13.727  0.00  0.00    +0.000 A 
ATOM      8  C   UNL     1       5.165   4.564  16.186  0.00  0.00    +0.000 C 
ATOM      9  C   UNL     1       3.978   4.168  16.664  0.00  0.00    +0.000 C 
ATOM     10  C   UNL     1       6.304   5.255  16.892  0.00  0.00    +0.000 C 
ATOM     11  O   UNL     1       6.381   5.608  18.053  0.00  0.00    +0.000 OA
ATOM     12  N   UNL     1       7.277   5.418  15.911  0.00  0.00    +0.000 N 
ATOM     13  H   UNL     1       8.168   5.856  16.097  0.00  0.00    +0.000 HD
ENDROOT
BRANCH   9  14
ATOM     14  C   UNL     1       3.545   4.293  18.051  0.00  0.00    +0.000 A 
ATOM     15  C   UNL     1       3.662   3.180  18.892  0.00  0.00    +0.000 A 
ATOM     16  C   UNL     1       3.264   3.264  20.222  0.00  0.00    +0.000 A 
ATOM     17  C   UNL     1       2.753   4.462  20.718  0.00  0.00    +0.000 A 
ATOM     18  C   UNL     1       2.649   5.580  19.888  0.00  0.00    +0.000 A 
ATOM     19  C   UNL     1       3.045   5.512  18.545  0.00  0.00    +0.000 A 
ATOM     20  C   UNL     1       2.923   6.726  17.666  0.00  0.00    +0.000 C 
ENDBRANCH   9  14
TORSDOF 1
ENDMDL
MODEL 5
REMARK VINA RESULT:      -7.7      2.544      6.458
REMARK  Name = 
REMARK  3 active torsions:
REMARK  status: ('A' for Active; 'I' for Inactive)
REMARK    1  A    between atoms: C_1  and  C_2
REMARK    2  A    between atoms: C_9  and  C_10
REMARK    3  A    between atoms: C_15  and  C_16
REMARK                            x       y       z     vdW  Elec       q    Type
REMARK                         _______ _______ _______ _____ _____    ______ ____
ROOT
ATOM      1  C   UNL     1       0.538  10.742  18.584  0.00  0.00    +0.000 C 
ATOM      2  C   UNL     1       1.100   9.468  19.141  0.00  0.00    +0.000 A 
ATOM      3  C   UNL     1       0.739   8.992  20.423  0.00  0.00    +0.000 A 
ATOM      4  C   UNL     1       1.279   7.806  20.938  0.00  0.00    +0.000 A 
ATOM      5  C   UNL     1       2.176   7.121  20.146  0.00  0.00    +0.000 A 
ATOM      6  C   UNL     1       2.532   7.575  18.877  0.00  0.00    +0.000 A 
ATOM      7  C   UNL     1       2.010   8.747  18.363  0.00  0.00    +0.000 A 
ATOM      8  C   UNL     1       3.493   6.614  18.345  0.00  0.00    +0.000 C 
ATOM      9  C   UNL     1       4.061   6.732  17.138  0.00  0.00    +0.000 C 
ATOM     10  C   UNL     1       3.692   5.556  19.402  0.00  0.00    +0.000 C 
ATOM     11  O   UNL     1       4.410   4.577  19.375  0.00  0.00    +0.000 OA
ATOM     12  N   UNL     1       2.853   5.941  20.443  0.00  0.00    +0.000 N 
ATOM     13  H   UNL     1       2.778   5.415  21.302  0.00  0.00    +0.000 HD
ENDROOT
BRANCH   9  14
ATOM     14  C   UNL     1       5.074   5.836  16.592  0.00  0.00    +0.000 A 
ATOM     15  C   UNL     1       4.656   4.692  15.904  0.00  0.00    +0.000 A 
ATOM     16  C   UNL     1       5.595   3.817  15.365  0.00  0.00    +0.000 A 
ATOM     17  C   UNL     1       6.954   4.088  15.508  0.00  0.00    +0.000 A 
ATOM     18  C   UNL     1       7.377   5.237  16.179  0.00  0.00    +0.000 A 
ATOM     19  C   UNL     1       6.445   6.127  16.728  0.00  0.00    +0.000 A 
ATOM     20  C   UNL     1       6.919   7.358  17.450  0.00  0.00    +0.000 C 
ENDBRANCH   9  14
TORSDOF 1
ENDMDL
MODEL 6
REMARK VINA RESULT:      -7.6      3.505      7.179
REMARK  Name = 
REMARK  3 active torsions:
REMARK  status: ('A' for Active; 'I' for Inactive)
REMARK    1  A    between atoms: C_1  and  C_2
REMARK    2  A    between atoms: C_9  and  C_10
REMARK    3  A    between atoms: C_15  and  C_16
REMARK                            x       y       z     vdW  Elec       q    Type
REMARK                         _______ _______ _______ _____ _____    ______ ____
ROOT
ATOM      1  C   UNL     1      -0.380   9.246  23.120  0.00  0.00    +0.000 C 
ATOM      2  C   UNL     1       0.142   9.427  21.725  0.00  0.00    +0.000 A 
ATOM      3  C   UNL     1      -0.167  10.573  20.958  0.00  0.00    +0.000 A 
ATOM      4  C   UNL     1       0.317  10.726  19.651  0.00  0.00    +0.000 A 
ATOM      5  C   UNL     1       1.105   9.716  19.145  0.00  0.00    +0.000 A 
ATOM      6  C   UNL     1       1.425   8.585  19.896  0.00  0.00    +0.000 A 
ATOM      7  C   UNL     1       0.948   8.422  21.182  0.00  0.00    +0.000 A 
ATOM      8  C   UNL     1       2.258   7.742  19.045  0.00  0.00    +0.000 C 
ATOM      9  C   UNL     1       2.750   6.559  19.437  0.00  0.00    +0.000 C 
ATOM     10  C   UNL     1       2.400   8.451  17.722  0.00  0.00    +0.000 C 
ATOM     11  O   UNL     1       3.004   8.099  16.728  0.00  0.00    +0.000 OA
ATOM     12  N   UNL     1       1.682   9.632  17.880  0.00  0.00    +0.000 N 
ATOM     13  H   UNL     1       1.596  10.318  17.143  0.00  0.00    +0.000 HD
ENDROOT
BRANCH   9  14
ATOM     14  C   UNL     1       3.528   5.652  18.602  0.00  0.00    +0.000 A 
ATOM     15  C   UNL     1       4.921   5.786  18.584  0.00  0.00    +0.000 A 
ATOM     16  C   UNL     1       5.696   4.934  17.803  0.00  0.00    +0.000 A 
ATOM     17  C   UNL     1       5.081   3.942  17.042  0.00  0.00    +0.000 A 
ATOM     18  C   UNL     1       3.693   3.793  17.068  0.00  0.00    +0.000 A 
ATOM     19  C   UNL     1       2.898   4.643  17.849  0.00  0.00    +0.000 A 
ATOM     20  C   UNL     1       1.404   4.469  17.862  0.00  0.00    +0.000 C 
ENDBRANCH   9  14
TORSDOF 1
ENDMDL
MODEL 7
REMARK VINA RESULT:      -7.5      1.583      6.285
REMARK  Name = 
REMARK  3 active torsions:
REMARK  status: ('A' for Active; 'I' for Inactive)
REMARK    1  A    between atoms: C_1  and  C_2
REMARK    2  A    between atoms: C_9  and  C_10
REMARK    3  A    between atoms: C_15  and  C_16
REMARK                            x       y       z     vdW  Elec       q    Type
REMARK                         _______ _______ _______ _____ _____    ______ ____
ROOT
ATOM      1  C   UNL     1       1.502   2.557  21.267  0.00  0.00    +0.000 C 
ATOM      2  C   UNL     1       1.924   3.800  20.540  0.00  0.00    +0.000 A 
ATOM      3  C   UNL     1       1.458   5.080  20.920  0.00  0.00    +0.000 A 
ATOM      4  C   UNL     1       1.851   6.233  20.226  0.00  0.00    +0.000 A 
ATOM      5  C   UNL     1       2.707   6.069  19.159  0.00  0.00    +0.000 A 
ATOM      6  C   UNL     1       3.180   4.814  18.780  0.00  0.00    +0.000 A 
ATOM      7  C   UNL     1       2.795   3.671  19.454  0.00  0.00    +0.000 A 
ATOM      8  C   UNL     1       4.044   5.026  17.624  0.00  0.00    +0.000 C 
ATOM      9  C   UNL     1       4.674   4.031  16.984  0.00  0.00    +0.000 C 
ATOM     10  C   UNL     1       4.040   6.505  17.334  0.00  0.00    +0.000 C 
ATOM     11  O   UNL     1       4.620   7.112  16.454  0.00  0.00    +0.000 OA
ATOM     12  N   UNL     1       3.217   7.051  18.313  0.00  0.00    +0.000 N 
ATOM     13  H   UNL     1       3.021   8.041  18.368  0.00  0.00    +0.000 HD
ENDROOT
BRANCH   9  14
ATOM     14  C   UNL     1       5.491   4.185  15.786  0.00  0.00    +0.000 A 
ATOM     15  C   UNL     1       4.900   3.952  14.538  0.00  0.00    +0.000 A 
ATOM     16  C   UNL     1       5.648   4.095  13.373  0.00  0.00    +0.000 A 
ATOM     17  C   UNL     1       6.985   4.477  13.451  0.00  0.00    +0.000 A 
ATOM     18  C   UNL     1       7.575   4.727  14.692  0.00  0.00    +0.000 A 
ATOM     19  C   UNL     1       6.837   4.587  15.875  0.00  0.00    +0.000 A 
ATOM     20  C   UNL     1       7.490   4.858  17.202  0.00  0.00    +0.000 C 
ENDBRANCH   9  14
TORSDOF 1
ENDMDL
MODEL 8
REMARK VINA RESULT:      -7.1      2.059      6.427
REMARK  Name = 
REMARK  3 active torsions:
REMARK  status: ('A' for Active; 'I' for Inactive)
REMARK    1  A    between atoms: C_1  and  C_2
REMARK    2  A    between atoms: C_9  and  C_10
REMARK    3  A    between atoms: C_15  and  C_16
REMARK                            x       y       z     vdW  Elec       q    Type
REMARK                         _______ _______ _______ _____ _____    ______ ____
ROOT
ATOM      1  C   UNL     1       0.978   9.748  19.715  0.00  0.00    +0.000 C 
ATOM      2  C   UNL     1       1.504   8.346  19.802  0.00  0.00    +0.000 A 
ATOM      3  C   UNL     1       1.149   7.481  20.862  0.00  0.00    +0.000 A 
ATOM      4  C   UNL     1       1.656   6.176  20.939  0.00  0.00    +0.000 A 
ATOM      5  C   UNL     1       2.514   5.771  19.940  0.00  0.00    +0.000 A 
ATOM      6  C   UNL     1       2.864   6.611  18.884  0.00  0.00    +0.000 A 
ATOM      7  C   UNL     1       2.375   7.901  18.803  0.00  0.00    +0.000 A 
ATOM      8  C   UNL     1       3.782   5.855  18.037  0.00  0.00    +0.000 C 
ATOM      9  C   UNL     1       4.333   6.353  16.922  0.00  0.00    +0.000 C 
ATOM     10  C   UNL     1       3.961   4.502  18.677  0.00  0.00    +0.000 C 
ATOM     11  O   UNL     1       4.645   3.568  18.307  0.00  0.00    +0.000 OA
ATOM     12  N   UNL     1       3.154   4.540  19.809  0.00  0.00    +0.000 N 
ATOM     13  H   UNL     1       3.075   3.761  20.446  0.00  0.00    +0.000 HD
ENDROOT
BRANCH   9  14
ATOM     14  C   UNL     1       5.305   5.663  16.083  0.00  0.00    +0.000 A 
ATOM     15  C   UNL     1       4.837   4.879  15.022  0.00  0.00    +0.000 A 
ATOM     16  C   UNL     1       5.737   4.210  14.197  0.00  0.00    +0.000 A 
ATOM     17  C   UNL     1       7.105   4.328  14.426  0.00  0.00    +0.000 A 
ATOM     18  C   UNL     1       7.579   5.122  15.472  0.00  0.00    +0.000 A 
ATOM     19  C   UNL     1       6.687   5.802  16.313  0.00  0.00    +0.000 A 
ATOM     20  C   UNL     1       7.216   6.651  17.436  0.00  0.00    +0.000 C 
ENDBRANCH   9  14
TORSDOF 1
ENDMDL
MODEL 9
REMARK VINA RESULT:      -7.1      3.571      7.008
REMARK  Name = 
REMARK  3 active torsions:
REMARK  status: ('A' for Active; 'I' for Inactive)
REMARK    1  A    between atoms: C_1  and  C_2
REMARK    2  A    between atoms: C_9  and  C_10
REMARK    3  A    between atoms: C_15  and  C_16
REMARK                            x       y       z     vdW  Elec       q    Type
REMARK                         _______ _______ _______ _____ _____    ______ ____
ROOT
ATOM      1  C   UNL     1      -0.455  10.006  23.229  0.00  0.00    +0.000 C 
ATOM      2  C   UNL     1       0.175   9.801  21.883  0.00  0.00    +0.000 A 
ATOM      3  C   UNL     1       0.146  10.803  20.886  0.00  0.00    +0.000 A 
ATOM      4  C   UNL     1       0.729  10.596  19.628  0.00  0.00    +0.000 A 
ATOM      5  C   UNL     1       1.331   9.377  19.402  0.00  0.00    +0.000 A 
ATOM      6  C   UNL     1       1.375   8.384  20.380  0.00  0.00    +0.000 A 
ATOM      7  C   UNL     1       0.798   8.577  21.621  0.00  0.00    +0.000 A 
ATOM      8  C   UNL     1       2.074   7.248  19.790  0.00  0.00    +0.000 C 
ATOM      9  C   UNL     1       2.298   6.101  20.445  0.00  0.00    +0.000 C 
ATOM     10  C   UNL     1       2.434   7.635  18.378  0.00  0.00    +0.000 C 
ATOM     11  O   UNL     1       3.015   6.983  17.533  0.00  0.00    +0.000 OA
ATOM     12  N   UNL     1       1.956   8.933  18.239  0.00  0.00    +0.000 N 
ATOM     13  H   UNL     1       2.052   9.458  17.381  0.00  0.00    +0.000 HD
ENDROOT
BRANCH   9  14
ATOM     14  C   UNL     1       2.930   4.916  19.876  0.00  0.00    +0.000 A 
ATOM     15  C   UNL     1       4.302   4.956  19.599  0.00  0.00    +0.000 A 
ATOM     16  C   UNL     1       4.939   3.843  19.061  0.00  0.00    +0.000 A 
ATOM     17  C   UNL     1       4.210   2.684  18.805  0.00  0.00    +0.000 A 
ATOM     18  C   UNL     1       2.845   2.632  19.095  0.00  0.00    +0.000 A 
ATOM     19  C   UNL     1       2.187   3.745  19.636  0.00  0.00    +0.000 A 
ATOM     20  C   UNL     1       0.716   3.671  19.939  0.00  0.00    +0.000 C 
ENDBRANCH   9  14
TORSDOF 1
ENDMDL
