MODEL 1
REMARK VINA RESULT:      -9.4      0.000      0.000
REMARK  Name = 
REMARK  9 active torsions:
REMARK  status: ('A' for Active; 'I' for Inactive)
REMARK    1  A    between atoms: C_1  and  N_2
REMARK    2  A    between atoms: C_4  and  C_5
REMARK    3  A    between atoms: C_8  and  N_9
REMARK    4  A    between atoms: C_10  and  C_11
REMARK    5  A    between atoms: C_14  and  C_15
REMARK    6  A    between atoms: N_17  and  CA_18
REMARK    7  A    between atoms: CA_18  and  C_19
REMARK    8  A    between atoms: CA_18  and  C_21
REMARK    9  A    between atoms: C_19  and  O_20
REMARK                            x       y       z     vdW  Elec       q    Type
REMARK                         _______ _______ _______ _____ _____    ______ ____
ROOT
ATOM      1  C   UNL     1       2.248   7.526  18.464  0.00  0.00    +0.000 A 
ATOM      2  C   UNL     1       1.778   8.645  17.748  0.00  0.00    +0.000 A 
ATOM      3  C   UNL     1       1.209   9.762  18.395  0.00  0.00    +0.000 A 
ATOM      4  C   UNL     1       1.046   9.770  19.783  0.00  0.00    +0.000 A 
ATOM      5  C   UNL     1       1.385   8.618  20.480  0.00  0.00    +0.000 A 
ATOM      6  F   UNL     1       1.181   8.509  21.803  0.00  0.00    +0.000 F 
ATOM      7  C   UNL     1       1.994   7.539  19.848  0.00  0.00    +0.000 A 
ENDROOT
BRANCH   1  12
ATOM      8  C   UNL     1       3.278   3.946  17.588  0.00  0.00    +0.000 A 
ATOM      9  C   UNL     1       4.498   4.215  16.994  0.00  0.00    +0.000 A 
ATOM     10  N   UNL     1       5.001   5.455  16.811  0.00  0.00    +0.000 NA
ATOM     11  C   UNL     1       4.292   6.508  17.267  0.00  0.00    +0.000 A 
ATOM     12  C   UNL     1       3.022   6.396  17.861  0.00  0.00    +0.000 A 
ATOM     13  C   UNL     1       2.529   5.071  17.958  0.00  0.00    +0.000 A 
BRANCH   8  17
ATOM     14  C   UNL     1       4.874   1.460  20.820  0.00  0.00    +0.000 C 
ATOM     15  N   UNL     1       3.765   2.008  20.061  0.00  0.00    +0.000 N 
ATOM     16  C   UNL     1       3.643   1.611  18.661  0.00  0.00    +0.000 C 
ATOM     17  C   UNL     1       2.735   2.547  17.849  0.00  0.00    +0.000 C 
ATOM     18  C   UNL     1       1.379   2.547  18.574  0.00  0.00    +0.000 C 
ATOM     19  C   UNL     1       1.500   3.037  20.010  0.00  0.00    +0.000 C 
ATOM     20  C   UNL     1       2.681   2.486  20.788  0.00  0.00    +0.000 C 
ATOM     21  O   UNL     1       2.691   2.552  22.018  0.00  0.00    +0.000 OA
ENDBRANCH   8  17
BRANCH  11  22
ATOM     22  N   UNL     1       4.974   7.714  17.116  0.00  0.00    +0.000 N 
ATOM     23  H   UNL     1       5.701   7.709  17.829  0.00  0.00    +0.000 HD
ATOM     24  H   UNL     1       4.344   8.499  17.245  0.00  0.00    +0.000 HD
ENDBRANCH  11  22
ENDBRANCH   1  12
BRANCH   4  25
ATOM     25  C   UNL     1       0.589  11.003  20.486  0.00  0.00    +0.000 C 
ATOM     26  O   UNL     1       1.363  11.670  21.165  0.00  0.00    +0.000 OA
ATOM     27  N   UNL     1      -0.746  11.308  20.361  0.00  0.00    +0.000 N 
ATOM     28  H   UNL     1      -1.359  10.668  19.869  0.00  0.00    +0.000 HD
BRANCH  27  29
ATOM     29  CA  UNL     1      -1.436  12.379  21.073  0.00  0.00    +0.000 C 
BRANCH  29  30
ATOM     30  C   UNL     1      -2.822  12.513  20.446  0.00  0.00    +0.000 A 
ATOM     31  C   UNL     1      -3.943  13.014  21.128  0.00  0.00    +0.000 A 
ATOM     32  C   UNL     1      -5.217  12.975  20.550  0.00  0.00    +0.000 A 
ATOM     33  C   UNL     1      -5.394  12.427  19.281  0.00  0.00    +0.000 A 
ATOM     34  C   UNL     1      -4.293  11.936  18.587  0.00  0.00    +0.000 A 
ATOM     35 CL   UNL     1      -4.505  11.245  17.026  0.00  0.00    +0.000 Cl
ATOM     36  C   UNL     1      -3.021  11.976  19.159  0.00  0.00    +0.000 A 
ENDBRANCH  29  30
BRANCH  29  37
ATOM     37  C   UNL     1      -1.382  12.172  22.609  0.00  0.00    +0.000 C 
BRANCH  37  38
ATOM     38  O   UNL     1      -0.425  13.016  23.259  0.00  0.00    +0.000 OA
ATOM     39  H   UNL     1       0.182  13.332  22.567  0.00  0.00    +0.000 HD
ENDBRANCH  37  38
ENDBRANCH  29  37
ENDBRANCH  27  29
ENDBRANCH   4  25
TORSDOF 8
ENDMDL
MODEL 2
REMARK VINA RESULT:      -9.1      1.190      1.447
REMARK  Name = 
REMARK  9 active torsions:
REMARK  status: ('A' for Active; 'I' for Inactive)
REMARK    1  A    between atoms: C_1  and  N_2
REMARK    2  A    between atoms: C_4  and  C_5
REMARK    3  A    between atoms: C_8  and  N_9
REMARK    4  A    between atoms: C_10  and  C_11
REMARK    5  A    between atoms: C_14  and  C_15
REMARK    6  A    between atoms: N_17  and  CA_18
REMARK    7  A    between atoms: CA_18  and  C_19
REMARK    8  A    between atoms: CA_18  and  C_21
REMARK    9  A    between atoms: C_19  and  O_20
REMARK                            x       y       z     vdW  Elec       q    Type
REMARK                         _______ _______ _______ _____ _____    ______ ____
ROOT
ATOM      1  C   UNL     1       2.103   7.744  18.557  0.00  0.00    +0.000 A 
ATOM      2  C   UNL     1       1.656   8.873  17.842  0.00  0.00    +0.000 A 
ATOM      3  C   UNL     1       1.101   9.997  18.489  0.00  0.00    +0.000 A 
ATOM      4  C   UNL     1       0.928  10.002  19.876  0.00  0.00    +0.000 A 
ATOM      5  C   UNL     1       1.244   8.843  20.571  0.00  0.00    +0.000 A 
ATOM      6  F   UNL     1       1.028   8.732  21.892  0.00  0.00    +0.000 F 
ATOM      7  C   UNL     1       1.839   7.756  19.939  0.00  0.00    +0.000 A 
ENDROOT
BRANCH   1  12
ATOM      8  C   UNL     1       3.076   4.150  17.671  0.00  0.00    +0.000 A 
ATOM      9  C   UNL     1       4.308   4.400  17.091  0.00  0.00    +0.000 A 
ATOM     10  N   UNL     1       4.835   5.632  16.921  0.00  0.00    +0.000 NA
ATOM     11  C   UNL     1       4.141   6.695  17.376  0.00  0.00    +0.000 A 
ATOM     12  C   UNL     1       2.862   6.603  17.956  0.00  0.00    +0.000 A 
ATOM     13  C   UNL     1       2.344   5.287  18.040  0.00  0.00    +0.000 A 
BRANCH   8  17
ATOM     14  C   UNL     1       4.728   1.536  20.771  0.00  0.00    +0.000 C 
ATOM     15  N   UNL     1       3.606   2.135  20.071  0.00  0.00    +0.000 N 
ATOM     16  C   UNL     1       3.417   1.779  18.668  0.00  0.00    +0.000 C 
ATOM     17  C   UNL     1       2.504   2.760  17.917  0.00  0.00    +0.000 C 
ATOM     18  C   UNL     1       1.179   2.778  18.696  0.00  0.00    +0.000 C 
ATOM     19  C   UNL     1       1.371   3.225  20.139  0.00  0.00    +0.000 C 
ATOM     20  C   UNL     1       2.566   2.622  20.854  0.00  0.00    +0.000 C 
ATOM     21  O   UNL     1       2.626   2.654  22.083  0.00  0.00    +0.000 OA
ENDBRANCH   8  17
BRANCH  11  22
ATOM     22  N   UNL     1       4.846   7.889  17.240  0.00  0.00    +0.000 N 
ATOM     23  H   UNL     1       5.446   7.948  18.060  0.00  0.00    +0.000 HD
ATOM     24  H   UNL     1       4.208   8.678  17.198  0.00  0.00    +0.000 HD
ENDBRANCH  11  22
ENDBRANCH   1  12
BRANCH   4  25
ATOM     25  C   UNL     1       0.486  11.240  20.579  0.00  0.00    +0.000 C 
ATOM     26  O   UNL     1       1.299  12.000  21.098  0.00  0.00    +0.000 OA
ATOM     27  N   UNL     1      -0.872  11.444  20.646  0.00  0.00    +0.000 N 
ATOM     28  H   UNL     1      -1.499  10.734  20.286  0.00  0.00    +0.000 HD
BRANCH  27  29
ATOM     29  CA  UNL     1      -1.530  12.504  21.403  0.00  0.00    +0.000 C 
BRANCH  29  30
ATOM     30  C   UNL     1      -3.009  12.475  21.024  0.00  0.00    +0.000 A 
ATOM     31  C   UNL     1      -3.475  12.359  19.704  0.00  0.00    +0.000 A 
ATOM     32  C   UNL     1      -4.837  12.487  19.406  0.00  0.00    +0.000 A 
ATOM     33  C   UNL     1      -5.756  12.739  20.422  0.00  0.00    +0.000 A 
ATOM     34  C   UNL     1      -5.312  12.846  21.736  0.00  0.00    +0.000 A 
ATOM     35 CL   UNL     1      -6.439  13.172  22.995  0.00  0.00    +0.000 Cl
ATOM     36  C   UNL     1      -3.956  12.716  22.038  0.00  0.00    +0.000 A 
ENDBRANCH  29  30
BRANCH  29  37
ATOM     37  C   UNL     1      -1.195  12.420  22.915  0.00  0.00    +0.000 C 
BRANCH  37  38
ATOM     38  O   UNL     1      -0.319  13.463  23.358  0.00  0.00    +0.000 OA
ATOM     39  H   UNL     1       0.585  13.108  23.302  0.00  0.00    +0.000 HD
ENDBRANCH  37  38
ENDBRANCH  29  37
ENDBRANCH  27  29
ENDBRANCH   4  25
TORSDOF 8
ENDMDL
MODEL 3
REMARK VINA RESULT:      -9.1      3.291     10.237
REMARK  Name = 
REMARK  9 active torsions:
REMARK  status: ('A' for Active; 'I' for Inactive)
REMARK    1  A    between atoms: C_1  and  N_2
REMARK    2  A    between atoms: C_4  and  C_5
REMARK    3  A    between atoms: C_8  and  N_9
REMARK    4  A    between atoms: C_10  and  C_11
REMARK    5  A    between atoms: C_14  and  C_15
REMARK    6  A    between atoms: N_17  and  CA_18
REMARK    7  A    between atoms: CA_18  and  C_19
REMARK    8  A    between atoms: CA_18  and  C_21
REMARK    9  A    between atoms: C_19  and  O_20
REMARK                            x       y       z     vdW  Elec       q    Type
REMARK                         _______ _______ _______ _____ _____    ______ ____
ROOT
ATOM      1  C   UNL     1       0.906   9.539  19.066  0.00  0.00    +0.000 A 
ATOM      2  C   UNL     1       1.733   9.218  17.971  0.00  0.00    +0.000 A 
ATOM      3  C   UNL     1       2.513   8.043  17.940  0.00  0.00    +0.000 A 
ATOM      4  C   UNL     1       2.525   7.173  19.035  0.00  0.00    +0.000 A 
ATOM      5  C   UNL     1       1.817   7.549  20.168  0.00  0.00    +0.000 A 
ATOM      6  F   UNL     1       1.844   6.816  21.292  0.00  0.00    +0.000 F 
ATOM      7  C   UNL     1       1.008   8.681  20.176  0.00  0.00    +0.000 A 
ENDROOT
BRANCH   1  12
ATOM      8  C   UNL     1      -1.056  12.568  20.340  0.00  0.00    +0.000 A 
ATOM      9  C   UNL     1      -2.008  12.641  19.338  0.00  0.00    +0.000 A 
ATOM     10  N   UNL     1      -2.047  11.826  18.262  0.00  0.00    +0.000 NA
ATOM     11  C   UNL     1      -1.125  10.847  18.165  0.00  0.00    +0.000 A 
ATOM     12  C   UNL     1      -0.077  10.667  19.086  0.00  0.00    +0.000 A 
ATOM     13  C   UNL     1      -0.059  11.601  20.151  0.00  0.00    +0.000 A 
BRANCH   8  17
ATOM     14  C   UNL     1      -4.720  14.446  21.829  0.00  0.00    +0.000 C 
ATOM     15  N   UNL     1      -3.485  13.714  22.041  0.00  0.00    +0.000 N 
ATOM     16  C   UNL     1      -2.232  14.405  21.745  0.00  0.00    +0.000 C 
ATOM     17  C   UNL     1      -1.042  13.447  21.584  0.00  0.00    +0.000 C 
ATOM     18  C   UNL     1      -0.970  12.645  22.893  0.00  0.00    +0.000 C 
ATOM     19  C   UNL     1      -2.250  11.865  23.156  0.00  0.00    +0.000 C 
ATOM     20  C   UNL     1      -3.539  12.624  22.900  0.00  0.00    +0.000 C 
ATOM     21  O   UNL     1      -4.598  12.216  23.380  0.00  0.00    +0.000 OA
ENDBRANCH   8  17
BRANCH  11  22
ATOM     22  N   UNL     1      -1.348  10.011  17.072  0.00  0.00    +0.000 N 
ATOM     23  H   UNL     1      -0.424   9.757  16.729  0.00  0.00    +0.000 HD
ATOM     24  H   UNL     1      -1.881  10.494  16.356  0.00  0.00    +0.000 HD
ENDBRANCH  11  22
ENDBRANCH   1  12
BRANCH   4  25
ATOM     25  C   UNL     1       3.223   5.858  18.950  0.00  0.00    +0.000 C 
ATOM     26  O   UNL     1       3.971   5.478  19.845  0.00  0.00    +0.000 OA
ATOM     27  N   UNL     1       3.010   5.136  17.800  0.00  0.00    +0.000 N 
ATOM     28  H   UNL     1       2.460   5.543  17.051  0.00  0.00    +0.000 HD
BRANCH  27  29
ATOM     29  CA  UNL     1       3.697   3.898  17.442  0.00  0.00    +0.000 C 
BRANCH  29  30
ATOM     30  C   UNL     1       4.961   4.292  16.681  0.00  0.00    +0.000 A 
ATOM     31  C   UNL     1       5.909   5.209  17.164  0.00  0.00    +0.000 A 
ATOM     32  C   UNL     1       6.970   5.641  16.358  0.00  0.00    +0.000 A 
ATOM     33  C   UNL     1       7.097   5.169  15.053  0.00  0.00    +0.000 A 
ATOM     34  C   UNL     1       6.173   4.252  14.564  0.00  0.00    +0.000 A 
ATOM     35 CL   UNL     1       6.314   3.675  12.950  0.00  0.00    +0.000 Cl
ATOM     36  C   UNL     1       5.116   3.817  15.364  0.00  0.00    +0.000 A 
ENDBRANCH  29  30
BRANCH  29  37
ATOM     37  C   UNL     1       3.881   2.970  18.670  0.00  0.00    +0.000 C 
BRANCH  37  38
ATOM     38  O   UNL     1       5.237   2.899  19.125  0.00  0.00    +0.000 OA
ATOM     39  H   UNL     1       5.708   2.316  18.504  0.00  0.00    +0.000 HD
ENDBRANCH  37  38
ENDBRANCH  29  37
ENDBRANCH  27  29
ENDBRANCH   4  25
TORSDOF 8
ENDMDL
MODEL 4
REMARK VINA RESULT:      -9.0      2.777      3.453
REMARK  Name = 
REMARK  9 active torsions:
REMARK  status: ('A' for Active; 'I' for Inactive)
REMARK    1  A    between atoms: C_1  and  N_2
REMARK    2  A    between atoms: C_4  and  C_5
REMARK    3  A    between atoms: C_8  and  N_9
REMARK    4  A    between atoms: C_10  and  C_11
REMARK    5  A    between atoms: C_14  and  C_15
REMARK    6  A    between atoms: N_17  and  CA_18
REMARK    7  A    between atoms: CA_18  and  C_19
REMARK    8  A    between atoms: CA_18  and  C_21
REMARK    9  A    between atoms: C_19  and  O_20
REMARK                            x       y       z     vdW  Elec       q    Type
REMARK                         _______ _______ _______ _____ _____    ______ ____
ROOT
ATOM      1  C   UNL     1       2.261   7.597  18.452  0.00  0.00    +0.000 A 
ATOM      2  C   UNL     1       1.871   8.754  17.748  0.00  0.00    +0.000 A 
ATOM      3  C   UNL     1       1.367   9.896  18.406  0.00  0.00    +0.000 A 
ATOM      4  C   UNL     1       1.191   9.894  19.793  0.00  0.00    +0.000 A 
ATOM      5  C   UNL     1       1.449   8.713  20.476  0.00  0.00    +0.000 A 
ATOM      6  F   UNL     1       1.225   8.599  21.795  0.00  0.00    +0.000 F 
ATOM      7  C   UNL     1       1.994   7.607  19.834  0.00  0.00    +0.000 A 
ENDROOT
BRANCH   1  12
ATOM      8  C   UNL     1       3.121   3.966  17.602  0.00  0.00    +0.000 A 
ATOM      9  C   UNL     1       4.326   4.179  16.955  0.00  0.00    +0.000 A 
ATOM     10  N   UNL     1       4.866   5.396  16.729  0.00  0.00    +0.000 NA
ATOM     11  C   UNL     1       4.216   6.482  17.193  0.00  0.00    +0.000 A 
ATOM     12  C   UNL     1       2.968   6.428  17.839  0.00  0.00    +0.000 A 
ATOM     13  C   UNL     1       2.430   5.125  17.981  0.00  0.00    +0.000 A 
BRANCH   8  17
ATOM     14  C   UNL     1       4.728   1.494  20.839  0.00  0.00    +0.000 C 
ATOM     15  N   UNL     1       3.616   2.065  20.102  0.00  0.00    +0.000 N 
ATOM     16  C   UNL     1       3.437   1.643  18.715  0.00  0.00    +0.000 C 
ATOM     17  C   UNL     1       2.537   2.593  17.910  0.00  0.00    +0.000 C 
ATOM     18  C   UNL     1       1.205   2.657  18.675  0.00  0.00    +0.000 C 
ATOM     19  C   UNL     1       1.388   3.173  20.096  0.00  0.00    +0.000 C 
ATOM     20  C   UNL     1       2.573   2.597  20.850  0.00  0.00    +0.000 C 
ATOM     21  O   UNL     1       2.622   2.688  22.077  0.00  0.00    +0.000 OA
ENDBRANCH   8  17
BRANCH  11  22
ATOM     22  N   UNL     1       4.935   7.659  16.993  0.00  0.00    +0.000 N 
ATOM     23  H   UNL     1       4.808   8.205  17.843  0.00  0.00    +0.000 HD
ATOM     24  H   UNL     1       4.583   8.160  16.184  0.00  0.00    +0.000 HD
ENDBRANCH  11  22
ENDBRANCH   1  12
BRANCH   4  25
ATOM     25  C   UNL     1       0.806  11.143  20.509  0.00  0.00    +0.000 C 
ATOM     26  O   UNL     1       0.687  11.164  21.731  0.00  0.00    +0.000 OA
ATOM     27  N   UNL     1       0.553  12.239  19.718  0.00  0.00    +0.000 N 
ATOM     28  H   UNL     1       0.572  12.139  18.710  0.00  0.00    +0.000 HD
BRANCH  27  29
ATOM     29  CA  UNL     1       0.028  13.516  20.190  0.00  0.00    +0.000 C 
BRANCH  29  30
ATOM     30  C   UNL     1       0.871  14.614  19.545  0.00  0.00    +0.000 A 
ATOM     31  C   UNL     1       0.379  15.887  19.218  0.00  0.00    +0.000 A 
ATOM     32  C   UNL     1       1.158  16.798  18.494  0.00  0.00    +0.000 A 
ATOM     33  C   UNL     1       2.442  16.449  18.080  0.00  0.00    +0.000 A 
ATOM     34  C   UNL     1       2.949  15.196  18.405  0.00  0.00    +0.000 A 
ATOM     35 CL   UNL     1       4.527  14.751  17.885  0.00  0.00    +0.000 Cl
ATOM     36  C   UNL     1       2.177  14.286  19.128  0.00  0.00    +0.000 A 
ENDBRANCH  29  30
BRANCH  29  37
ATOM     37  C   UNL     1      -1.508  13.611  19.994  0.00  0.00    +0.000 C 
BRANCH  37  38
ATOM     38  O   UNL     1      -1.987  12.827  18.896  0.00  0.00    +0.000 OA
ATOM     39  H   UNL     1      -1.203  12.441  18.468  0.00  0.00    +0.000 HD
ENDBRANCH  37  38
ENDBRANCH  29  37
ENDBRANCH  27  29
ENDBRANCH   4  25
TORSDOF 8
ENDMDL
MODEL 5
REMARK VINA RESULT:      -9.0      3.194     10.267
REMARK  Name = 
REMARK  9 active torsions:
REMARK  status: ('A' for Active; 'I' for Inactive)
REMARK    1  A    between atoms: C_1  and  N_2
REMARK    2  A    between atoms: C_4  and  C_5
REMARK    3  A    between atoms: C_8  and  N_9
REMARK    4  A    between atoms: C_10  and  C_11
REMARK    5  A    between atoms: C_14  and  C_15
REMARK    6  A    between atoms: N_17  and  CA_18
REMARK    7  A    between atoms: CA_18  and  C_19
REMARK    8  A    between atoms: CA_18  and  C_21
REMARK    9  A    between atoms: C_19  and  O_20
REMARK                            x       y       z     vdW  Elec       q    Type
REMARK                         _______ _______ _______ _____ _____    ______ ____
ROOT
ATOM      1  C   UNL     1       0.766   9.698  19.186  0.00  0.00    +0.000 A 
ATOM      2  C   UNL     1       1.623   9.412  18.105  0.00  0.00    +0.000 A 
ATOM      3  C   UNL     1       2.403   8.237  18.059  0.00  0.00    +0.000 A 
ATOM      4  C   UNL     1       2.386   7.334  19.125  0.00  0.00    +0.000 A 
ATOM      5  C   UNL     1       1.647   7.674  20.250  0.00  0.00    +0.000 A 
ATOM      6  F   UNL     1       1.644   6.906  21.351  0.00  0.00    +0.000 F 
ATOM      7  C   UNL     1       0.838   8.806  20.272  0.00  0.00    +0.000 A 
ENDROOT
BRANCH   1  12
ATOM      8  C   UNL     1      -1.220  12.696  20.496  0.00  0.00    +0.000 A 
ATOM      9  C   UNL     1      -2.153  12.794  19.478  0.00  0.00    +0.000 A 
ATOM     10  N   UNL     1      -2.172  12.005  18.383  0.00  0.00    +0.000 NA
ATOM     11  C   UNL     1      -1.248  11.028  18.279  0.00  0.00    +0.000 A 
ATOM     12  C   UNL     1      -0.218  10.826  19.215  0.00  0.00    +0.000 A 
ATOM     13  C   UNL     1      -0.219  11.734  20.303  0.00  0.00    +0.000 A 
BRANCH   8  17
ATOM     14  C   UNL     1      -4.902  14.580  21.933  0.00  0.00    +0.000 C 
ATOM     15  N   UNL     1      -3.681  13.830  22.159  0.00  0.00    +0.000 N 
ATOM     16  C   UNL     1      -2.413  14.513  21.914  0.00  0.00    +0.000 C 
ATOM     17  C   UNL     1      -1.230  13.545  21.761  0.00  0.00    +0.000 C 
ATOM     18  C   UNL     1      -1.201  12.711  23.052  0.00  0.00    +0.000 C 
ATOM     19  C   UNL     1      -2.497  11.940  23.262  0.00  0.00    +0.000 C 
ATOM     20  C   UNL     1      -3.770  12.719  22.990  0.00  0.00    +0.000 C 
ATOM     21  O   UNL     1      -4.845  12.313  23.432  0.00  0.00    +0.000 OA
ENDBRANCH   8  17
BRANCH  11  22
ATOM     22  N   UNL     1      -1.450  10.219  17.163  0.00  0.00    +0.000 N 
ATOM     23  H   UNL     1      -1.993  10.782  16.511  0.00  0.00    +0.000 HD
ATOM     24  H   UNL     1      -1.952   9.375  17.419  0.00  0.00    +0.000 HD
ENDBRANCH  11  22
ENDBRANCH   1  12
BRANCH   4  25
ATOM     25  C   UNL     1       3.086   6.021  19.018  0.00  0.00    +0.000 C 
ATOM     26  O   UNL     1       3.818   5.617  19.917  0.00  0.00    +0.000 OA
ATOM     27  N   UNL     1       2.895   5.330  17.845  0.00  0.00    +0.000 N 
ATOM     28  H   UNL     1       2.359   5.757  17.098  0.00  0.00    +0.000 HD
BRANCH  27  29
ATOM     29  CA  UNL     1       3.589   4.103  17.467  0.00  0.00    +0.000 C 
BRANCH  29  30
ATOM     30  C   UNL     1       4.854   4.517  16.717  0.00  0.00    +0.000 A 
ATOM     31  C   UNL     1       5.413   3.778  15.662  0.00  0.00    +0.000 A 
ATOM     32  C   UNL     1       6.653   4.128  15.114  0.00  0.00    +0.000 A 
ATOM     33  C   UNL     1       7.357   5.221  15.614  0.00  0.00    +0.000 A 
ATOM     34  C   UNL     1       6.812   5.970  16.652  0.00  0.00    +0.000 A 
ATOM     35 CL   UNL     1       7.682   7.312  17.285  0.00  0.00    +0.000 Cl
ATOM     36  C   UNL     1       5.576   5.626  17.199  0.00  0.00    +0.000 A 
ENDBRANCH  29  30
BRANCH  29  37
ATOM     37  C   UNL     1       3.776   3.154  18.679  0.00  0.00    +0.000 C 
BRANCH  37  38
ATOM     38  O   UNL     1       5.138   3.043  19.105  0.00  0.00    +0.000 OA
ATOM     39  H   UNL     1       5.669   3.562  18.476  0.00  0.00    +0.000 HD
ENDBRANCH  37  38
ENDBRANCH  29  37
ENDBRANCH  27  29
ENDBRANCH   4  25
TORSDOF 8
ENDMDL
MODEL 6
REMARK VINA RESULT:      -9.0      1.364      1.855
REMARK  Name = 
REMARK  9 active torsions:
REMARK  status: ('A' for Active; 'I' for Inactive)
REMARK    1  A    between atoms: C_1  and  N_2
REMARK    2  A    between atoms: C_4  and  C_5
REMARK    3  A    between atoms: C_8  and  N_9
REMARK    4  A    between atoms: C_10  and  C_11
REMARK    5  A    between atoms: C_14  and  C_15
REMARK    6  A    between atoms: N_17  and  CA_18
REMARK    7  A    between atoms: CA_18  and  C_19
REMARK    8  A    between atoms: CA_18  and  C_21
REMARK    9  A    between atoms: C_19  and  O_20
REMARK                            x       y       z     vdW  Elec       q    Type
REMARK                         _______ _______ _______ _____ _____    ______ ____
ROOT
ATOM      1  C   UNL     1       2.964   7.276  18.397  0.00  0.00    +0.000 A 
ATOM      2  C   UNL     1       2.620   8.286  17.477  0.00  0.00    +0.000 A 
ATOM      3  C   UNL     1       1.838   9.401  17.846  0.00  0.00    +0.000 A 
ATOM      4  C   UNL     1       1.332   9.512  19.144  0.00  0.00    +0.000 A 
ATOM      5  C   UNL     1       1.556   8.457  20.018  0.00  0.00    +0.000 A 
ATOM      6  F   UNL     1       1.034   8.443  21.255  0.00  0.00    +0.000 F 
ATOM      7  C   UNL     1       2.370   7.385  19.668  0.00  0.00    +0.000 A 
ENDROOT
BRANCH   1  12
ATOM      8  C   UNL     1       4.633   3.838  18.583  0.00  0.00    +0.000 A 
ATOM      9  C   UNL     1       5.786   4.122  17.872  0.00  0.00    +0.000 A 
ATOM     10  N   UNL     1       6.053   5.315  17.299  0.00  0.00    +0.000 NA
ATOM     11  C   UNL     1       5.163   6.316  17.455  0.00  0.00    +0.000 A 
ATOM     12  C   UNL     1       3.933   6.170  18.121  0.00  0.00    +0.000 A 
ATOM     13  C   UNL     1       3.690   4.873  18.638  0.00  0.00    +0.000 A 
BRANCH   8  17
ATOM     14  C   UNL     1       1.121   3.319  21.146  0.00  0.00    +0.000 C 
ATOM     15  N   UNL     1       2.020   2.856  20.105  0.00  0.00    +0.000 N 
ATOM     16  C   UNL     1       3.401   2.571  20.484  0.00  0.00    +0.000 C 
ATOM     17  C   UNL     1       4.354   2.512  19.280  0.00  0.00    +0.000 C 
ATOM     18  C   UNL     1       3.775   1.442  18.340  0.00  0.00    +0.000 C 
ATOM     19  C   UNL     1       2.363   1.785  17.886  0.00  0.00    +0.000 C 
ATOM     20  C   UNL     1       1.437   2.302  18.972  0.00  0.00    +0.000 C 
ATOM     21  O   UNL     1       0.218   2.296  18.794  0.00  0.00    +0.000 OA
ENDBRANCH   8  17
BRANCH  11  22
ATOM     22  N   UNL     1       5.613   7.519  16.913  0.00  0.00    +0.000 N 
ATOM     23  H   UNL     1       6.506   7.304  16.474  0.00  0.00    +0.000 HD
ATOM     24  H   UNL     1       5.724   8.218  17.640  0.00  0.00    +0.000 HD
ENDBRANCH  11  22
ENDBRANCH   1  12
BRANCH   4  25
ATOM     25  C   UNL     1       0.637  10.756  19.583  0.00  0.00    +0.000 C 
ATOM     26  O   UNL     1       1.244  11.652  20.162  0.00  0.00    +0.000 OA
ATOM     27  N   UNL     1      -0.716  10.809  19.340  0.00  0.00    +0.000 N 
ATOM     28  H   UNL     1      -1.182   9.999  18.947  0.00  0.00    +0.000 HD
BRANCH  27  29
ATOM     29  CA  UNL     1      -1.616  11.859  19.808  0.00  0.00    +0.000 C 
BRANCH  29  30
ATOM     30  C   UNL     1      -2.818  11.870  18.866  0.00  0.00    +0.000 A 
ATOM     31  C   UNL     1      -4.129  12.164  19.276  0.00  0.00    +0.000 A 
ATOM     32  C   UNL     1      -5.210  12.013  18.399  0.00  0.00    +0.000 A 
ATOM     33  C   UNL     1      -5.000  11.560  17.099  0.00  0.00    +0.000 A 
ATOM     34  C   UNL     1      -3.707  11.275  16.673  0.00  0.00    +0.000 A 
ATOM     35 CL   UNL     1      -3.440  10.702  15.073  0.00  0.00    +0.000 Cl
ATOM     36  C   UNL     1      -2.626  11.427  17.543  0.00  0.00    +0.000 A 
ENDBRANCH  29  30
BRANCH  29  37
ATOM     37  C   UNL     1      -1.917  11.722  21.323  0.00  0.00    +0.000 C 
BRANCH  37  38
ATOM     38  O   UNL     1      -0.912  12.311  22.154  0.00  0.00    +0.000 OA
ATOM     39  H   UNL     1      -0.999  11.897  23.030  0.00  0.00    +0.000 HD
ENDBRANCH  37  38
ENDBRANCH  29  37
ENDBRANCH  27  29
ENDBRANCH   4  25
TORSDOF 8
ENDMDL
MODEL 7
REMARK VINA RESULT:      -8.9      2.422      3.078
REMARK  Name = 
REMARK  9 active torsions:
REMARK  status: ('A' for Active; 'I' for Inactive)
REMARK    1  A    between atoms: C_1  and  N_2
REMARK    2  A    between atoms: C_4  and  C_5
REMARK    3  A    between atoms: C_8  and  N_9
REMARK    4  A    between atoms: C_10  and  C_11
REMARK    5  A    between atoms: C_14  and  C_15
REMARK    6  A    between atoms: N_17  and  CA_18
REMARK    7  A    between atoms: CA_18  and  C_19
REMARK    8  A    between atoms: CA_18  and  C_21
REMARK    9  A    between atoms: C_19  and  O_20
REMARK                            x       y       z     vdW  Elec       q    Type
REMARK                         _______ _______ _______ _____ _____    ______ ____
ROOT
ATOM      1  C   UNL     1       2.324   7.534  18.393  0.00  0.00    +0.000 A 
ATOM      2  C   UNL     1       1.965   8.705  17.696  0.00  0.00    +0.000 A 
ATOM      3  C   UNL     1       1.446   9.840  18.355  0.00  0.00    +0.000 A 
ATOM      4  C   UNL     1       1.224   9.817  19.734  0.00  0.00    +0.000 A 
ATOM      5  C   UNL     1       1.451   8.624  20.407  0.00  0.00    +0.000 A 
ATOM      6  F   UNL     1       1.183   8.490  21.715  0.00  0.00    +0.000 F 
ATOM      7  C   UNL     1       2.011   7.524  19.765  0.00  0.00    +0.000 A 
ENDROOT
BRANCH   1  12
ATOM      8  C   UNL     1       3.217   3.909  17.552  0.00  0.00    +0.000 A 
ATOM      9  C   UNL     1       4.424   4.131  16.911  0.00  0.00    +0.000 A 
ATOM     10  N   UNL     1       4.955   5.352  16.687  0.00  0.00    +0.000 NA
ATOM     11  C   UNL     1       4.294   6.434  17.147  0.00  0.00    +0.000 A 
ATOM     12  C   UNL     1       3.043   6.370  17.786  0.00  0.00    +0.000 A 
ATOM     13  C   UNL     1       2.515   5.063  17.926  0.00  0.00    +0.000 A 
BRANCH   8  17
ATOM     14  C   UNL     1       4.797   1.471  20.828  0.00  0.00    +0.000 C 
ATOM     15  N   UNL     1       3.691   2.027  20.070  0.00  0.00    +0.000 N 
ATOM     16  C   UNL     1       3.539   1.596  18.683  0.00  0.00    +0.000 C 
ATOM     17  C   UNL     1       2.643   2.532  17.858  0.00  0.00    +0.000 C 
ATOM     18  C   UNL     1       1.298   2.587  18.602  0.00  0.00    +0.000 C 
ATOM     19  C   UNL     1       1.453   3.112  20.023  0.00  0.00    +0.000 C 
ATOM     20  C   UNL     1       2.631   2.552  20.799  0.00  0.00    +0.000 C 
ATOM     21  O   UNL     1       2.660   2.650  22.026  0.00  0.00    +0.000 OA
ENDBRANCH   8  17
BRANCH  11  22
ATOM     22  N   UNL     1       5.005   7.616  16.949  0.00  0.00    +0.000 N 
ATOM     23  H   UNL     1       4.513   8.325  17.490  0.00  0.00    +0.000 HD
ATOM     24  H   UNL     1       5.027   7.860  15.965  0.00  0.00    +0.000 HD
ENDBRANCH  11  22
ENDBRANCH   1  12
BRANCH   4  25
ATOM     25  C   UNL     1       0.823  11.058  20.458  0.00  0.00    +0.000 C 
ATOM     26  O   UNL     1       1.101  11.220  21.642  0.00  0.00    +0.000 OA
ATOM     27  N   UNL     1       0.094  11.970  19.732  0.00  0.00    +0.000 N 
ATOM     28  H   UNL     1      -0.190  11.740  18.786  0.00  0.00    +0.000 HD
BRANCH  27  29
ATOM     29  CA  UNL     1      -0.521  13.178  20.272  0.00  0.00    +0.000 C 
BRANCH  29  30
ATOM     30  C   UNL     1       0.266  14.366  19.722  0.00  0.00    +0.000 A 
ATOM     31  C   UNL     1       1.614  14.617  20.023  0.00  0.00    +0.000 A 
ATOM     32  C   UNL     1       2.238  15.801  19.609  0.00  0.00    +0.000 A 
ATOM     33  C   UNL     1       1.522  16.756  18.891  0.00  0.00    +0.000 A 
ATOM     34  C   UNL     1       0.189  16.518  18.575  0.00  0.00    +0.000 A 
ATOM     35 CL   UNL     1      -0.706  17.699  17.701  0.00  0.00    +0.000 Cl
ATOM     36  C   UNL     1      -0.436  15.339  18.983  0.00  0.00    +0.000 A 
ENDBRANCH  29  30
BRANCH  29  37
ATOM     37  C   UNL     1      -2.055  13.191  20.043  0.00  0.00    +0.000 C 
BRANCH  37  38
ATOM     38  O   UNL     1      -2.452  12.530  18.837  0.00  0.00    +0.000 OA
ATOM     39  H   UNL     1      -3.176  11.925  19.078  0.00  0.00    +0.000 HD
ENDBRANCH  37  38
ENDBRANCH  29  37
ENDBRANCH  27  29
ENDBRANCH   4  25
TORSDOF 8
ENDMDL
MODEL 8
REMARK VINA RESULT:      -8.9      2.088      3.504
REMARK  Name = 
REMARK  9 active torsions:
REMARK  status: ('A' for Active; 'I' for Inactive)
REMARK    1  A    between atoms: C_1  and  N_2
REMARK    2  A    between atoms: C_4  and  C_5
REMARK    3  A    between atoms: C_8  and  N_9
REMARK    4  A    between atoms: C_10  and  C_11
REMARK    5  A    between atoms: C_14  and  C_15
REMARK    6  A    between atoms: N_17  and  CA_18
REMARK    7  A    between atoms: CA_18  and  C_19
REMARK    8  A    between atoms: CA_18  and  C_21
REMARK    9  A    between atoms: C_19  and  O_20
REMARK                            x       y       z     vdW  Elec       q    Type
REMARK                         _______ _______ _______ _____ _____    ______ ____
ROOT
ATOM      1  C   UNL     1       2.200   6.997  19.800  0.00  0.00    +0.000 A 
ATOM      2  C   UNL     1       2.067   7.910  18.735  0.00  0.00    +0.000 A 
ATOM      3  C   UNL     1       1.452   9.169  18.900  0.00  0.00    +0.000 A 
ATOM      4  C   UNL     1       0.903   9.532  20.133  0.00  0.00    +0.000 A 
ATOM      5  C   UNL     1       0.913   8.586  21.149  0.00  0.00    +0.000 A 
ATOM      6  F   UNL     1       0.332   8.821  22.336  0.00  0.00    +0.000 F 
ATOM      7  C   UNL     1       1.566   7.367  21.000  0.00  0.00    +0.000 A 
ENDROOT
BRANCH   1  12
ATOM      8  C   UNL     1       5.038   4.581  18.932  0.00  0.00    +0.000 A 
ATOM      9  C   UNL     1       4.453   3.402  19.362  0.00  0.00    +0.000 A 
ATOM     10  N   UNL     1       3.239   3.323  19.947  0.00  0.00    +0.000 NA
ATOM     11  C   UNL     1       2.523   4.456  20.096  0.00  0.00    +0.000 A 
ATOM     12  C   UNL     1       2.997   5.731  19.740  0.00  0.00    +0.000 A 
ATOM     13  C   UNL     1       4.305   5.746  19.194  0.00  0.00    +0.000 A 
BRANCH   8  17
ATOM     14  C   UNL     1       5.323   4.189  14.581  0.00  0.00    +0.000 C 
ATOM     15  N   UNL     1       5.674   4.842  15.829  0.00  0.00    +0.000 N 
ATOM     16  C   UNL     1       6.434   4.068  16.806  0.00  0.00    +0.000 C 
ATOM     17  C   UNL     1       6.381   4.667  18.219  0.00  0.00    +0.000 C 
ATOM     18  C   UNL     1       6.905   6.107  18.083  0.00  0.00    +0.000 C 
ATOM     19  C   UNL     1       6.060   6.932  17.122  0.00  0.00    +0.000 C 
ATOM     20  C   UNL     1       5.668   6.232  15.833  0.00  0.00    +0.000 C 
ATOM     21  O   UNL     1       5.280   6.892  14.869  0.00  0.00    +0.000 OA
ENDBRANCH   8  17
BRANCH  11  22
ATOM     22  N   UNL     1       1.248   4.218  20.607  0.00  0.00    +0.000 N 
ATOM     23  H   UNL     1       1.387   3.978  21.587  0.00  0.00    +0.000 HD
ATOM     24  H   UNL     1       0.799   3.459  20.107  0.00  0.00    +0.000 HD
ENDBRANCH  11  22
ENDBRANCH   1  12
BRANCH   4  25
ATOM     25  C   UNL     1       0.390  10.914  20.356  0.00  0.00    +0.000 C 
ATOM     26  O   UNL     1       1.158  11.859  20.506  0.00  0.00    +0.000 OA
ATOM     27  N   UNL     1      -0.977  11.045  20.428  0.00  0.00    +0.000 N 
ATOM     28  H   UNL     1      -1.559  10.216  20.396  0.00  0.00    +0.000 HD
BRANCH  27  29
ATOM     29  CA  UNL     1      -1.689  12.270  20.780  0.00  0.00    +0.000 C 
BRANCH  29  30
ATOM     30  C   UNL     1      -2.947  12.321  19.917  0.00  0.00    +0.000 A 
ATOM     31  C   UNL     1      -4.181  12.821  20.363  0.00  0.00    +0.000 A 
ATOM     32  C   UNL     1      -5.334  12.705  19.576  0.00  0.00    +0.000 A 
ATOM     33  C   UNL     1      -5.274  12.081  18.332  0.00  0.00    +0.000 A 
ATOM     34  C   UNL     1      -4.057  11.590  17.871  0.00  0.00    +0.000 A 
ATOM     35 CL   UNL     1      -3.977  10.805  16.342  0.00  0.00    +0.000 Cl
ATOM     36  C   UNL     1      -2.906  11.706  18.650  0.00  0.00    +0.000 A 
ENDBRANCH  29  30
BRANCH  29  37
ATOM     37  C   UNL     1      -1.889  12.396  22.313  0.00  0.00    +0.000 C 
BRANCH  37  38
ATOM     38  O   UNL     1      -0.659  12.379  23.046  0.00  0.00    +0.000 OA
ATOM     39  H   UNL     1      -0.610  11.512  23.485  0.00  0.00    +0.000 HD
ENDBRANCH  37  38
ENDBRANCH  29  37
ENDBRANCH  27  29
ENDBRANCH   4  25
TORSDOF 8
ENDMDL
MODEL 9
REMARK VINA RESULT:      -8.8      3.036      9.993
REMARK  Name = 
REMARK  9 active torsions:
REMARK  status: ('A' for Active; 'I' for Inactive)
REMARK    1  A    between atoms: C_1  and  N_2
REMARK    2  A    between atoms: C_4  and  C_5
REMARK    3  A    between atoms: C_8  and  N_9
REMARK    4  A    between atoms: C_10  and  C_11
REMARK    5  A    between atoms: C_14  and  C_15
REMARK    6  A    between atoms: N_17  and  CA_18
REMARK    7  A    between atoms: CA_18  and  C_19
REMARK    8  A    between atoms: CA_18  and  C_21
REMARK    9  A    between atoms: C_19  and  O_20
REMARK                            x       y       z     vdW  Elec       q    Type
REMARK                         _______ _______ _______ _____ _____    ______ ____
ROOT
ATOM      1  C   UNL     1       0.935   9.775  18.924  0.00  0.00    +0.000 A 
ATOM      2  C   UNL     1       1.833   9.698  17.840  0.00  0.00    +0.000 A 
ATOM      3  C   UNL     1       2.682   8.587  17.649  0.00  0.00    +0.000 A 
ATOM      4  C   UNL     1       2.692   7.537  18.571  0.00  0.00    +0.000 A 
ATOM      5  C   UNL     1       1.907   7.667  19.708  0.00  0.00    +0.000 A 
ATOM      6  F   UNL     1       1.922   6.746  20.685  0.00  0.00    +0.000 F 
ATOM      7  C   UNL     1       1.033   8.737  19.869  0.00  0.00    +0.000 A 
ENDROOT
BRANCH   1  12
ATOM      8  C   UNL     1      -1.119  12.579  20.525  0.00  0.00    +0.000 A 
ATOM      9  C   UNL     1      -2.142  12.650  19.596  0.00  0.00    +0.000 A 
ATOM     10  N   UNL     1      -2.207  11.902  18.473  0.00  0.00    +0.000 NA
ATOM     11  C   UNL     1      -1.234  10.995  18.250  0.00  0.00    +0.000 A 
ATOM     12  C   UNL     1      -0.114  10.831  19.084  0.00  0.00    +0.000 A 
ATOM     13  C   UNL     1      -0.078  11.696  20.206  0.00  0.00    +0.000 A 
BRANCH   8  17
ATOM     14  C   UNL     1      -4.658  14.679  22.021  0.00  0.00    +0.000 C 
ATOM     15  N   UNL     1      -3.497  13.831  22.223  0.00  0.00    +0.000 N 
ATOM     16  C   UNL     1      -2.180  14.426  22.007  0.00  0.00    +0.000 C 
ATOM     17  C   UNL     1      -1.072  13.379  21.820  0.00  0.00    +0.000 C 
ATOM     18  C   UNL     1      -1.113  12.497  23.080  0.00  0.00    +0.000 C 
ATOM     19  C   UNL     1      -2.463  11.818  23.257  0.00  0.00    +0.000 C 
ATOM     20  C   UNL     1      -3.674  12.700  23.011  0.00  0.00    +0.000 C 
ATOM     21  O   UNL     1      -4.779  12.359  23.435  0.00  0.00    +0.000 OA
ENDBRANCH   8  17
BRANCH  11  22
ATOM     22  N   UNL     1      -1.481  10.216  17.121  0.00  0.00    +0.000 N 
ATOM     23  H   UNL     1      -1.784  10.867  16.400  0.00  0.00    +0.000 HD
ATOM     24  H   UNL     1      -2.199   9.526  17.314  0.00  0.00    +0.000 HD
ENDBRANCH  11  22
ENDBRANCH   1  12
BRANCH   4  25
ATOM     25  C   UNL     1       3.470   6.295  18.297  0.00  0.00    +0.000 C 
ATOM     26  O   UNL     1       3.225   5.596  17.318  0.00  0.00    +0.000 OA
ATOM     27  N   UNL     1       4.433   5.969  19.223  0.00  0.00    +0.000 N 
ATOM     28  H   UNL     1       4.525   6.530  20.062  0.00  0.00    +0.000 HD
BRANCH  27  29
ATOM     29  CA  UNL     1       5.210   4.734  19.232  0.00  0.00    +0.000 C 
BRANCH  29  30
ATOM     30  C   UNL     1       4.213   3.578  19.295  0.00  0.00    +0.000 A 
ATOM     31  C   UNL     1       4.048   2.632  18.270  0.00  0.00    +0.000 A 
ATOM     32  C   UNL     1       3.017   1.686  18.321  0.00  0.00    +0.000 A 
ATOM     33  C   UNL     1       2.129   1.673  19.395  0.00  0.00    +0.000 A 
ATOM     34  C   UNL     1       2.286   2.597  20.423  0.00  0.00    +0.000 A 
ATOM     35 CL   UNL     1       1.185   2.597  21.746  0.00  0.00    +0.000 Cl
ATOM     36  C   UNL     1       3.313   3.539  20.378  0.00  0.00    +0.000 A 
ENDBRANCH  29  30
BRANCH  29  37
ATOM     37  C   UNL     1       6.246   4.700  18.079  0.00  0.00    +0.000 C 
BRANCH  37  38
ATOM     38  O   UNL     1       7.598   4.597  18.537  0.00  0.00    +0.000 OA
ATOM     39  H   UNL     1       7.682   3.725  18.961  0.00  0.00    +0.000 HD
ENDBRANCH  37  38
ENDBRANCH  29  37
ENDBRANCH  27  29
ENDBRANCH   4  25
TORSDOF 8
ENDMDL
