MODEL 1
REMARK VINA RESULT:      -7.3      0.000      0.000
REMARK  Name = 
REMARK  9 active torsions:
REMARK  status: ('A' for Active; 'I' for Inactive)
REMARK    1  A    between atoms: C_1  and  O_2
REMARK    2  A    between atoms: O_2  and  C_3
REMARK    3  A    between atoms: C_7  and  C_8
REMARK    4  A    between atoms: N_10  and  C_11
REMARK    5  A    between atoms: C_11  and  C_12
REMARK    6  A    between atoms: C_12  and  O_14
REMARK    7  A    between atoms: O_14  and  C_15
REMARK    8  A    between atoms: C_15  and  C_16
REMARK    9  A    between atoms: N_18  and  C_19
REMARK                            x       y       z     vdW  Elec       q    Type
REMARK                         _______ _______ _______ _____ _____    ______ ____
ROOT
ATOM      1  C   UNL     1       1.598   3.058  19.942  0.00  0.00    +0.000 C 
ATOM      2  O   UNL     1       0.587   3.061  19.247  0.00  0.00    +0.000 OA
ENDROOT
BRANCH   1   3
ATOM      3  C   UNL     1       1.937   4.125  20.968  0.00  0.00    +0.000 C 
BRANCH   3   6
ATOM      4  C   UNL     1       2.489   6.285  19.955  0.00  0.00    +0.000 C 
ATOM      5  O   UNL     1       3.675   5.998  19.853  0.00  0.00    +0.000 OA
ATOM      6  N   UNL     1       1.551   5.443  20.511  0.00  0.00    +0.000 N 
ATOM      7  H   UNL     1       0.586   5.722  20.622  0.00  0.00    +0.000 HD
BRANCH   4  12
ATOM      8  C   UNL     1       0.859   9.712  19.879  0.00  0.00    +0.000 A 
ATOM      9  C   UNL     1       1.136  10.088  18.562  0.00  0.00    +0.000 A 
ATOM     10  C   UNL     1       1.830   9.231  17.708  0.00  0.00    +0.000 A 
ATOM     11  C   UNL     1       2.265   7.992  18.175  0.00  0.00    +0.000 A 
ATOM     12  C   UNL     1       2.008   7.615  19.495  0.00  0.00    +0.000 A 
ATOM     13  C   UNL     1       1.293   8.467  20.344  0.00  0.00    +0.000 A 
BRANCH   8  15
ATOM     14  C   UNL     1       0.873  11.764  21.081  0.00  0.00    +0.000 C 
ATOM     15  O   UNL     1       0.155  10.632  20.607  0.00  0.00    +0.000 OA
ENDBRANCH   8  15
ENDBRANCH   4  12
ENDBRANCH   3   6
ENDBRANCH   1   3
BRANCH   1  16
ATOM     16  O   UNL     1       2.586   2.126  19.878  0.00  0.00    +0.000 OA
BRANCH  16  17
ATOM     17  C   UNL     1       3.899   2.675  19.910  0.00  0.00    +0.000 C 
BRANCH  17  18
ATOM     18  C   UNL     1       4.321   3.021  18.482  0.00  0.00    +0.000 C 
ATOM     19  O   UNL     1       3.809   2.482  17.501  0.00  0.00    +0.000 OA
ATOM     20  N   UNL     1       5.294   3.990  18.380  0.00  0.00    +0.000 N 
ATOM     21  H   UNL     1       5.716   4.361  19.222  0.00  0.00    +0.000 HD
BRANCH  20  22
ATOM     22  C   UNL     1       5.862   4.345  17.084  0.00  0.00    +0.000 C 
ATOM     23  C   UNL     1       5.163   5.567  16.481  0.00  0.00    +0.000 C 
ATOM     24  C   UNL     1       5.534   6.885  17.162  0.00  0.00    +0.000 C 
ATOM     25  C   UNL     1       7.040   7.061  17.346  0.00  0.00    +0.000 C 
ATOM     26  C   UNL     1       7.691   5.842  17.987  0.00  0.00    +0.000 C 
ATOM     27  C   UNL     1       7.374   4.575  17.197  0.00  0.00    +0.000 C 
ENDBRANCH  20  22
ENDBRANCH  17  18
ENDBRANCH  16  17
ENDBRANCH   1  16
TORSDOF 8
ENDMDL
MODEL 2
REMARK VINA RESULT:      -7.1      4.908      7.687
REMARK  Name = 
REMARK  9 active torsions:
REMARK  status: ('A' for Active; 'I' for Inactive)
REMARK    1  A    between atoms: C_1  and  O_2
REMARK    2  A    between atoms: O_2  and  C_3
REMARK    3  A    between atoms: C_7  and  C_8
REMARK    4  A    between atoms: N_10  and  C_11
REMARK    5  A    between atoms: C_11  and  C_12
REMARK    6  A    between atoms: C_12  and  O_14
REMARK    7  A    between atoms: O_14  and  C_15
REMARK    8  A    between atoms: C_15  and  C_16
REMARK    9  A    between atoms: N_18  and  C_19
REMARK                            x       y       z     vdW  Elec       q    Type
REMARK                         _______ _______ _______ _____ _____    ______ ____
ROOT
ATOM      1  C   UNL     1       7.768   7.278  17.889  0.00  0.00    +0.000 C 
ATOM      2  O   UNL     1       7.261   7.491  16.792  0.00  0.00    +0.000 OA
ENDROOT
BRANCH   1   3
ATOM      3  C   UNL     1       7.643   5.973  18.654  0.00  0.00    +0.000 C 
BRANCH   3   6
ATOM      4  C   UNL     1       5.659   4.695  17.995  0.00  0.00    +0.000 C 
ATOM      5  O   UNL     1       6.231   4.197  17.033  0.00  0.00    +0.000 OA
ATOM      6  N   UNL     1       6.257   5.600  18.845  0.00  0.00    +0.000 N 
ATOM      7  H   UNL     1       5.749   6.029  19.606  0.00  0.00    +0.000 HD
BRANCH   4  12
ATOM      8  C   UNL     1       2.544   3.089  19.450  0.00  0.00    +0.000 A 
ATOM      9  C   UNL     1       1.558   3.763  18.726  0.00  0.00    +0.000 A 
ATOM     10  C   UNL     1       1.903   4.715  17.767  0.00  0.00    +0.000 A 
ATOM     11  C   UNL     1       3.247   5.009  17.537  0.00  0.00    +0.000 A 
ATOM     12  C   UNL     1       4.239   4.354  18.269  0.00  0.00    +0.000 A 
ATOM     13  C   UNL     1       3.891   3.383  19.215  0.00  0.00    +0.000 A 
BRANCH   8  15
ATOM     14  C   UNL     1       1.637   2.656  21.606  0.00  0.00    +0.000 C 
ATOM     15  O   UNL     1       2.075   2.166  20.345  0.00  0.00    +0.000 OA
ENDBRANCH   8  15
ENDBRANCH   4  12
ENDBRANCH   3   6
ENDBRANCH   1   3
BRANCH   1  16
ATOM     16  O   UNL     1       8.486   8.185  18.605  0.00  0.00    +0.000 OA
BRANCH  16  17
ATOM     17  C   UNL     1       8.370   9.521  18.125  0.00  0.00    +0.000 C 
BRANCH  17  18
ATOM     18  C   UNL     1       9.279  10.422  18.959  0.00  0.00    +0.000 C 
ATOM     19  O   UNL     1       9.338  10.337  20.186  0.00  0.00    +0.000 OA
ATOM     20  N   UNL     1      10.039  11.314  18.235  0.00  0.00    +0.000 N 
ATOM     21  H   UNL     1       9.912  11.376  17.233  0.00  0.00    +0.000 HD
BRANCH  20  22
ATOM     22  C   UNL     1      10.875  12.302  18.908  0.00  0.00    +0.000 C 
ATOM     23  C   UNL     1      12.189  12.531  18.154  0.00  0.00    +0.000 C 
ATOM     24  C   UNL     1      12.024  13.341  16.867  0.00  0.00    +0.000 C 
ATOM     25  C   UNL     1      11.190  14.606  17.057  0.00  0.00    +0.000 C 
ATOM     26  C   UNL     1       9.874  14.329  17.773  0.00  0.00    +0.000 C 
ATOM     27  C   UNL     1      10.114  13.619  19.103  0.00  0.00    +0.000 C 
ENDBRANCH  20  22
ENDBRANCH  17  18
ENDBRANCH  16  17
ENDBRANCH   1  16
TORSDOF 8
ENDMDL
MODEL 3
REMARK VINA RESULT:      -7.0      4.444      7.140
REMARK  Name = 
REMARK  9 active torsions:
REMARK  status: ('A' for Active; 'I' for Inactive)
REMARK    1  A    between atoms: C_1  and  O_2
REMARK    2  A    between atoms: O_2  and  C_3
REMARK    3  A    between atoms: C_7  and  C_8
REMARK    4  A    between atoms: N_10  and  C_11
REMARK    5  A    between atoms: C_11  and  C_12
REMARK    6  A    between atoms: C_12  and  O_14
REMARK    7  A    between atoms: O_14  and  C_15
REMARK    8  A    between atoms: C_15  and  C_16
REMARK    9  A    between atoms: N_18  and  C_19
REMARK                            x       y       z     vdW  Elec       q    Type
REMARK                         _______ _______ _______ _____ _____    ______ ____
ROOT
ATOM      1  C   UNL     1       7.536   5.866  19.181  0.00  0.00    +0.000 C 
ATOM      2  O   UNL     1       8.378   5.273  19.847  0.00  0.00    +0.000 OA
ENDROOT
BRANCH   1   3
ATOM      3  C   UNL     1       7.848   6.983  18.201  0.00  0.00    +0.000 C 
BRANCH   3   6
ATOM      4  C   UNL     1       8.516   9.331  18.401  0.00  0.00    +0.000 C 
ATOM      5  O   UNL     1       7.777   9.678  17.487  0.00  0.00    +0.000 OA
ATOM      6  N   UNL     1       8.643   8.024  18.818  0.00  0.00    +0.000 N 
ATOM      7  H   UNL     1       9.291   7.759  19.546  0.00  0.00    +0.000 HD
BRANCH   4  12
ATOM      8  C   UNL     1       9.827  11.778  20.989  0.00  0.00    +0.000 A 
ATOM      9  C   UNL     1      10.973  12.237  20.336  0.00  0.00    +0.000 A 
ATOM     10  C   UNL     1      11.305  11.768  19.065  0.00  0.00    +0.000 A 
ATOM     11  C   UNL     1      10.493  10.820  18.444  0.00  0.00    +0.000 A 
ATOM     12  C   UNL     1       9.355  10.342  19.097  0.00  0.00    +0.000 A 
ATOM     13  C   UNL     1       9.012  10.830  20.363  0.00  0.00    +0.000 A 
BRANCH   8  15
ATOM     14  C   UNL     1       9.191  13.692  22.250  0.00  0.00    +0.000 C 
ATOM     15  O   UNL     1       9.603  12.330  22.221  0.00  0.00    +0.000 OA
ENDBRANCH   8  15
ENDBRANCH   4  12
ENDBRANCH   3   6
ENDBRANCH   1   3
BRANCH   1  16
ATOM     16  O   UNL     1       6.195   5.645  19.243  0.00  0.00    +0.000 OA
BRANCH  16  17
ATOM     17  C   UNL     1       5.572   5.526  17.967  0.00  0.00    +0.000 C 
BRANCH  17  18
ATOM     18  C   UNL     1       4.067   5.725  18.137  0.00  0.00    +0.000 C 
ATOM     19  O   UNL     1       3.502   6.765  17.800  0.00  0.00    +0.000 OA
ATOM     20  N   UNL     1       3.393   4.649  18.672  0.00  0.00    +0.000 N 
ATOM     21  H   UNL     1       3.915   3.838  18.978  0.00  0.00    +0.000 HD
BRANCH  20  22
ATOM     22  C   UNL     1       1.970   4.736  18.981  0.00  0.00    +0.000 C 
ATOM     23  C   UNL     1       1.242   3.431  18.648  0.00  0.00    +0.000 C 
ATOM     24  C   UNL     1       1.530   2.298  19.635  0.00  0.00    +0.000 C 
ATOM     25  C   UNL     1       1.396   2.727  21.094  0.00  0.00    +0.000 C 
ATOM     26  C   UNL     1       2.169   4.005  21.395  0.00  0.00    +0.000 C 
ATOM     27  C   UNL     1       1.755   5.129  20.448  0.00  0.00    +0.000 C 
ENDBRANCH  20  22
ENDBRANCH  17  18
ENDBRANCH  16  17
ENDBRANCH   1  16
TORSDOF 8
ENDMDL
MODEL 4
REMARK VINA RESULT:      -7.0      4.168      7.158
REMARK  Name = 
REMARK  9 active torsions:
REMARK  status: ('A' for Active; 'I' for Inactive)
REMARK    1  A    between atoms: C_1  and  O_2
REMARK    2  A    between atoms: O_2  and  C_3
REMARK    3  A    between atoms: C_7  and  C_8
REMARK    4  A    between atoms: N_10  and  C_11
REMARK    5  A    between atoms: C_11  and  C_12
REMARK    6  A    between atoms: C_12  and  O_14
REMARK    7  A    between atoms: O_14  and  C_15
REMARK    8  A    between atoms: C_15  and  C_16
REMARK    9  A    between atoms: N_18  and  C_19
REMARK                            x       y       z     vdW  Elec       q    Type
REMARK                         _______ _______ _______ _____ _____    ______ ____
ROOT
ATOM      1  C   UNL     1       7.519   6.191  17.040  0.00  0.00    +0.000 C 
ATOM      2  O   UNL     1       7.643   6.141  15.820  0.00  0.00    +0.000 OA
ENDROOT
BRANCH   1   3
ATOM      3  C   UNL     1       7.619   4.989  17.963  0.00  0.00    +0.000 C 
BRANCH   3   6
ATOM      4  C   UNL     1       5.394   4.472  18.847  0.00  0.00    +0.000 C 
ATOM      5  O   UNL     1       5.478   5.333  19.714  0.00  0.00    +0.000 OA
ATOM      6  N   UNL     1       6.402   4.205  17.947  0.00  0.00    +0.000 N 
ATOM      7  H   UNL     1       6.324   3.460  17.268  0.00  0.00    +0.000 HD
BRANCH   4  12
ATOM      8  C   UNL     1       2.230   2.582  19.751  0.00  0.00    +0.000 A 
ATOM      9  C   UNL     1       1.896   2.050  18.503  0.00  0.00    +0.000 A 
ATOM     10  C   UNL     1       2.697   2.291  17.388  0.00  0.00    +0.000 A 
ATOM     11  C   UNL     1       3.838   3.083  17.514  0.00  0.00    +0.000 A 
ATOM     12  C   UNL     1       4.171   3.633  18.754  0.00  0.00    +0.000 A 
ATOM     13  C   UNL     1       3.377   3.372  19.876  0.00  0.00    +0.000 A 
BRANCH   8  15
ATOM     14  C   UNL     1       1.664   2.792  22.052  0.00  0.00    +0.000 C 
ATOM     15  O   UNL     1       1.374   2.254  20.768  0.00  0.00    +0.000 OA
ENDBRANCH   8  15
ENDBRANCH   4  12
ENDBRANCH   3   6
ENDBRANCH   1   3
BRANCH   1  16
ATOM     16  O   UNL     1       7.237   7.316  17.750  0.00  0.00    +0.000 OA
BRANCH  16  17
ATOM     17  C   UNL     1       8.369   7.883  18.403  0.00  0.00    +0.000 C 
BRANCH  17  18
ATOM     18  C   UNL     1       8.350   9.396  18.192  0.00  0.00    +0.000 C 
ATOM     19  O   UNL     1       7.634   9.929  17.345  0.00  0.00    +0.000 OA
ATOM     20  N   UNL     1       9.172  10.113  19.033  0.00  0.00    +0.000 N 
ATOM     21  H   UNL     1       9.777   9.619  19.676  0.00  0.00    +0.000 HD
BRANCH  20  22
ATOM     22  C   UNL     1       9.328  11.555  18.876  0.00  0.00    +0.000 C 
ATOM     23  C   UNL     1       9.676  12.229  20.206  0.00  0.00    +0.000 C 
ATOM     24  C   UNL     1      11.115  11.983  20.662  0.00  0.00    +0.000 C 
ATOM     25  C   UNL     1      12.142  12.223  19.557  0.00  0.00    +0.000 C 
ATOM     26  C   UNL     1      11.782  11.501  18.264  0.00  0.00    +0.000 C 
ATOM     27  C   UNL     1      10.376  11.876  17.804  0.00  0.00    +0.000 C 
ENDBRANCH  20  22
ENDBRANCH  17  18
ENDBRANCH  16  17
ENDBRANCH   1  16
TORSDOF 8
ENDMDL
MODEL 5
REMARK VINA RESULT:      -6.8      1.157      1.488
REMARK  Name = 
REMARK  9 active torsions:
REMARK  status: ('A' for Active; 'I' for Inactive)
REMARK    1  A    between atoms: C_1  and  O_2
REMARK    2  A    between atoms: O_2  and  C_3
REMARK    3  A    between atoms: C_7  and  C_8
REMARK    4  A    between atoms: N_10  and  C_11
REMARK    5  A    between atoms: C_11  and  C_12
REMARK    6  A    between atoms: C_12  and  O_14
REMARK    7  A    between atoms: O_14  and  C_15
REMARK    8  A    between atoms: C_15  and  C_16
REMARK    9  A    between atoms: N_18  and  C_19
REMARK                            x       y       z     vdW  Elec       q    Type
REMARK                         _______ _______ _______ _____ _____    ______ ____
ROOT
ATOM      1  C   UNL     1       2.306   2.631  18.749  0.00  0.00    +0.000 C 
ATOM      2  O   UNL     1       1.253   2.022  18.590  0.00  0.00    +0.000 OA
ENDROOT
BRANCH   1   3
ATOM      3  C   UNL     1       2.616   3.512  19.947  0.00  0.00    +0.000 C 
BRANCH   3   6
ATOM      4  C   UNL     1       2.907   5.921  19.615  0.00  0.00    +0.000 C 
ATOM      5  O   UNL     1       4.129   5.832  19.630  0.00  0.00    +0.000 OA
ATOM      6  N   UNL     1       2.068   4.841  19.784  0.00  0.00    +0.000 N 
ATOM      7  H   UNL     1       1.063   4.949  19.809  0.00  0.00    +0.000 HD
BRANCH   4  12
ATOM      8  C   UNL     1       1.055   9.161  20.302  0.00  0.00    +0.000 A 
ATOM      9  C   UNL     1       1.079   9.734  19.028  0.00  0.00    +0.000 A 
ATOM     10  C   UNL     1       1.677   9.068  17.959  0.00  0.00    +0.000 A 
ATOM     11  C   UNL     1       2.269   7.822  18.164  0.00  0.00    +0.000 A 
ATOM     12  C   UNL     1       2.265   7.249  19.437  0.00  0.00    +0.000 A 
ATOM     13  C   UNL     1       1.646   7.910  20.504  0.00  0.00    +0.000 A 
BRANCH   8  15
ATOM     14  C   UNL     1       0.054  11.233  20.904  0.00  0.00    +0.000 C 
ATOM     15  O   UNL     1       0.421   9.906  21.259  0.00  0.00    +0.000 OA
ENDBRANCH   8  15
ENDBRANCH   4  12
ENDBRANCH   3   6
ENDBRANCH   1   3
BRANCH   1  16
ATOM     16  O   UNL     1       3.340   2.645  17.866  0.00  0.00    +0.000 OA
BRANCH  16  17
ATOM     17  C   UNL     1       3.296   3.729  16.944  0.00  0.00    +0.000 C 
BRANCH  17  18
ATOM     18  C   UNL     1       4.705   3.971  16.404  0.00  0.00    +0.000 C 
ATOM     19  O   UNL     1       5.022   3.686  15.250  0.00  0.00    +0.000 OA
ATOM     20  N   UNL     1       5.580   4.550  17.297  0.00  0.00    +0.000 N 
ATOM     21  H   UNL     1       5.280   4.717  18.249  0.00  0.00    +0.000 HD
BRANCH  20  22
ATOM     22  C   UNL     1       6.983   4.746  16.950  0.00  0.00    +0.000 C 
ATOM     23  C   UNL     1       7.215   6.115  16.302  0.00  0.00    +0.000 C 
ATOM     24  C   UNL     1       7.153   7.280  17.291  0.00  0.00    +0.000 C 
ATOM     25  C   UNL     1       7.982   7.042  18.551  0.00  0.00    +0.000 C 
ATOM     26  C   UNL     1       7.691   5.688  19.188  0.00  0.00    +0.000 C 
ATOM     27  C   UNL     1       7.880   4.558  18.179  0.00  0.00    +0.000 C 
ENDBRANCH  20  22
ENDBRANCH  17  18
ENDBRANCH  16  17
ENDBRANCH   1  16
TORSDOF 8
ENDMDL
MODEL 6
REMARK VINA RESULT:      -6.8      1.670      2.499
REMARK  Name = 
REMARK  9 active torsions:
REMARK  status: ('A' for Active; 'I' for Inactive)
REMARK    1  A    between atoms: C_1  and  O_2
REMARK    2  A    between atoms: O_2  and  C_3
REMARK    3  A    between atoms: C_7  and  C_8
REMARK    4  A    between atoms: N_10  and  C_11
REMARK    5  A    between atoms: C_11  and  C_12
REMARK    6  A    between atoms: C_12  and  O_14
REMARK    7  A    between atoms: O_14  and  C_15
REMARK    8  A    between atoms: C_15  and  C_16
REMARK    9  A    between atoms: N_18  and  C_19
REMARK                            x       y       z     vdW  Elec       q    Type
REMARK                         _______ _______ _______ _____ _____    ______ ____
ROOT
ATOM      1  C   UNL     1       2.239   4.766  20.302  0.00  0.00    +0.000 C 
ATOM      2  O   UNL     1       1.101   4.397  20.576  0.00  0.00    +0.000 OA
ENDROOT
BRANCH   1   3
ATOM      3  C   UNL     1       2.626   6.204  20.003  0.00  0.00    +0.000 C 
BRANCH   3   6
ATOM      4  C   UNL     1       1.420   8.327  20.195  0.00  0.00    +0.000 C 
ATOM      5  O   UNL     1       1.735   8.673  19.064  0.00  0.00    +0.000 OA
ATOM      6  N   UNL     1       1.825   7.139  20.764  0.00  0.00    +0.000 N 
ATOM      7  H   UNL     1       1.586   6.897  21.715  0.00  0.00    +0.000 HD
BRANCH   4  12
ATOM      8  C   UNL     1      -0.897  11.120  21.304  0.00  0.00    +0.000 A 
ATOM      9  C   UNL     1      -0.954  10.863  22.677  0.00  0.00    +0.000 A 
ATOM     10  C   UNL     1      -0.236   9.805  23.234  0.00  0.00    +0.000 A 
ATOM     11  C   UNL     1       0.536   8.985  22.412  0.00  0.00    +0.000 A 
ATOM     12  C   UNL     1       0.585   9.224  21.037  0.00  0.00    +0.000 A 
ATOM     13  C   UNL     1      -0.119  10.299  20.483  0.00  0.00    +0.000 A 
BRANCH   8  15
ATOM     14  C   UNL     1      -2.044  12.207  19.527  0.00  0.00    +0.000 C 
ATOM     15  O   UNL     1      -1.629  12.198  20.887  0.00  0.00    +0.000 OA
ENDBRANCH   8  15
ENDBRANCH   4  12
ENDBRANCH   3   6
ENDBRANCH   1   3
BRANCH   1  16
ATOM     16  O   UNL     1       3.318   3.947  20.188  0.00  0.00    +0.000 OA
BRANCH  16  17
ATOM     17  C   UNL     1       3.172   2.937  19.194  0.00  0.00    +0.000 C 
BRANCH  17  18
ATOM     18  C   UNL     1       3.803   3.436  17.894  0.00  0.00    +0.000 C 
ATOM     19  O   UNL     1       3.214   3.374  16.815  0.00  0.00    +0.000 OA
ATOM     20  N   UNL     1       5.063   3.975  18.027  0.00  0.00    +0.000 N 
ATOM     21  H   UNL     1       5.520   3.953  18.929  0.00  0.00    +0.000 HD
BRANCH  20  22
ATOM     22  C   UNL     1       5.823   4.397  16.855  0.00  0.00    +0.000 C 
ATOM     23  C   UNL     1       5.307   5.729  16.301  0.00  0.00    +0.000 C 
ATOM     24  C   UNL     1       5.685   6.938  17.157  0.00  0.00    +0.000 C 
ATOM     25  C   UNL     1       7.163   6.960  17.542  0.00  0.00    +0.000 C 
ATOM     26  C   UNL     1       7.628   5.632  18.129  0.00  0.00    +0.000 C 
ATOM     27  C   UNL     1       7.320   4.478  17.177  0.00  0.00    +0.000 C 
ENDBRANCH  20  22
ENDBRANCH  17  18
ENDBRANCH  16  17
ENDBRANCH   1  16
TORSDOF 8
ENDMDL
MODEL 7
REMARK VINA RESULT:      -6.8      1.886      4.447
REMARK  Name = 
REMARK  9 active torsions:
REMARK  status: ('A' for Active; 'I' for Inactive)
REMARK    1  A    between atoms: C_1  and  O_2
REMARK    2  A    between atoms: O_2  and  C_3
REMARK    3  A    between atoms: C_7  and  C_8
REMARK    4  A    between atoms: N_10  and  C_11
REMARK    5  A    between atoms: C_11  and  C_12
REMARK    6  A    between atoms: C_12  and  O_14
REMARK    7  A    between atoms: O_14  and  C_15
REMARK    8  A    between atoms: C_15  and  C_16
REMARK    9  A    between atoms: N_18  and  C_19
REMARK                            x       y       z     vdW  Elec       q    Type
REMARK                         _______ _______ _______ _____ _____    ______ ____
ROOT
ATOM      1  C   UNL     1       6.214   6.560  17.199  0.00  0.00    +0.000 C 
ATOM      2  O   UNL     1       6.914   7.500  17.559  0.00  0.00    +0.000 OA
ENDROOT
BRANCH   1   3
ATOM      3  C   UNL     1       4.832   6.704  16.585  0.00  0.00    +0.000 C 
BRANCH   3   6
ATOM      4  C   UNL     1       2.854   7.094  17.977  0.00  0.00    +0.000 C 
ATOM      5  O   UNL     1       2.474   5.935  17.858  0.00  0.00    +0.000 OA
ATOM      6  N   UNL     1       3.992   7.582  17.372  0.00  0.00    +0.000 N 
ATOM      7  H   UNL     1       4.260   8.553  17.451  0.00  0.00    +0.000 HD
BRANCH   4  12
ATOM      8  C   UNL     1       0.765  10.094  18.993  0.00  0.00    +0.000 A 
ATOM      9  C   UNL     1       0.573   9.813  20.348  0.00  0.00    +0.000 A 
ATOM     10  C   UNL     1       1.128   8.671  20.925  0.00  0.00    +0.000 A 
ATOM     11  C   UNL     1       1.872   7.792  20.139  0.00  0.00    +0.000 A 
ATOM     12  C   UNL     1       2.055   8.056  18.780  0.00  0.00    +0.000 A 
ATOM     13  C   UNL     1       1.515   9.213  18.208  0.00  0.00    +0.000 A 
BRANCH   8  15
ATOM     14  C   UNL     1      -0.662  11.936  19.471  0.00  0.00    +0.000 C 
ATOM     15  O   UNL     1       0.187  11.255  18.555  0.00  0.00    +0.000 OA
ENDBRANCH   8  15
ENDBRANCH   4  12
ENDBRANCH   3   6
ENDBRANCH   1   3
BRANCH   1  16
ATOM     16  O   UNL     1       6.546   5.247  17.325  0.00  0.00    +0.000 OA
BRANCH  16  17
ATOM     17  C   UNL     1       5.476   4.352  17.037  0.00  0.00    +0.000 C 
BRANCH  17  18
ATOM     18  C   UNL     1       5.017   3.702  18.341  0.00  0.00    +0.000 C 
ATOM     19  O   UNL     1       5.727   3.680  19.347  0.00  0.00    +0.000 OA
ATOM     20  N   UNL     1       3.747   3.168  18.312  0.00  0.00    +0.000 N 
ATOM     21  H   UNL     1       3.228   3.170  17.443  0.00  0.00    +0.000 HD
BRANCH  20  22
ATOM     22  C   UNL     1       3.220   2.431  19.454  0.00  0.00    +0.000 C 
ATOM     23  C   UNL     1       3.180   3.300  20.714  0.00  0.00    +0.000 C 
ATOM     24  C   UNL     1       2.068   4.350  20.701  0.00  0.00    +0.000 C 
ATOM     25  C   UNL     1       0.710   3.779  20.299  0.00  0.00    +0.000 C 
ATOM     26  C   UNL     1       0.783   2.956  19.018  0.00  0.00    +0.000 C 
ATOM     27  C   UNL     1       1.834   1.855  19.137  0.00  0.00    +0.000 C 
ENDBRANCH  20  22
ENDBRANCH  17  18
ENDBRANCH  16  17
ENDBRANCH   1  16
TORSDOF 8
ENDMDL
MODEL 8
REMARK VINA RESULT:      -6.7      1.811      6.358
REMARK  Name = 
REMARK  9 active torsions:
REMARK  status: ('A' for Active; 'I' for Inactive)
REMARK    1  A    between atoms: C_1  and  O_2
REMARK    2  A    between atoms: O_2  and  C_3
REMARK    3  A    between atoms: C_7  and  C_8
REMARK    4  A    between atoms: N_10  and  C_11
REMARK    5  A    between atoms: C_11  and  C_12
REMARK    6  A    between atoms: C_12  and  O_14
REMARK    7  A    between atoms: O_14  and  C_15
REMARK    8  A    between atoms: C_15  and  C_16
REMARK    9  A    between atoms: N_18  and  C_19
REMARK                            x       y       z     vdW  Elec       q    Type
REMARK                         _______ _______ _______ _____ _____    ______ ____
ROOT
ATOM      1  C   UNL     1       1.595   2.620  19.046  0.00  0.00    +0.000 C 
ATOM      2  O   UNL     1       0.490   2.509  18.525  0.00  0.00    +0.000 OA
ENDROOT
BRANCH   1   3
ATOM      3  C   UNL     1       2.869   2.001  18.498  0.00  0.00    +0.000 C 
BRANCH   3   6
ATOM      4  C   UNL     1       4.890   3.360  18.759  0.00  0.00    +0.000 C 
ATOM      5  O   UNL     1       5.138   2.881  19.859  0.00  0.00    +0.000 OA
ATOM      6  N   UNL     1       3.784   3.013  18.014  0.00  0.00    +0.000 N 
ATOM      7  H   UNL     1       3.581   3.455  17.129  0.00  0.00    +0.000 HD
BRANCH   4  12
ATOM      8  C   UNL     1       6.984   5.379  16.322  0.00  0.00    +0.000 A 
ATOM      9  C   UNL     1       7.481   6.363  17.180  0.00  0.00    +0.000 A 
ATOM     10  C   UNL     1       7.152   6.359  18.535  0.00  0.00    +0.000 A 
ATOM     11  C   UNL     1       6.305   5.372  19.038  0.00  0.00    +0.000 A 
ATOM     12  C   UNL     1       5.789   4.395  18.185  0.00  0.00    +0.000 A 
ATOM     13  C   UNL     1       6.138   4.388  16.830  0.00  0.00    +0.000 A 
BRANCH   8  15
ATOM     14  C   UNL     1       6.720   4.680  14.064  0.00  0.00    +0.000 C 
ATOM     15  O   UNL     1       7.398   5.483  15.022  0.00  0.00    +0.000 OA
ENDBRANCH   8  15
ENDBRANCH   4  12
ENDBRANCH   3   6
ENDBRANCH   1   3
BRANCH   1  16
ATOM     16  O   UNL     1       1.846   3.278  20.209  0.00  0.00    +0.000 OA
BRANCH  16  17
ATOM     17  C   UNL     1       0.971   4.377  20.450  0.00  0.00    +0.000 C 
BRANCH  17  18
ATOM     18  C   UNL     1       1.777   5.672  20.364  0.00  0.00    +0.000 C 
ATOM     19  O   UNL     1       2.953   5.689  20.000  0.00  0.00    +0.000 OA
ATOM     20  N   UNL     1       1.084   6.814  20.701  0.00  0.00    +0.000 N 
ATOM     21  H   UNL     1       0.134   6.735  21.043  0.00  0.00    +0.000 HD
BRANCH  20  22
ATOM     22  C   UNL     1       1.756   8.107  20.761  0.00  0.00    +0.000 C 
ATOM     23  C   UNL     1       1.454   8.954  19.521  0.00  0.00    +0.000 C 
ATOM     24  C   UNL     1       0.039   9.533  19.503  0.00  0.00    +0.000 C 
ATOM     25  C   UNL     1      -0.352  10.201  20.819  0.00  0.00    +0.000 C 
ATOM     26  C   UNL     1      -0.076   9.310  22.025  0.00  0.00    +0.000 C 
ATOM     27  C   UNL     1       1.381   8.856  22.045  0.00  0.00    +0.000 C 
ENDBRANCH  20  22
ENDBRANCH  17  18
ENDBRANCH  16  17
ENDBRANCH   1  16
TORSDOF 8
ENDMDL
MODEL 9
REMARK VINA RESULT:      -6.7      1.153      1.562
REMARK  Name = 
REMARK  9 active torsions:
REMARK  status: ('A' for Active; 'I' for Inactive)
REMARK    1  A    between atoms: C_1  and  O_2
REMARK    2  A    between atoms: O_2  and  C_3
REMARK    3  A    between atoms: C_7  and  C_8
REMARK    4  A    between atoms: N_10  and  C_11
REMARK    5  A    between atoms: C_11  and  C_12
REMARK    6  A    between atoms: C_12  and  O_14
REMARK    7  A    between atoms: O_14  and  C_15
REMARK    8  A    between atoms: C_15  and  C_16
REMARK    9  A    between atoms: N_18  and  C_19
REMARK                            x       y       z     vdW  Elec       q    Type
REMARK                         _______ _______ _______ _____ _____    ______ ____
ROOT
ATOM      1  C   UNL     1       1.696   3.370  20.404  0.00  0.00    +0.000 C 
ATOM      2  O   UNL     1       0.908   2.543  20.853  0.00  0.00    +0.000 OA
ENDROOT
BRANCH   1   3
ATOM      3  C   UNL     1       2.297   4.509  21.209  0.00  0.00    +0.000 C 
BRANCH   3   6
ATOM      4  C   UNL     1       2.540   6.590  19.941  0.00  0.00    +0.000 C 
ATOM      5  O   UNL     1       3.666   6.292  19.561  0.00  0.00    +0.000 OA
ATOM      6  N   UNL     1       1.787   5.792  20.774  0.00  0.00    +0.000 N 
ATOM      7  H   UNL     1       0.878   6.081  21.107  0.00  0.00    +0.000 HD
BRANCH   4  12
ATOM      8  C   UNL     1       0.540   9.815  19.954  0.00  0.00    +0.000 A 
ATOM      9  C   UNL     1       0.845  10.299  18.679  0.00  0.00    +0.000 A 
ATOM     10  C   UNL     1       1.677   9.578  17.823  0.00  0.00    +0.000 A 
ATOM     11  C   UNL     1       2.223   8.368  18.247  0.00  0.00    +0.000 A 
ATOM     12  C   UNL     1       1.938   7.884  19.526  0.00  0.00    +0.000 A 
ATOM     13  C   UNL     1       1.086   8.598  20.375  0.00  0.00    +0.000 A 
BRANCH   8  15
ATOM     14  C   UNL     1      -0.112  10.618  22.096  0.00  0.00    +0.000 C 
ATOM     15  O   UNL     1      -0.303  10.606  20.687  0.00  0.00    +0.000 OA
ENDBRANCH   8  15
ENDBRANCH   4  12
ENDBRANCH   3   6
ENDBRANCH   1   3
BRANCH   1  16
ATOM     16  O   UNL     1       2.125   3.418  19.114  0.00  0.00    +0.000 OA
BRANCH  16  17
ATOM     17  C   UNL     1       3.075   2.409  18.785  0.00  0.00    +0.000 C 
BRANCH  17  18
ATOM     18  C   UNL     1       4.449   3.061  18.636  0.00  0.00    +0.000 C 
ATOM     19  O   UNL     1       5.215   3.197  19.589  0.00  0.00    +0.000 OA
ATOM     20  N   UNL     1       4.770   3.459  17.357  0.00  0.00    +0.000 N 
ATOM     21  H   UNL     1       4.081   3.368  16.621  0.00  0.00    +0.000 HD
BRANCH  20  22
ATOM     22  C   UNL     1       6.006   4.184  17.087  0.00  0.00    +0.000 C 
ATOM     23  C   UNL     1       6.485   3.963  15.649  0.00  0.00    +0.000 C 
ATOM     24  C   UNL     1       5.655   4.710  14.604  0.00  0.00    +0.000 C 
ATOM     25  C   UNL     1       5.422   6.177  14.961  0.00  0.00    +0.000 C 
ATOM     26  C   UNL     1       4.906   6.351  16.385  0.00  0.00    +0.000 C 
ATOM     27  C   UNL     1       5.838   5.678  17.389  0.00  0.00    +0.000 C 
ENDBRANCH  20  22
ENDBRANCH  17  18
ENDBRANCH  16  17
ENDBRANCH   1  16
TORSDOF 8
ENDMDL
