MODEL 1
REMARK VINA RESULT:      -7.6      0.000      0.000
REMARK  Name = 
REMARK  5 active torsions:
REMARK  status: ('A' for Active; 'I' for Inactive)
REMARK    1  A    between atoms: C_1  and  N_2
REMARK    2  A    between atoms: N_10  and  C_11
REMARK    3  A    between atoms: C_11  and  C_12
REMARK    4  A    between atoms: N_14  and  C_15
REMARK    5  A    between atoms: C_15  and  C_16
REMARK                            x       y       z     vdW  Elec       q    Type
REMARK                         _______ _______ _______ _____ _____    ______ ____
ROOT
ATOM      1  C   UNL     1       5.339   4.572  15.758  0.00  0.00    +0.000 C 
ATOM      2  N   UNL     1       4.408   4.540  16.870  0.00  0.00    +0.000 N 
ATOM      3  C   UNL     1       3.427   3.483  16.870  0.00  0.00    +0.000 C 
ATOM      4  C   UNL     1       2.542   3.485  18.070  0.00  0.00    +0.000 A 
ATOM      5  C   UNL     1       1.805   2.328  18.388  0.00  0.00    +0.000 A 
ATOM      6  C   UNL     1       0.935   2.321  19.471  0.00  0.00    +0.000 A 
ATOM      7  C   UNL     1       0.788   3.472  20.234  0.00  0.00    +0.000 A 
ATOM      8  C   UNL     1       1.514   4.625  19.915  0.00  0.00    +0.000 A 
ATOM      9  C   UNL     1       2.404   4.649  18.828  0.00  0.00    +0.000 A 
ATOM     10  N   UNL     1       3.201   5.787  18.489  0.00  0.00    +0.000 N 
ATOM     11  C   UNL     1       4.310   5.671  17.651  0.00  0.00    +0.000 C 
ATOM     12  O   UNL     1       5.180   6.547  17.598  0.00  0.00    +0.000 OA
ENDROOT
BRANCH  10  13
ATOM     13  C   UNL     1       3.115   7.010  19.296  0.00  0.00    +0.000 C 
BRANCH  13  14
ATOM     14  C   UNL     1       2.185   8.118  18.765  0.00  0.00    +0.000 C 
ATOM     15  O   UNL     1       2.166   8.461  17.584  0.00  0.00    +0.000 OA
ATOM     16  N   UNL     1       1.374   8.670  19.740  0.00  0.00    +0.000 N 
ATOM     17  H   UNL     1       1.775   8.665  20.672  0.00  0.00    +0.000 HD
BRANCH  16  18
ATOM     18  C   UNL     1       0.470   9.761  19.459  0.00  0.00    +0.000 C 
BRANCH  18  19
ATOM     19  C   UNL     1      -0.173  10.261  20.728  0.00  0.00    +0.000 A 
ATOM     20  C   UNL     1      -0.913  11.454  20.748  0.00  0.00    +0.000 A 
ATOM     21  C   UNL     1      -1.502  11.901  21.934  0.00  0.00    +0.000 A 
ATOM     22  C   UNL     1      -1.350  11.168  23.109  0.00  0.00    +0.000 A 
ATOM     23  C   UNL     1      -0.606   9.993  23.108  0.00  0.00    +0.000 A 
ATOM     24  C   UNL     1      -0.014   9.543  21.924  0.00  0.00    +0.000 A 
ENDBRANCH  18  19
ENDBRANCH  16  18
ENDBRANCH  13  14
ENDBRANCH  10  13
TORSDOF 4
ENDMDL
MODEL 2
REMARK VINA RESULT:      -7.4      0.268      1.024
REMARK  Name = 
REMARK  5 active torsions:
REMARK  status: ('A' for Active; 'I' for Inactive)
REMARK    1  A    between atoms: C_1  and  N_2
REMARK    2  A    between atoms: N_10  and  C_11
REMARK    3  A    between atoms: C_11  and  C_12
REMARK    4  A    between atoms: N_14  and  C_15
REMARK    5  A    between atoms: C_15  and  C_16
REMARK                            x       y       z     vdW  Elec       q    Type
REMARK                         _______ _______ _______ _____ _____    ______ ____
ROOT
ATOM      1  C   UNL     1       5.336   4.174  15.843  0.00  0.00    +0.000 C 
ATOM      2  N   UNL     1       4.426   4.277  16.967  0.00  0.00    +0.000 N 
ATOM      3  C   UNL     1       3.397   3.272  17.068  0.00  0.00    +0.000 C 
ATOM      4  C   UNL     1       2.536   3.413  18.276  0.00  0.00    +0.000 A 
ATOM      5  C   UNL     1       1.752   2.323  18.699  0.00  0.00    +0.000 A 
ATOM      6  C   UNL     1       0.903   2.445  19.792  0.00  0.00    +0.000 A 
ATOM      7  C   UNL     1       0.824   3.660  20.460  0.00  0.00    +0.000 A 
ATOM      8  C   UNL     1       1.597   4.747  20.037  0.00  0.00    +0.000 A 
ATOM      9  C   UNL     1       2.467   4.640  18.938  0.00  0.00    +0.000 A 
ATOM     10  N   UNL     1       3.309   5.708  18.496  0.00  0.00    +0.000 N 
ATOM     11  C   UNL     1       4.395   5.471  17.654  0.00  0.00    +0.000 C 
ATOM     12  O   UNL     1       5.304   6.297  17.517  0.00  0.00    +0.000 OA
ENDROOT
BRANCH  10  13
ATOM     13  C   UNL     1       3.295   6.994  19.201  0.00  0.00    +0.000 C 
BRANCH  13  14
ATOM     14  C   UNL     1       2.283   8.042  18.696  0.00  0.00    +0.000 C 
ATOM     15  O   UNL     1       2.152   8.319  17.506  0.00  0.00    +0.000 OA
ATOM     16  N   UNL     1       1.540   8.621  19.708  0.00  0.00    +0.000 N 
ATOM     17  H   UNL     1       2.018   8.679  20.600  0.00  0.00    +0.000 HD
BRANCH  16  18
ATOM     18  C   UNL     1       0.576   9.666  19.451  0.00  0.00    +0.000 C 
BRANCH  18  19
ATOM     19  C   UNL     1      -0.025  10.167  20.740  0.00  0.00    +0.000 A 
ATOM     20  C   UNL     1      -0.165   9.323  21.853  0.00  0.00    +0.000 A 
ATOM     21  C   UNL     1      -0.723   9.806  23.040  0.00  0.00    +0.000 A 
ATOM     22  C   UNL     1      -1.152  11.130  23.123  0.00  0.00    +0.000 A 
ATOM     23  C   UNL     1      -1.034  11.972  22.023  0.00  0.00    +0.000 A 
ATOM     24  C   UNL     1      -0.478  11.492  20.833  0.00  0.00    +0.000 A 
ENDBRANCH  18  19
ENDBRANCH  16  18
ENDBRANCH  13  14
ENDBRANCH  10  13
TORSDOF 4
ENDMDL
MODEL 3
REMARK VINA RESULT:      -7.3      2.625      7.919
REMARK  Name = 
REMARK  5 active torsions:
REMARK  status: ('A' for Active; 'I' for Inactive)
REMARK    1  A    between atoms: C_1  and  N_2
REMARK    2  A    between atoms: N_10  and  C_11
REMARK    3  A    between atoms: C_11  and  C_12
REMARK    4  A    between atoms: N_14  and  C_15
REMARK    5  A    between atoms: C_15  and  C_16
REMARK                            x       y       z     vdW  Elec       q    Type
REMARK                         _______ _______ _______ _____ _____    ______ ____
ROOT
ATOM      1  C   UNL     1      -1.131  13.431  22.036  0.00  0.00    +0.000 C 
ATOM      2  N   UNL     1      -1.135  12.583  20.858  0.00  0.00    +0.000 N 
ATOM      3  C   UNL     1      -2.400  12.404  20.189  0.00  0.00    +0.000 C 
ATOM      4  C   UNL     1      -2.314  11.565  18.959  0.00  0.00    +0.000 A 
ATOM      5  C   UNL     1      -3.361  11.608  18.018  0.00  0.00    +0.000 A 
ATOM      6  C   UNL     1      -3.329  10.799  16.889  0.00  0.00    +0.000 A 
ATOM      7  C   UNL     1      -2.258   9.935  16.700  0.00  0.00    +0.000 A 
ATOM      8  C   UNL     1      -1.220   9.887  17.638  0.00  0.00    +0.000 A 
ATOM      9  C   UNL     1      -1.232  10.703  18.782  0.00  0.00    +0.000 A 
ATOM     10  N   UNL     1      -0.174  10.721  19.745  0.00  0.00    +0.000 N 
ATOM     11  C   UNL     1      -0.043  11.770  20.655  0.00  0.00    +0.000 C 
ATOM     12  O   UNL     1       1.012  11.970  21.268  0.00  0.00    +0.000 OA
ENDROOT
BRANCH  10  13
ATOM     13  C   UNL     1       1.000   9.861  19.562  0.00  0.00    +0.000 C 
BRANCH  13  14
ATOM     14  C   UNL     1       1.094   8.624  20.477  0.00  0.00    +0.000 C 
ATOM     15  O   UNL     1       0.455   8.520  21.523  0.00  0.00    +0.000 OA
ATOM     16  N   UNL     1       1.949   7.649  19.998  0.00  0.00    +0.000 N 
ATOM     17  H   UNL     1       2.721   8.002  19.443  0.00  0.00    +0.000 HD
BRANCH  16  18
ATOM     18  C   UNL     1       2.219   6.435  20.734  0.00  0.00    +0.000 C 
BRANCH  18  19
ATOM     19  C   UNL     1       1.849   5.223  19.917  0.00  0.00    +0.000 A 
ATOM     20  C   UNL     1       1.155   4.144  20.488  0.00  0.00    +0.000 A 
ATOM     21  C   UNL     1       0.820   3.030  19.715  0.00  0.00    +0.000 A 
ATOM     22  C   UNL     1       1.182   2.978  18.370  0.00  0.00    +0.000 A 
ATOM     23  C   UNL     1       1.884   4.032  17.795  0.00  0.00    +0.000 A 
ATOM     24  C   UNL     1       2.222   5.148  18.566  0.00  0.00    +0.000 A 
ENDBRANCH  18  19
ENDBRANCH  16  18
ENDBRANCH  13  14
ENDBRANCH  10  13
TORSDOF 4
ENDMDL
MODEL 4
REMARK VINA RESULT:      -7.3      2.189      7.852
REMARK  Name = 
REMARK  5 active torsions:
REMARK  status: ('A' for Active; 'I' for Inactive)
REMARK    1  A    between atoms: C_1  and  N_2
REMARK    2  A    between atoms: N_10  and  C_11
REMARK    3  A    between atoms: C_11  and  C_12
REMARK    4  A    between atoms: N_14  and  C_15
REMARK    5  A    between atoms: C_15  and  C_16
REMARK                            x       y       z     vdW  Elec       q    Type
REMARK                         _______ _______ _______ _____ _____    ______ ____
ROOT
ATOM      1  C   UNL     1       1.204   7.899  21.348  0.00  0.00    +0.000 C 
ATOM      2  N   UNL     1       1.533   6.883  20.366  0.00  0.00    +0.000 N 
ATOM      3  C   UNL     1       1.399   5.508  20.780  0.00  0.00    +0.000 C 
ATOM      4  C   UNL     1       1.701   4.524  19.702  0.00  0.00    +0.000 A 
ATOM      5  C   UNL     1       1.265   3.192  19.839  0.00  0.00    +0.000 A 
ATOM      6  C   UNL     1       1.578   2.245  18.873  0.00  0.00    +0.000 A 
ATOM      7  C   UNL     1       2.338   2.619  17.772  0.00  0.00    +0.000 A 
ATOM      8  C   UNL     1       2.778   3.941  17.639  0.00  0.00    +0.000 A 
ATOM      9  C   UNL     1       2.465   4.915  18.602  0.00  0.00    +0.000 A 
ATOM     10  N   UNL     1       2.854   6.286  18.488  0.00  0.00    +0.000 N 
ATOM     11  C   UNL     1       2.242   7.278  19.253  0.00  0.00    +0.000 C 
ATOM     12  O   UNL     1       2.328   8.475  18.956  0.00  0.00    +0.000 OA
ENDROOT
BRANCH  10  13
ATOM     13  C   UNL     1       3.617   6.738  17.319  0.00  0.00    +0.000 C 
BRANCH  13  14
ATOM     14  C   UNL     1       5.076   6.250  17.221  0.00  0.00    +0.000 C 
ATOM     15  O   UNL     1       5.888   6.395  18.132  0.00  0.00    +0.000 OA
ATOM     16  N   UNL     1       5.368   5.628  16.021  0.00  0.00    +0.000 N 
ATOM     17  H   UNL     1       4.829   5.964  15.230  0.00  0.00    +0.000 HD
BRANCH  16  18
ATOM     18  C   UNL     1       6.694   5.147  15.708  0.00  0.00    +0.000 C 
BRANCH  18  19
ATOM     19  C   UNL     1       6.778   4.713  14.267  0.00  0.00    +0.000 A 
ATOM     20  C   UNL     1       7.686   5.310  13.378  0.00  0.00    +0.000 A 
ATOM     21  C   UNL     1       7.750   4.893  12.046  0.00  0.00    +0.000 A 
ATOM     22  C   UNL     1       6.904   3.884  11.588  0.00  0.00    +0.000 A 
ATOM     23  C   UNL     1       5.989   3.295  12.453  0.00  0.00    +0.000 A 
ATOM     24  C   UNL     1       5.920   3.710  13.786  0.00  0.00    +0.000 A 
ENDBRANCH  18  19
ENDBRANCH  16  18
ENDBRANCH  13  14
ENDBRANCH  10  13
TORSDOF 4
ENDMDL
MODEL 5
REMARK VINA RESULT:      -7.3      2.816      4.979
REMARK  Name = 
REMARK  5 active torsions:
REMARK  status: ('A' for Active; 'I' for Inactive)
REMARK    1  A    between atoms: C_1  and  N_2
REMARK    2  A    between atoms: N_10  and  C_11
REMARK    3  A    between atoms: C_11  and  C_12
REMARK    4  A    between atoms: N_14  and  C_15
REMARK    5  A    between atoms: C_15  and  C_16
REMARK                            x       y       z     vdW  Elec       q    Type
REMARK                         _______ _______ _______ _____ _____    ______ ____
ROOT
ATOM      1  C   UNL     1       8.271   7.495  18.761  0.00  0.00    +0.000 C 
ATOM      2  N   UNL     1       7.573   6.436  18.058  0.00  0.00    +0.000 N 
ATOM      3  C   UNL     1       7.420   6.591  16.632  0.00  0.00    +0.000 C 
ATOM      4  C   UNL     1       6.740   5.440  15.972  0.00  0.00    +0.000 A 
ATOM      5  C   UNL     1       6.850   5.278  14.578  0.00  0.00    +0.000 A 
ATOM      6  C   UNL     1       6.185   4.243  13.933  0.00  0.00    +0.000 A 
ATOM      7  C   UNL     1       5.398   3.372  14.675  0.00  0.00    +0.000 A 
ATOM      8  C   UNL     1       5.282   3.536  16.060  0.00  0.00    +0.000 A 
ATOM      9  C   UNL     1       5.953   4.573  16.731  0.00  0.00    +0.000 A 
ATOM     10  N   UNL     1       5.902   4.754  18.149  0.00  0.00    +0.000 N 
ATOM     11  C   UNL     1       6.838   5.548  18.811  0.00  0.00    +0.000 C 
ATOM     12  O   UNL     1       7.010   5.469  20.033  0.00  0.00    +0.000 OA
ENDROOT
BRANCH  10  13
ATOM     13  C   UNL     1       5.122   3.829  18.979  0.00  0.00    +0.000 C 
BRANCH  13  14
ATOM     14  C   UNL     1       3.671   4.246  19.294  0.00  0.00    +0.000 C 
ATOM     15  O   UNL     1       2.697   3.613  18.894  0.00  0.00    +0.000 OA
ATOM     16  N   UNL     1       3.583   5.384  20.074  0.00  0.00    +0.000 N 
ATOM     17  H   UNL     1       4.347   6.040  19.949  0.00  0.00    +0.000 HD
BRANCH  16  18
ATOM     18  C   UNL     1       2.314   5.971  20.435  0.00  0.00    +0.000 C 
BRANCH  18  19
ATOM     19  C   UNL     1       2.083   7.252  19.675  0.00  0.00    +0.000 A 
ATOM     20  C   UNL     1       1.393   8.328  20.255  0.00  0.00    +0.000 A 
ATOM     21  C   UNL     1       1.190   9.509  19.536  0.00  0.00    +0.000 A 
ATOM     22  C   UNL     1       1.665   9.623  18.231  0.00  0.00    +0.000 A 
ATOM     23  C   UNL     1       2.336   8.559  17.637  0.00  0.00    +0.000 A 
ATOM     24  C   UNL     1       2.540   7.375  18.353  0.00  0.00    +0.000 A 
ENDBRANCH  18  19
ENDBRANCH  16  18
ENDBRANCH  13  14
ENDBRANCH  10  13
TORSDOF 4
ENDMDL
MODEL 6
REMARK VINA RESULT:      -7.3      5.465      6.915
REMARK  Name = 
REMARK  5 active torsions:
REMARK  status: ('A' for Active; 'I' for Inactive)
REMARK    1  A    between atoms: C_1  and  N_2
REMARK    2  A    between atoms: N_10  and  C_11
REMARK    3  A    between atoms: C_11  and  C_12
REMARK    4  A    between atoms: N_14  and  C_15
REMARK    5  A    between atoms: C_15  and  C_16
REMARK                            x       y       z     vdW  Elec       q    Type
REMARK                         _______ _______ _______ _____ _____    ______ ____
ROOT
ATOM      1  C   UNL     1       6.278   3.973  13.598  0.00  0.00    +0.000 C 
ATOM      2  N   UNL     1       6.097   4.097  15.032  0.00  0.00    +0.000 N 
ATOM      3  C   UNL     1       4.863   3.589  15.580  0.00  0.00    +0.000 C 
ATOM      4  C   UNL     1       4.772   3.703  17.063  0.00  0.00    +0.000 A 
ATOM      5  C   UNL     1       3.821   2.933  17.760  0.00  0.00    +0.000 A 
ATOM      6  C   UNL     1       3.683   3.058  19.136  0.00  0.00    +0.000 A 
ATOM      7  C   UNL     1       4.486   3.960  19.822  0.00  0.00    +0.000 A 
ATOM      8  C   UNL     1       5.426   4.731  19.130  0.00  0.00    +0.000 A 
ATOM      9  C   UNL     1       5.586   4.613  17.739  0.00  0.00    +0.000 A 
ATOM     10  N   UNL     1       6.563   5.346  16.995  0.00  0.00    +0.000 N 
ATOM     11  C   UNL     1       6.934   4.956  15.708  0.00  0.00    +0.000 C 
ATOM     12  O   UNL     1       7.974   5.364  15.180  0.00  0.00    +0.000 OA
ENDROOT
BRANCH  10  13
ATOM     13  C   UNL     1       7.465   6.275  17.684  0.00  0.00    +0.000 C 
BRANCH  13  14
ATOM     14  C   UNL     1       7.185   7.778  17.485  0.00  0.00    +0.000 C 
ATOM     15  O   UNL     1       6.154   8.198  16.965  0.00  0.00    +0.000 OA
ATOM     16  N   UNL     1       8.196   8.593  17.960  0.00  0.00    +0.000 N 
ATOM     17  H   UNL     1       9.122   8.180  17.923  0.00  0.00    +0.000 HD
BRANCH  16  18
ATOM     18  C   UNL     1       8.152  10.030  17.820  0.00  0.00    +0.000 C 
BRANCH  18  19
ATOM     19  C   UNL     1       9.309  10.672  18.544  0.00  0.00    +0.000 A 
ATOM     20  C   UNL     1      10.413  11.182  17.842  0.00  0.00    +0.000 A 
ATOM     21  C   UNL     1      11.476  11.775  18.530  0.00  0.00    +0.000 A 
ATOM     22  C   UNL     1      11.450  11.855  19.922  0.00  0.00    +0.000 A 
ATOM     23  C   UNL     1      10.370  11.339  20.630  0.00  0.00    +0.000 A 
ATOM     24  C   UNL     1       9.306  10.744  19.946  0.00  0.00    +0.000 A 
ENDBRANCH  18  19
ENDBRANCH  16  18
ENDBRANCH  13  14
ENDBRANCH  10  13
TORSDOF 4
ENDMDL
MODEL 7
REMARK VINA RESULT:      -7.3      2.839      4.890
REMARK  Name = 
REMARK  5 active torsions:
REMARK  status: ('A' for Active; 'I' for Inactive)
REMARK    1  A    between atoms: C_1  and  N_2
REMARK    2  A    between atoms: N_10  and  C_11
REMARK    3  A    between atoms: C_11  and  C_12
REMARK    4  A    between atoms: N_14  and  C_15
REMARK    5  A    between atoms: C_15  and  C_16
REMARK                            x       y       z     vdW  Elec       q    Type
REMARK                         _______ _______ _______ _____ _____    ______ ____
ROOT
ATOM      1  C   UNL     1       8.346   7.579  18.745  0.00  0.00    +0.000 C 
ATOM      2  N   UNL     1       7.582   6.521  18.112  0.00  0.00    +0.000 N 
ATOM      3  C   UNL     1       7.272   6.688  16.714  0.00  0.00    +0.000 C 
ATOM      4  C   UNL     1       6.533   5.537  16.121  0.00  0.00    +0.000 A 
ATOM      5  C   UNL     1       6.490   5.388  14.722  0.00  0.00    +0.000 A 
ATOM      6  C   UNL     1       5.766   4.353  14.144  0.00  0.00    +0.000 A 
ATOM      7  C   UNL     1       5.072   3.468  14.959  0.00  0.00    +0.000 A 
ATOM      8  C   UNL     1       5.109   3.619  16.350  0.00  0.00    +0.000 A 
ATOM      9  C   UNL     1       5.841   4.655  16.953  0.00  0.00    +0.000 A 
ATOM     10  N   UNL     1       5.945   4.823  18.369  0.00  0.00    +0.000 N 
ATOM     11  C   UNL     1       6.942   5.619  18.933  0.00  0.00    +0.000 C 
ATOM     12  O   UNL     1       7.248   5.531  20.127  0.00  0.00    +0.000 OA
ENDROOT
BRANCH  10  13
ATOM     13  C   UNL     1       5.269   3.884  19.271  0.00  0.00    +0.000 C 
BRANCH  13  14
ATOM     14  C   UNL     1       3.795   4.192  19.603  0.00  0.00    +0.000 C 
ATOM     15  O   UNL     1       2.906   3.346  19.527  0.00  0.00    +0.000 OA
ATOM     16  N   UNL     1       3.583   5.498  20.004  0.00  0.00    +0.000 N 
ATOM     17  H   UNL     1       4.225   6.171  19.601  0.00  0.00    +0.000 HD
BRANCH  16  18
ATOM     18  C   UNL     1       2.264   6.003  20.308  0.00  0.00    +0.000 C 
BRANCH  18  19
ATOM     19  C   UNL     1       2.020   7.314  19.605  0.00  0.00    +0.000 A 
ATOM     20  C   UNL     1       2.463   7.528  18.290  0.00  0.00    +0.000 A 
ATOM     21  C   UNL     1       2.226   8.750  17.654  0.00  0.00    +0.000 A 
ATOM     22  C   UNL     1       1.554   9.769  18.326  0.00  0.00    +0.000 A 
ATOM     23  C   UNL     1       1.125   9.577  19.635  0.00  0.00    +0.000 A 
ATOM     24  C   UNL     1       1.361   8.357  20.275  0.00  0.00    +0.000 A 
ENDBRANCH  18  19
ENDBRANCH  16  18
ENDBRANCH  13  14
ENDBRANCH  10  13
TORSDOF 4
ENDMDL
MODEL 8
REMARK VINA RESULT:      -7.2      5.520      7.053
REMARK  Name = 
REMARK  5 active torsions:
REMARK  status: ('A' for Active; 'I' for Inactive)
REMARK    1  A    between atoms: C_1  and  N_2
REMARK    2  A    between atoms: N_10  and  C_11
REMARK    3  A    between atoms: C_11  and  C_12
REMARK    4  A    between atoms: N_14  and  C_15
REMARK    5  A    between atoms: C_15  and  C_16
REMARK                            x       y       z     vdW  Elec       q    Type
REMARK                         _______ _______ _______ _____ _____    ______ ____
ROOT
ATOM      1  C   UNL     1       6.465   4.196  13.502  0.00  0.00    +0.000 C 
ATOM      2  N   UNL     1       6.261   4.279  14.936  0.00  0.00    +0.000 N 
ATOM      3  C   UNL     1       5.024   3.744  15.450  0.00  0.00    +0.000 C 
ATOM      4  C   UNL     1       4.910   3.818  16.935  0.00  0.00    +0.000 A 
ATOM      5  C   UNL     1       3.957   3.020  17.596  0.00  0.00    +0.000 A 
ATOM      6  C   UNL     1       3.797   3.107  18.973  0.00  0.00    +0.000 A 
ATOM      7  C   UNL     1       4.579   3.999  19.695  0.00  0.00    +0.000 A 
ATOM      8  C   UNL     1       5.522   4.798  19.038  0.00  0.00    +0.000 A 
ATOM      9  C   UNL     1       5.703   4.719  17.647  0.00  0.00    +0.000 A 
ATOM     10  N   UNL     1       6.684   5.481  16.938  0.00  0.00    +0.000 N 
ATOM     11  C   UNL     1       7.078   5.130  15.647  0.00  0.00    +0.000 C 
ATOM     12  O   UNL     1       8.122   5.562  15.145  0.00  0.00    +0.000 OA
ENDROOT
BRANCH  10  13
ATOM     13  C   UNL     1       7.565   6.401  17.665  0.00  0.00    +0.000 C 
BRANCH  13  14
ATOM     14  C   UNL     1       7.296   7.907  17.470  0.00  0.00    +0.000 C 
ATOM     15  O   UNL     1       6.300   8.334  16.891  0.00  0.00    +0.000 OA
ATOM     16  N   UNL     1       8.274   8.715  18.019  0.00  0.00    +0.000 N 
ATOM     17  H   UNL     1       9.201   8.303  18.036  0.00  0.00    +0.000 HD
BRANCH  16  18
ATOM     18  C   UNL     1       8.238  10.154  17.898  0.00  0.00    +0.000 C 
BRANCH  18  19
ATOM     19  C   UNL     1       9.419  10.779  18.596  0.00  0.00    +0.000 A 
ATOM     20  C   UNL     1       9.420  10.984  19.984  0.00  0.00    +0.000 A 
ATOM     21  C   UNL     1      10.525  11.563  20.613  0.00  0.00    +0.000 A 
ATOM     22  C   UNL     1      11.634  11.949  19.863  0.00  0.00    +0.000 A 
ATOM     23  C   UNL     1      11.641  11.767  18.484  0.00  0.00    +0.000 A 
ATOM     24  C   UNL     1      10.536  11.189  17.850  0.00  0.00    +0.000 A 
ENDBRANCH  18  19
ENDBRANCH  16  18
ENDBRANCH  13  14
ENDBRANCH  10  13
TORSDOF 4
ENDMDL
MODEL 9
REMARK VINA RESULT:      -7.1      2.271      4.068
REMARK  Name = 
REMARK  5 active torsions:
REMARK  status: ('A' for Active; 'I' for Inactive)
REMARK    1  A    between atoms: C_1  and  N_2
REMARK    2  A    between atoms: N_10  and  C_11
REMARK    3  A    between atoms: C_11  and  C_12
REMARK    4  A    between atoms: N_14  and  C_15
REMARK    5  A    between atoms: C_15  and  C_16
REMARK                            x       y       z     vdW  Elec       q    Type
REMARK                         _______ _______ _______ _____ _____    ______ ____
ROOT
ATOM      1  C   UNL     1       2.851   2.452  19.386  0.00  0.00    +0.000 C 
ATOM      2  N   UNL     1       3.525   3.606  18.822  0.00  0.00    +0.000 N 
ATOM      3  C   UNL     1       4.937   3.732  19.090  0.00  0.00    +0.000 C 
ATOM      4  C   UNL     1       5.570   4.912  18.434  0.00  0.00    +0.000 A 
ATOM      5  C   UNL     1       6.970   4.959  18.297  0.00  0.00    +0.000 A 
ATOM      6  C   UNL     1       7.587   6.069  17.735  0.00  0.00    +0.000 A 
ATOM      7  C   UNL     1       6.810   7.143  17.319  0.00  0.00    +0.000 A 
ATOM      8  C   UNL     1       5.419   7.100  17.462  0.00  0.00    +0.000 A 
ATOM      9  C   UNL     1       4.776   5.983  18.020  0.00  0.00    +0.000 A 
ATOM     10  N   UNL     1       3.356   5.874  18.146  0.00  0.00    +0.000 N 
ATOM     11  C   UNL     1       2.741   4.642  18.365  0.00  0.00    +0.000 C 
ATOM     12  O   UNL     1       1.533   4.472  18.164  0.00  0.00    +0.000 OA
ENDROOT
BRANCH  10  13
ATOM     13  C   UNL     1       2.492   6.963  17.676  0.00  0.00    +0.000 C 
BRANCH  13  14
ATOM     14  C   UNL     1       2.025   7.977  18.739  0.00  0.00    +0.000 C 
ATOM     15  O   UNL     1       2.121   7.765  19.946  0.00  0.00    +0.000 OA
ATOM     16  N   UNL     1       1.509   9.140  18.200  0.00  0.00    +0.000 N 
ATOM     17  H   UNL     1       1.065   9.024  17.296  0.00  0.00    +0.000 HD
BRANCH  16  18
ATOM     18  C   UNL     1       0.967  10.195  19.026  0.00  0.00    +0.000 C 
BRANCH  18  19
ATOM     19  C   UNL     1      -0.455  10.505  18.631  0.00  0.00    +0.000 A 
ATOM     20  C   UNL     1      -1.083   9.822  17.577  0.00  0.00    +0.000 A 
ATOM     21  C   UNL     1      -2.402  10.122  17.227  0.00  0.00    +0.000 A 
ATOM     22  C   UNL     1      -3.101  11.111  17.917  0.00  0.00    +0.000 A 
ATOM     23  C   UNL     1      -2.486  11.807  18.952  0.00  0.00    +0.000 A 
ATOM     24  C   UNL     1      -1.166  11.510  19.306  0.00  0.00    +0.000 A 
ENDBRANCH  18  19
ENDBRANCH  16  18
ENDBRANCH  13  14
ENDBRANCH  10  13
TORSDOF 4
ENDMDL
