MODEL 1
REMARK VINA RESULT:      -8.0      0.000      0.000
REMARK  Name = 
REMARK  4 active torsions:
REMARK  status: ('A' for Active; 'I' for Inactive)
REMARK    1  A    between atoms: C_1  and  C_2
REMARK    2  A    between atoms: C_4  and  C_5
REMARK    3  A    between atoms: C_5  and  N_6
REMARK    4  A    between atoms: C_8  and  C_9
REMARK                            x       y       z     vdW  Elec       q    Type
REMARK                         _______ _______ _______ _____ _____    ______ ____
ROOT
ATOM      1  N   UNL     1       4.857   5.131  18.215  0.00  0.00    +0.000 N 
ATOM      2  C   UNL     1       4.306   6.351  17.844  0.00  0.00    +0.000 A 
ATOM      3  C   UNL     1       3.199   6.913  18.343  0.00  0.00    +0.000 A 
ATOM      4  C   UNL     1       2.484   6.178  19.407  0.00  0.00    +0.000 A 
ATOM      5  O   UNL     1       1.510   6.656  19.979  0.00  0.00    +0.000 OA
ATOM      6  C   UNL     1       3.000   4.833  19.776  0.00  0.00    +0.000 A 
ATOM      7  C   UNL     1       2.275   4.077  20.710  0.00  0.00    +0.000 A 
ATOM      8  C   UNL     1       2.733   2.823  21.092  0.00  0.00    +0.000 A 
ATOM      9  C   UNL     1       3.925   2.341  20.565  0.00  0.00    +0.000 A 
ATOM     10  C   UNL     1       4.652   3.099  19.637  0.00  0.00    +0.000 A 
ATOM     11  C   UNL     1       4.200   4.355  19.200  0.00  0.00    +0.000 A 
ENDROOT
BRANCH   3  12
ATOM     12  C   UNL     1       2.736   8.177  17.903  0.00  0.00    +0.000 C 
ATOM     13  N   UNL     1       2.297   9.197  17.571  0.00  0.00    +0.000 NA
ENDBRANCH   3  12
BRANCH   1  14
ATOM     14  C   UNL     1       6.224   4.762  17.771  0.00  0.00    +0.000 C 
BRANCH  14  18
ATOM     15  C   UNL     1       6.350   3.734  12.772  0.00  0.00    +0.000 C 
ATOM     16  C   UNL     1       6.508   4.289  14.134  0.00  0.00    +0.000 A 
ATOM     17  C   UNL     1       5.832   3.906  15.309  0.00  0.00    +0.000 A 
ATOM     18  C   UNL     1       6.391   4.683  16.296  0.00  0.00    +0.000 A 
ATOM     19  O   UNL     1       7.317   5.507  15.740  0.00  0.00    +0.000 OA
ATOM     20  N   UNL     1       7.393   5.264  14.379  0.00  0.00    +0.000 NA
ENDBRANCH  14  18
ENDBRANCH   1  14
TORSDOF 3
ENDMDL
MODEL 2
REMARK VINA RESULT:      -7.3      1.193      1.271
REMARK  Name = 
REMARK  4 active torsions:
REMARK  status: ('A' for Active; 'I' for Inactive)
REMARK    1  A    between atoms: C_1  and  C_2
REMARK    2  A    between atoms: C_4  and  C_5
REMARK    3  A    between atoms: C_5  and  N_6
REMARK    4  A    between atoms: C_8  and  C_9
REMARK                            x       y       z     vdW  Elec       q    Type
REMARK                         _______ _______ _______ _____ _____    ______ ____
ROOT
ATOM      1  N   UNL     1       3.542   4.298  17.940  0.00  0.00    +0.000 N 
ATOM      2  C   UNL     1       3.378   5.612  17.524  0.00  0.00    +0.000 A 
ATOM      3  C   UNL     1       2.865   6.620  18.239  0.00  0.00    +0.000 A 
ATOM      4  C   UNL     1       2.432   6.321  19.620  0.00  0.00    +0.000 A 
ATOM      5  O   UNL     1       2.029   7.201  20.374  0.00  0.00    +0.000 OA
ATOM      6  C   UNL     1       2.520   4.909  20.075  0.00  0.00    +0.000 A 
ATOM      7  C   UNL     1       2.018   4.589  21.346  0.00  0.00    +0.000 A 
ATOM      8  C   UNL     1       2.096   3.283  21.813  0.00  0.00    +0.000 A 
ATOM      9  C   UNL     1       2.698   2.310  21.024  0.00  0.00    +0.000 A 
ATOM     10  C   UNL     1       3.205   2.632  19.758  0.00  0.00    +0.000 A 
ATOM     11  C   UNL     1       3.111   3.933  19.239  0.00  0.00    +0.000 A 
ENDROOT
BRANCH   3  12
ATOM     12  C   UNL     1       2.764   7.933  17.719  0.00  0.00    +0.000 C 
ATOM     13  N   UNL     1       2.615   9.009  17.311  0.00  0.00    +0.000 NA
ENDBRANCH   3  12
BRANCH   1  14
ATOM     14  C   UNL     1       4.366   3.357  17.142  0.00  0.00    +0.000 C 
BRANCH  14  18
ATOM     15  C   UNL     1       7.557   5.268  13.646  0.00  0.00    +0.000 C 
ATOM     16  C   UNL     1       6.856   4.837  14.874  0.00  0.00    +0.000 A 
ATOM     17  C   UNL     1       5.563   4.289  14.986  0.00  0.00    +0.000 A 
ATOM     18  C   UNL     1       5.424   4.008  16.325  0.00  0.00    +0.000 A 
ATOM     19  O   UNL     1       6.549   4.398  16.980  0.00  0.00    +0.000 OA
ATOM     20  N   UNL     1       7.452   4.921  16.070  0.00  0.00    +0.000 NA
ENDBRANCH  14  18
ENDBRANCH   1  14
TORSDOF 3
ENDMDL
MODEL 3
REMARK VINA RESULT:      -7.2      1.652      3.713
REMARK  Name = 
REMARK  4 active torsions:
REMARK  status: ('A' for Active; 'I' for Inactive)
REMARK    1  A    between atoms: C_1  and  C_2
REMARK    2  A    between atoms: C_4  and  C_5
REMARK    3  A    between atoms: C_5  and  N_6
REMARK    4  A    between atoms: C_8  and  C_9
REMARK                            x       y       z     vdW  Elec       q    Type
REMARK                         _______ _______ _______ _____ _____    ______ ____
ROOT
ATOM      1  N   UNL     1       5.671   5.429  17.995  0.00  0.00    +0.000 N 
ATOM      2  C   UNL     1       5.714   4.218  18.673  0.00  0.00    +0.000 A 
ATOM      3  C   UNL     1       4.704   3.631  19.327  0.00  0.00    +0.000 A 
ATOM      4  C   UNL     1       3.399   4.325  19.326  0.00  0.00    +0.000 A 
ATOM      5  O   UNL     1       2.400   3.821  19.827  0.00  0.00    +0.000 OA
ATOM      6  C   UNL     1       3.335   5.661  18.676  0.00  0.00    +0.000 A 
ATOM      7  C   UNL     1       2.132   6.380  18.756  0.00  0.00    +0.000 A 
ATOM      8  C   UNL     1       2.028   7.625  18.148  0.00  0.00    +0.000 A 
ATOM      9  C   UNL     1       3.111   8.133  17.441  0.00  0.00    +0.000 A 
ATOM     10  C   UNL     1       4.309   7.411  17.356  0.00  0.00    +0.000 A 
ATOM     11  C   UNL     1       4.463   6.167  17.989  0.00  0.00    +0.000 A 
ENDROOT
BRANCH   3  12
ATOM     12  C   UNL     1       4.854   2.378  19.969  0.00  0.00    +0.000 C 
ATOM     13  N   UNL     1       4.910   1.342  20.488  0.00  0.00    +0.000 NA
ENDBRANCH   3  12
BRANCH   1  14
ATOM     14  C   UNL     1       6.784   5.822  17.097  0.00  0.00    +0.000 C 
BRANCH  14  18
ATOM     15  C   UNL     1       5.842   3.421  12.692  0.00  0.00    +0.000 C 
ATOM     16  C   UNL     1       6.339   4.284  13.786  0.00  0.00    +0.000 A 
ATOM     17  C   UNL     1       5.813   4.424  15.085  0.00  0.00    +0.000 A 
ATOM     18  C   UNL     1       6.676   5.291  15.713  0.00  0.00    +0.000 A 
ATOM     19  O   UNL     1       7.636   5.677  14.833  0.00  0.00    +0.000 OA
ATOM     20  N   UNL     1       7.427   5.047  13.618  0.00  0.00    +0.000 NA
ENDBRANCH  14  18
ENDBRANCH   1  14
TORSDOF 3
ENDMDL
MODEL 4
REMARK VINA RESULT:      -6.8      1.815      2.479
REMARK  Name = 
REMARK  4 active torsions:
REMARK  status: ('A' for Active; 'I' for Inactive)
REMARK    1  A    between atoms: C_1  and  C_2
REMARK    2  A    between atoms: C_4  and  C_5
REMARK    3  A    between atoms: C_5  and  N_6
REMARK    4  A    between atoms: C_8  and  C_9
REMARK                            x       y       z     vdW  Elec       q    Type
REMARK                         _______ _______ _______ _____ _____    ______ ____
ROOT
ATOM      1  N   UNL     1       4.043   5.110  18.348  0.00  0.00    +0.000 N 
ATOM      2  C   UNL     1       3.465   6.359  18.159  0.00  0.00    +0.000 A 
ATOM      3  C   UNL     1       2.515   6.923  18.915  0.00  0.00    +0.000 A 
ATOM      4  C   UNL     1       2.031   6.156  20.081  0.00  0.00    +0.000 A 
ATOM      5  O   UNL     1       1.225   6.630  20.875  0.00  0.00    +0.000 OA
ATOM      6  C   UNL     1       2.570   4.784  20.271  0.00  0.00    +0.000 A 
ATOM      7  C   UNL     1       2.046   4.003  21.312  0.00  0.00    +0.000 A 
ATOM      8  C   UNL     1       2.535   2.721  21.532  0.00  0.00    +0.000 A 
ATOM      9  C   UNL     1       3.563   2.236  20.732  0.00  0.00    +0.000 A 
ATOM     10  C   UNL     1       4.092   3.020  19.697  0.00  0.00    +0.000 A 
ATOM     11  C   UNL     1       3.596   4.305  19.423  0.00  0.00    +0.000 A 
ENDROOT
BRANCH   3  12
ATOM     12  C   UNL     1       2.010   8.217  18.641  0.00  0.00    +0.000 C 
ATOM     13  N   UNL     1       1.655   9.302  18.438  0.00  0.00    +0.000 NA
ENDBRANCH   3  12
BRANCH   1  14
ATOM     14  C   UNL     1       5.264   4.731  17.595  0.00  0.00    +0.000 C 
BRANCH  14  18
ATOM     15  C   UNL     1       8.626   8.504  18.316  0.00  0.00    +0.000 C 
ATOM     16  C   UNL     1       7.774   7.412  17.797  0.00  0.00    +0.000 A 
ATOM     17  C   UNL     1       6.915   6.563  18.523  0.00  0.00    +0.000 A 
ATOM     18  C   UNL     1       6.319   5.778  17.566  0.00  0.00    +0.000 A 
ATOM     19  O   UNL     1       6.818   6.109  16.346  0.00  0.00    +0.000 OA
ATOM     20  N   UNL     1       7.735   7.136  16.487  0.00  0.00    +0.000 NA
ENDBRANCH  14  18
ENDBRANCH   1  14
TORSDOF 3
ENDMDL
MODEL 5
REMARK VINA RESULT:      -6.8      1.379      1.478
REMARK  Name = 
REMARK  4 active torsions:
REMARK  status: ('A' for Active; 'I' for Inactive)
REMARK    1  A    between atoms: C_1  and  C_2
REMARK    2  A    between atoms: C_4  and  C_5
REMARK    3  A    between atoms: C_5  and  N_6
REMARK    4  A    between atoms: C_8  and  C_9
REMARK                            x       y       z     vdW  Elec       q    Type
REMARK                         _______ _______ _______ _____ _____    ______ ____
ROOT
ATOM      1  N   UNL     1       4.412   5.012  18.707  0.00  0.00    +0.000 N 
ATOM      2  C   UNL     1       3.790   6.203  19.059  0.00  0.00    +0.000 A 
ATOM      3  C   UNL     1       2.574   6.340  19.599  0.00  0.00    +0.000 A 
ATOM      4  C   UNL     1       1.805   5.106  19.864  0.00  0.00    +0.000 A 
ATOM      5  O   UNL     1       0.718   5.133  20.433  0.00  0.00    +0.000 OA
ATOM      6  C   UNL     1       2.405   3.818  19.429  0.00  0.00    +0.000 A 
ATOM      7  C   UNL     1       1.646   2.647  19.578  0.00  0.00    +0.000 A 
ATOM      8  C   UNL     1       2.178   1.422  19.198  0.00  0.00    +0.000 A 
ATOM      9  C   UNL     1       3.474   1.366  18.698  0.00  0.00    +0.000 A 
ATOM     10  C   UNL     1       4.234   2.534  18.556  0.00  0.00    +0.000 A 
ATOM     11  C   UNL     1       3.715   3.794  18.896  0.00  0.00    +0.000 A 
ENDROOT
BRANCH   3  12
ATOM     12  C   UNL     1       2.044   7.608  19.940  0.00  0.00    +0.000 C 
ATOM     13  N   UNL     1       1.557   8.634  20.178  0.00  0.00    +0.000 NA
ENDBRANCH   3  12
BRANCH   1  14
ATOM     14  C   UNL     1       5.857   4.994  18.371  0.00  0.00    +0.000 C 
BRANCH  14  18
ATOM     15  C   UNL     1       6.241   3.999  13.379  0.00  0.00    +0.000 C 
ATOM     16  C   UNL     1       6.388   4.490  14.766  0.00  0.00    +0.000 A 
ATOM     17  C   UNL     1       5.525   4.272  15.858  0.00  0.00    +0.000 A 
ATOM     18  C   UNL     1       6.149   4.887  16.917  0.00  0.00    +0.000 A 
ATOM     19  O   UNL     1       7.296   5.470  16.479  0.00  0.00    +0.000 OA
ATOM     20  N   UNL     1       7.449   5.224  15.125  0.00  0.00    +0.000 NA
ENDBRANCH  14  18
ENDBRANCH   1  14
TORSDOF 3
ENDMDL
MODEL 6
REMARK VINA RESULT:      -6.8      2.549      6.004
REMARK  Name = 
REMARK  4 active torsions:
REMARK  status: ('A' for Active; 'I' for Inactive)
REMARK    1  A    between atoms: C_1  and  C_2
REMARK    2  A    between atoms: C_4  and  C_5
REMARK    3  A    between atoms: C_5  and  N_6
REMARK    4  A    between atoms: C_8  and  C_9
REMARK                            x       y       z     vdW  Elec       q    Type
REMARK                         _______ _______ _______ _____ _____    ______ ____
ROOT
ATOM      1  N   UNL     1       3.106   6.716  17.840  0.00  0.00    +0.000 N 
ATOM      2  C   UNL     1       4.389   7.213  17.655  0.00  0.00    +0.000 A 
ATOM      3  C   UNL     1       5.501   6.499  17.448  0.00  0.00    +0.000 A 
ATOM      4  C   UNL     1       5.364   5.028  17.395  0.00  0.00    +0.000 A 
ATOM      5  O   UNL     1       6.314   4.300  17.126  0.00  0.00    +0.000 OA
ATOM      6  C   UNL     1       4.019   4.456  17.665  0.00  0.00    +0.000 A 
ATOM      7  C   UNL     1       3.890   3.059  17.721  0.00  0.00    +0.000 A 
ATOM      8  C   UNL     1       2.647   2.486  17.955  0.00  0.00    +0.000 A 
ATOM      9  C   UNL     1       1.534   3.305  18.104  0.00  0.00    +0.000 A 
ATOM     10  C   UNL     1       1.662   4.700  18.040  0.00  0.00    +0.000 A 
ATOM     11  C   UNL     1       2.909   5.314  17.842  0.00  0.00    +0.000 A 
ENDROOT
BRANCH   3  12
ATOM     12  C   UNL     1       6.762   7.113  17.250  0.00  0.00    +0.000 C 
ATOM     13  N   UNL     1       7.778   7.661  17.138  0.00  0.00    +0.000 NA
ENDBRANCH   3  12
BRANCH   1  14
ATOM     14  C   UNL     1       1.937   7.629  17.791  0.00  0.00    +0.000 C 
BRANCH  14  18
ATOM     15  C   UNL     1       0.927   9.187  22.547  0.00  0.00    +0.000 C 
ATOM     16  C   UNL     1       1.177   9.058  21.094  0.00  0.00    +0.000 A 
ATOM     17  C   UNL     1       1.651   7.931  20.394  0.00  0.00    +0.000 A 
ATOM     18  C   UNL     1       1.641   8.318  19.075  0.00  0.00    +0.000 A 
ATOM     19  O   UNL     1       1.224   9.609  18.994  0.00  0.00    +0.000 OA
ATOM     20  N   UNL     1       0.932  10.079  20.263  0.00  0.00    +0.000 NA
ENDBRANCH  14  18
ENDBRANCH   1  14
TORSDOF 3
ENDMDL
MODEL 7
REMARK VINA RESULT:      -6.7      1.446      3.614
REMARK  Name = 
REMARK  4 active torsions:
REMARK  status: ('A' for Active; 'I' for Inactive)
REMARK    1  A    between atoms: C_1  and  C_2
REMARK    2  A    between atoms: C_4  and  C_5
REMARK    3  A    between atoms: C_5  and  N_6
REMARK    4  A    between atoms: C_8  and  C_9
REMARK                            x       y       z     vdW  Elec       q    Type
REMARK                         _______ _______ _______ _____ _____    ______ ____
ROOT
ATOM      1  N   UNL     1       5.450   4.911  18.595  0.00  0.00    +0.000 N 
ATOM      2  C   UNL     1       5.004   3.919  19.457  0.00  0.00    +0.000 A 
ATOM      3  C   UNL     1       3.769   3.791  19.958  0.00  0.00    +0.000 A 
ATOM      4  C   UNL     1       2.764   4.795  19.552  0.00  0.00    +0.000 A 
ATOM      5  O   UNL     1       1.589   4.707  19.895  0.00  0.00    +0.000 OA
ATOM      6  C   UNL     1       3.224   5.916  18.692  0.00  0.00    +0.000 A 
ATOM      7  C   UNL     1       2.309   6.934  18.381  0.00  0.00    +0.000 A 
ATOM      8  C   UNL     1       2.697   7.991  17.567  0.00  0.00    +0.000 A 
ATOM      9  C   UNL     1       3.984   8.013  17.044  0.00  0.00    +0.000 A 
ATOM     10  C   UNL     1       4.895   6.993  17.349  0.00  0.00    +0.000 A 
ATOM     11  C   UNL     1       4.550   5.929  18.198  0.00  0.00    +0.000 A 
ENDROOT
BRANCH   3  12
ATOM     12  C   UNL     1       3.416   2.722  20.817  0.00  0.00    +0.000 C 
ATOM     13  N   UNL     1       3.099   1.892  21.563  0.00  0.00    +0.000 NA
ENDBRANCH   3  12
BRANCH   1  14
ATOM     14  C   UNL     1       6.762   4.776  17.914  0.00  0.00    +0.000 C 
BRANCH  14  18
ATOM     15  C   UNL     1       6.056   3.614  12.994  0.00  0.00    +0.000 C 
ATOM     16  C   UNL     1       6.433   4.207  14.295  0.00  0.00    +0.000 A 
ATOM     17  C   UNL     1       5.973   3.848  15.577  0.00  0.00    +0.000 A 
ATOM     18  C   UNL     1       6.678   4.659  16.435  0.00  0.00    +0.000 A 
ATOM     19  O   UNL     1       7.481   5.480  15.710  0.00  0.00    +0.000 OA
ATOM     20  N   UNL     1       7.329   5.200  14.362  0.00  0.00    +0.000 NA
ENDBRANCH  14  18
ENDBRANCH   1  14
TORSDOF 3
ENDMDL
MODEL 8
REMARK VINA RESULT:      -6.7      2.330      3.110
REMARK  Name = 
REMARK  4 active torsions:
REMARK  status: ('A' for Active; 'I' for Inactive)
REMARK    1  A    between atoms: C_1  and  C_2
REMARK    2  A    between atoms: C_4  and  C_5
REMARK    3  A    between atoms: C_5  and  N_6
REMARK    4  A    between atoms: C_8  and  C_9
REMARK                            x       y       z     vdW  Elec       q    Type
REMARK                         _______ _______ _______ _____ _____    ______ ____
ROOT
ATOM      1  N   UNL     1       3.834   5.528  17.708  0.00  0.00    +0.000 N 
ATOM      2  C   UNL     1       3.267   6.620  18.353  0.00  0.00    +0.000 A 
ATOM      3  C   UNL     1       2.391   6.586  19.364  0.00  0.00    +0.000 A 
ATOM      4  C   UNL     1       1.984   5.257  19.865  0.00  0.00    +0.000 A 
ATOM      5  O   UNL     1       1.252   5.133  20.841  0.00  0.00    +0.000 OA
ATOM      6  C   UNL     1       2.508   4.065  19.149  0.00  0.00    +0.000 A 
ATOM      7  C   UNL     1       2.051   2.798  19.545  0.00  0.00    +0.000 A 
ATOM      8  C   UNL     1       2.530   1.659  18.911  0.00  0.00    +0.000 A 
ATOM      9  C   UNL     1       3.482   1.785  17.907  0.00  0.00    +0.000 A 
ATOM     10  C   UNL     1       3.944   3.049  17.517  0.00  0.00    +0.000 A 
ATOM     11  C   UNL     1       3.455   4.225  18.110  0.00  0.00    +0.000 A 
ENDROOT
BRANCH   3  12
ATOM     12  C   UNL     1       1.892   7.768  19.964  0.00  0.00    +0.000 C 
ATOM     13  N   UNL     1       1.443   8.697  20.494  0.00  0.00    +0.000 NA
ENDBRANCH   3  12
BRANCH   1  14
ATOM     14  C   UNL     1       4.984   5.716  16.790  0.00  0.00    +0.000 C 
BRANCH  14  18
ATOM     15  C   UNL     1       8.591   9.069  18.134  0.00  0.00    +0.000 C 
ATOM     16  C   UNL     1       7.695   7.904  17.972  0.00  0.00    +0.000 A 
ATOM     17  C   UNL     1       6.500   7.827  17.230  0.00  0.00    +0.000 A 
ATOM     18  C   UNL     1       6.100   6.518  17.359  0.00  0.00    +0.000 A 
ATOM     19  O   UNL     1       6.979   5.861  18.159  0.00  0.00    +0.000 OA
ATOM     20  N   UNL     1       7.984   6.730  18.549  0.00  0.00    +0.000 NA
ENDBRANCH  14  18
ENDBRANCH   1  14
TORSDOF 3
ENDMDL
MODEL 9
REMARK VINA RESULT:      -6.6      1.797      3.571
REMARK  Name = 
REMARK  4 active torsions:
REMARK  status: ('A' for Active; 'I' for Inactive)
REMARK    1  A    between atoms: C_1  and  C_2
REMARK    2  A    between atoms: C_4  and  C_5
REMARK    3  A    between atoms: C_5  and  N_6
REMARK    4  A    between atoms: C_8  and  C_9
REMARK                            x       y       z     vdW  Elec       q    Type
REMARK                         _______ _______ _______ _____ _____    ______ ____
ROOT
ATOM      1  N   UNL     1       3.883   5.826  18.025  0.00  0.00    +0.000 N 
ATOM      2  C   UNL     1       4.077   4.453  17.949  0.00  0.00    +0.000 A 
ATOM      3  C   UNL     1       3.440   3.515  18.660  0.00  0.00    +0.000 A 
ATOM      4  C   UNL     1       2.412   3.970  19.619  0.00  0.00    +0.000 A 
ATOM      5  O   UNL     1       1.721   3.177  20.249  0.00  0.00    +0.000 OA
ATOM      6  C   UNL     1       2.231   5.436  19.784  0.00  0.00    +0.000 A 
ATOM      7  C   UNL     1       1.334   5.888  20.764  0.00  0.00    +0.000 A 
ATOM      8  C   UNL     1       1.125   7.251  20.938  0.00  0.00    +0.000 A 
ATOM      9  C   UNL     1       1.789   8.154  20.116  0.00  0.00    +0.000 A 
ATOM     10  C   UNL     1       2.679   7.702  19.133  0.00  0.00    +0.000 A 
ATOM     11  C   UNL     1       2.942   6.334  18.954  0.00  0.00    +0.000 A 
ENDROOT
BRANCH   3  12
ATOM     12  C   UNL     1       3.703   2.135  18.485  0.00  0.00    +0.000 C 
ATOM     13  N   UNL     1       3.913   0.996  18.411  0.00  0.00    +0.000 NA
ENDBRANCH   3  12
BRANCH   1  14
ATOM     14  C   UNL     1       4.464   6.721  16.994  0.00  0.00    +0.000 C 
BRANCH  14  18
ATOM     15  C   UNL     1       6.780   3.947  13.389  0.00  0.00    +0.000 C 
ATOM     16  C   UNL     1       6.419   4.856  14.499  0.00  0.00    +0.000 A 
ATOM     17  C   UNL     1       5.130   5.244  14.916  0.00  0.00    +0.000 A 
ATOM     18  C   UNL     1       5.350   6.039  16.016  0.00  0.00    +0.000 A 
ATOM     19  O   UNL     1       6.689   6.151  16.221  0.00  0.00    +0.000 OA
ATOM     20  N   UNL     1       7.365   5.410  15.268  0.00  0.00    +0.000 NA
ENDBRANCH  14  18
ENDBRANCH   1  14
TORSDOF 3
ENDMDL
