MODEL 1
REMARK VINA RESULT:      -6.9      0.000      0.000
REMARK  Name = 
REMARK  11 active torsions:
REMARK  status: ('A' for Active; 'I' for Inactive)
REMARK    1  A    between atoms: C_1  and  N_2
REMARK    2  A    between atoms: C_6  and  N_7
REMARK    3  A    between atoms: N_7  and  C_8
REMARK    4  A    between atoms: C_9  and  C_11
REMARK    5  A    between atoms: C_11  and  C_12
REMARK    6  A    between atoms: C_12  and  N_13
REMARK    7  A    between atoms: C_12  and  C_14
REMARK    8  A    between atoms: C_14  and  C_15
REMARK    9  A    between atoms: C_15  and  C_16
REMARK   10  A    between atoms: C_16  and  C_17
REMARK   11  A    between atoms: C_17  and  N_18
REMARK                            x       y       z     vdW  Elec       q    Type
REMARK                         _______ _______ _______ _____ _____    ______ ____
ROOT
ATOM      1  C   UNL     1       0.195  10.696  18.345  0.00  0.00    +0.000 C 
ATOM      2  N   UNL     1       0.477   9.790  19.459  0.00  0.00    +0.000 N 
ATOM      3  C   UNL     1       1.386   8.767  19.253  0.00  0.00    +0.000 C 
ATOM      4  N   UNL     1       2.244   8.839  18.307  0.00  0.00    +0.000 NA
ATOM      5  C   UNL     1       3.005   7.662  17.910  0.00  0.00    +0.000 C 
ATOM      6  C   UNL     1       3.231   6.568  18.942  0.00  0.00    +0.000 C 
ATOM      7  C   UNL     1       2.141   6.552  20.004  0.00  0.00    +0.000 C 
ATOM      8  O   UNL     1       2.050   5.676  20.867  0.00  0.00    +0.000 OA
ATOM      9  N   UNL     1       1.320   7.643  20.042  0.00  0.00    +0.000 N 
ATOM     10  C   UNL     1      -0.076  10.081  20.716  0.00  0.00    +0.000 A 
ATOM     11  C   UNL     1      -0.841  11.220  20.968  0.00  0.00    +0.000 A 
ATOM     12  C   UNL     1      -1.272  11.506  22.265  0.00  0.00    +0.000 A 
ATOM     13  C   UNL     1      -0.957  10.648  23.298  0.00  0.00    +0.000 A 
ATOM     14  C   UNL     1      -0.236   9.509  22.987  0.00  0.00    +0.000 A 
ATOM     15  N   UNL     1       0.184   9.222  21.737  0.00  0.00    +0.000 NA
ATOM     16  H   UNL     1       0.691   7.705  20.837  0.00  0.00    +0.000 HD
ENDROOT
BRANCH   6  17
ATOM     17  N   UNL     1       3.486   5.213  18.353  0.00  0.00    +0.000 N 
ATOM     18  C   UNL     1       2.424   4.498  17.652  0.00  0.00    +0.000 C 
ATOM     19  C   UNL     1       4.634   4.453  18.586  0.00  0.00    +0.000 C 
ATOM     20  O   UNL     1       4.756   3.304  18.160  0.00  0.00    +0.000 OA
BRANCH  19  21
ATOM     21  C   UNL     1       5.746   5.129  19.357  0.00  0.00    +0.000 C 
BRANCH  21  22
ATOM     22  C   UNL     1       6.975   5.517  18.522  0.00  0.00    +0.000 C 
BRANCH  22  23
ATOM     23  N   UNL     1       7.637   4.332  17.953  0.00  0.00    +0.000 NA
ATOM     24  H   UNL     1       8.573   4.577  17.633  0.00  0.00    +0.000 HD
ATOM     25  H   UNL     1       7.123   4.082  17.098  0.00  0.00    +0.000 HD
ENDBRANCH  22  23
BRANCH  22  26
ATOM     26  C   UNL     1       6.568   6.438  17.354  0.00  0.00    +0.000 C 
BRANCH  26  27
ATOM     27  C   UNL     1       6.933   5.859  15.981  0.00  0.00    +0.000 C 
BRANCH  27  28
ATOM     28  C   UNL     1       5.696   5.465  15.176  0.00  0.00    +0.000 C 
BRANCH  28  29
ATOM     29  C   UNL     1       5.898   4.092  14.534  0.00  0.00    +0.000 C 
BRANCH  29  30
ATOM     30  N   UNL     1       6.097   3.075  15.558  0.00  0.00    +0.000 NA
ATOM     31  H   UNL     1       6.819   2.423  15.251  0.00  0.00    +0.000 HD
ATOM     32  H   UNL     1       5.243   2.528  15.656  0.00  0.00    +0.000 HD
ENDBRANCH  29  30
ENDBRANCH  28  29
ENDBRANCH  27  28
ENDBRANCH  26  27
ENDBRANCH  22  26
ENDBRANCH  21  22
ENDBRANCH  19  21
ENDBRANCH   6  17
TORSDOF 9
ENDMDL
MODEL 2
REMARK VINA RESULT:      -6.7      3.451      8.033
REMARK  Name = 
REMARK  11 active torsions:
REMARK  status: ('A' for Active; 'I' for Inactive)
REMARK    1  A    between atoms: C_1  and  N_2
REMARK    2  A    between atoms: C_6  and  N_7
REMARK    3  A    between atoms: N_7  and  C_8
REMARK    4  A    between atoms: C_9  and  C_11
REMARK    5  A    between atoms: C_11  and  C_12
REMARK    6  A    between atoms: C_12  and  N_13
REMARK    7  A    between atoms: C_12  and  C_14
REMARK    8  A    between atoms: C_14  and  C_15
REMARK    9  A    between atoms: C_15  and  C_16
REMARK   10  A    between atoms: C_16  and  C_17
REMARK   11  A    between atoms: C_17  and  N_18
REMARK                            x       y       z     vdW  Elec       q    Type
REMARK                         _______ _______ _______ _____ _____    ______ ____
ROOT
ATOM      1  C   UNL     1       4.290   6.444  17.440  0.00  0.00    +0.000 C 
ATOM      2  N   UNL     1       3.323   6.452  18.538  0.00  0.00    +0.000 N 
ATOM      3  C   UNL     1       2.465   7.533  18.643  0.00  0.00    +0.000 C 
ATOM      4  N   UNL     1       2.229   8.278  17.630  0.00  0.00    +0.000 NA
ATOM      5  C   UNL     1       1.563   9.563  17.797  0.00  0.00    +0.000 C 
ATOM      6  C   UNL     1       0.649   9.749  18.998  0.00  0.00    +0.000 C 
ATOM      7  C   UNL     1       1.034   8.838  20.155  0.00  0.00    +0.000 C 
ATOM      8  O   UNL     1       0.512   8.904  21.271  0.00  0.00    +0.000 OA
ATOM      9  N   UNL     1       1.913   7.834  19.866  0.00  0.00    +0.000 N 
ATOM     10  C   UNL     1       3.214   5.308  19.345  0.00  0.00    +0.000 A 
ATOM     11  C   UNL     1       3.949   4.144  19.119  0.00  0.00    +0.000 A 
ATOM     12  C   UNL     1       3.716   3.004  19.892  0.00  0.00    +0.000 A 
ATOM     13  C   UNL     1       2.771   3.037  20.896  0.00  0.00    +0.000 A 
ATOM     14  C   UNL     1       2.103   4.229  21.108  0.00  0.00    +0.000 A 
ATOM     15  N   UNL     1       2.321   5.337  20.368  0.00  0.00    +0.000 NA
ATOM     16  H   UNL     1       2.058   7.139  20.592  0.00  0.00    +0.000 HD
ENDROOT
BRANCH   6  17
ATOM     17  N   UNL     1       0.473  11.178  19.419  0.00  0.00    +0.000 N 
ATOM     18  C   UNL     1       1.612  11.953  19.899  0.00  0.00    +0.000 C 
ATOM     19  C   UNL     1      -0.762  11.806  19.584  0.00  0.00    +0.000 C 
ATOM     20  O   UNL     1      -0.860  12.951  20.026  0.00  0.00    +0.000 OA
BRANCH  19  21
ATOM     21  C   UNL     1      -1.982  11.022  19.153  0.00  0.00    +0.000 C 
BRANCH  21  22
ATOM     22  C   UNL     1      -2.679  11.547  17.888  0.00  0.00    +0.000 C 
BRANCH  22  23
ATOM     23  N   UNL     1      -1.717  12.151  16.953  0.00  0.00    +0.000 NA
ATOM     24  H   UNL     1      -0.786  12.160  17.368  0.00  0.00    +0.000 HD
ATOM     25  H   UNL     1      -1.973  13.142  16.857  0.00  0.00    +0.000 HD
ENDBRANCH  22  23
BRANCH  22  26
ATOM     26  C   UNL     1      -3.400  10.400  17.151  0.00  0.00    +0.000 C 
BRANCH  26  27
ATOM     27  C   UNL     1      -2.696   9.990  15.851  0.00  0.00    +0.000 C 
BRANCH  27  28
ATOM     28  C   UNL     1      -3.597  10.164  14.629  0.00  0.00    +0.000 C 
BRANCH  28  29
ATOM     29  C   UNL     1      -2.862   9.720  13.364  0.00  0.00    +0.000 C 
BRANCH  29  30
ATOM     30  N   UNL     1      -3.756   9.758  12.214  0.00  0.00    +0.000 NA
ATOM     31  H   UNL     1      -4.372  10.567  12.292  0.00  0.00    +0.000 HD
ATOM     32  H   UNL     1      -4.359   8.937  12.233  0.00  0.00    +0.000 HD
ENDBRANCH  29  30
ENDBRANCH  28  29
ENDBRANCH  27  28
ENDBRANCH  26  27
ENDBRANCH  22  26
ENDBRANCH  21  22
ENDBRANCH  19  21
ENDBRANCH   6  17
TORSDOF 9
ENDMDL
MODEL 3
REMARK VINA RESULT:      -6.4      2.142      4.152
REMARK  Name = 
REMARK  11 active torsions:
REMARK  status: ('A' for Active; 'I' for Inactive)
REMARK    1  A    between atoms: C_1  and  N_2
REMARK    2  A    between atoms: C_6  and  N_7
REMARK    3  A    between atoms: N_7  and  C_8
REMARK    4  A    between atoms: C_9  and  C_11
REMARK    5  A    between atoms: C_11  and  C_12
REMARK    6  A    between atoms: C_12  and  N_13
REMARK    7  A    between atoms: C_12  and  C_14
REMARK    8  A    between atoms: C_14  and  C_15
REMARK    9  A    between atoms: C_15  and  C_16
REMARK   10  A    between atoms: C_16  and  C_17
REMARK   11  A    between atoms: C_17  and  N_18
REMARK                            x       y       z     vdW  Elec       q    Type
REMARK                         _______ _______ _______ _____ _____    ______ ____
ROOT
ATOM      1  C   UNL     1       1.055   8.968  22.248  0.00  0.00    +0.000 C 
ATOM      2  N   UNL     1       1.026   9.163  20.798  0.00  0.00    +0.000 N 
ATOM      3  C   UNL     1       1.673   8.234  20.003  0.00  0.00    +0.000 C 
ATOM      4  N   UNL     1       1.924   7.060  20.444  0.00  0.00    +0.000 NA
ATOM      5  C   UNL     1       2.841   6.182  19.730  0.00  0.00    +0.000 C 
ATOM      6  C   UNL     1       3.018   6.391  18.234  0.00  0.00    +0.000 C 
ATOM      7  C   UNL     1       2.723   7.825  17.819  0.00  0.00    +0.000 C 
ATOM      8  O   UNL     1       2.921   8.254  16.679  0.00  0.00    +0.000 OA
ATOM      9  N   UNL     1       2.096   8.605  18.748  0.00  0.00    +0.000 N 
ATOM     10  C   UNL     1       0.232  10.197  20.277  0.00  0.00    +0.000 A 
ATOM     11  C   UNL     1      -0.571  11.016  21.070  0.00  0.00    +0.000 A 
ATOM     12  C   UNL     1      -1.420  11.956  20.480  0.00  0.00    +0.000 A 
ATOM     13  C   UNL     1      -1.447  12.088  19.107  0.00  0.00    +0.000 A 
ATOM     14  C   UNL     1      -0.598  11.283  18.369  0.00  0.00    +0.000 A 
ATOM     15  N   UNL     1       0.227  10.373  18.929  0.00  0.00    +0.000 NA
ATOM     16  H   UNL     1       1.766   9.510  18.427  0.00  0.00    +0.000 HD
ENDROOT
BRANCH   6  17
ATOM     17  N   UNL     1       4.326   5.889  17.696  0.00  0.00    +0.000 N 
ATOM     18  C   UNL     1       5.486   6.772  17.627  0.00  0.00    +0.000 C 
ATOM     19  C   UNL     1       4.496   4.663  17.051  0.00  0.00    +0.000 C 
ATOM     20  O   UNL     1       5.568   4.337  16.538  0.00  0.00    +0.000 OA
BRANCH  19  21
ATOM     21  C   UNL     1       3.305   3.731  17.045  0.00  0.00    +0.000 C 
BRANCH  21  22
ATOM     22  C   UNL     1       3.480   2.447  17.869  0.00  0.00    +0.000 C 
BRANCH  22  23
ATOM     23  N   UNL     1       4.399   2.651  19.000  0.00  0.00    +0.000 NA
ATOM     24  H   UNL     1       4.356   1.852  19.631  0.00  0.00    +0.000 HD
ATOM     25  H   UNL     1       4.031   3.441  19.547  0.00  0.00    +0.000 HD
ENDBRANCH  22  23
BRANCH  22  26
ATOM     26  C   UNL     1       2.125   1.977  18.438  0.00  0.00    +0.000 C 
BRANCH  26  27
ATOM     27  C   UNL     1       1.330   3.111  19.098  0.00  0.00    +0.000 C 
BRANCH  27  28
ATOM     28  C   UNL     1       0.915   2.766  20.527  0.00  0.00    +0.000 C 
BRANCH  28  29
ATOM     29  C   UNL     1       1.903   3.372  21.524  0.00  0.00    +0.000 C 
BRANCH  29  30
ATOM     30  N   UNL     1       2.928   2.400  21.882  0.00  0.00    +0.000 NA
ATOM     31  H   UNL     1       2.624   1.469  21.602  0.00  0.00    +0.000 HD
ATOM     32  H   UNL     1       3.024   2.375  22.896  0.00  0.00    +0.000 HD
ENDBRANCH  29  30
ENDBRANCH  28  29
ENDBRANCH  27  28
ENDBRANCH  26  27
ENDBRANCH  22  26
ENDBRANCH  21  22
ENDBRANCH  19  21
ENDBRANCH   6  17
TORSDOF 9
ENDMDL
MODEL 4
REMARK VINA RESULT:      -6.3      3.550      8.814
REMARK  Name = 
REMARK  11 active torsions:
REMARK  status: ('A' for Active; 'I' for Inactive)
REMARK    1  A    between atoms: C_1  and  N_2
REMARK    2  A    between atoms: C_6  and  N_7
REMARK    3  A    between atoms: N_7  and  C_8
REMARK    4  A    between atoms: C_9  and  C_11
REMARK    5  A    between atoms: C_11  and  C_12
REMARK    6  A    between atoms: C_12  and  N_13
REMARK    7  A    between atoms: C_12  and  C_14
REMARK    8  A    between atoms: C_14  and  C_15
REMARK    9  A    between atoms: C_15  and  C_16
REMARK   10  A    between atoms: C_16  and  C_17
REMARK   11  A    between atoms: C_17  and  N_18
REMARK                            x       y       z     vdW  Elec       q    Type
REMARK                         _______ _______ _______ _____ _____    ______ ____
ROOT
ATOM      1  C   UNL     1       4.188   6.365  17.565  0.00  0.00    +0.000 C 
ATOM      2  N   UNL     1       3.273   6.366  18.707  0.00  0.00    +0.000 N 
ATOM      3  C   UNL     1       2.449   7.464  18.881  0.00  0.00    +0.000 C 
ATOM      4  N   UNL     1       2.184   8.241  17.900  0.00  0.00    +0.000 NA
ATOM      5  C   UNL     1       1.560   9.537  18.132  0.00  0.00    +0.000 C 
ATOM      6  C   UNL     1       0.708   9.712  19.379  0.00  0.00    +0.000 C 
ATOM      7  C   UNL     1       1.124   8.762  20.493  0.00  0.00    +0.000 C 
ATOM      8  O   UNL     1       0.657   8.811  21.634  0.00  0.00    +0.000 OA
ATOM      9  N   UNL     1       1.963   7.746  20.136  0.00  0.00    +0.000 N 
ATOM     10  C   UNL     1       3.174   5.204  19.489  0.00  0.00    +0.000 A 
ATOM     11  C   UNL     1       3.868   4.029  19.199  0.00  0.00    +0.000 A 
ATOM     12  C   UNL     1       3.643   2.874  19.952  0.00  0.00    +0.000 A 
ATOM     13  C   UNL     1       2.747   2.903  21.000  0.00  0.00    +0.000 A 
ATOM     14  C   UNL     1       2.120   4.105  21.274  0.00  0.00    +0.000 A 
ATOM     15  N   UNL     1       2.331   5.227  20.554  0.00  0.00    +0.000 NA
ATOM     16  H   UNL     1       2.124   7.028  20.836  0.00  0.00    +0.000 HD
ENDROOT
BRANCH   6  17
ATOM     17  N   UNL     1       0.588  11.133  19.845  0.00  0.00    +0.000 N 
ATOM     18  C   UNL     1       1.728  11.812  20.452  0.00  0.00    +0.000 C 
ATOM     19  C   UNL     1      -0.614  11.838  19.932  0.00  0.00    +0.000 C 
ATOM     20  O   UNL     1      -0.676  12.969  20.413  0.00  0.00    +0.000 OA
BRANCH  19  21
ATOM     21  C   UNL     1      -1.840  11.154  19.366  0.00  0.00    +0.000 C 
BRANCH  21  22
ATOM     22  C   UNL     1      -2.459  11.841  18.140  0.00  0.00    +0.000 C 
BRANCH  22  23
ATOM     23  N   UNL     1      -1.427  12.422  17.267  0.00  0.00    +0.000 NA
ATOM     24  H   UNL     1      -0.667  11.755  17.134  0.00  0.00    +0.000 HD
ATOM     25  H   UNL     1      -1.003  13.205  17.783  0.00  0.00    +0.000 HD
ENDBRANCH  22  23
BRANCH  22  26
ATOM     26  C   UNL     1      -3.271  10.831  17.304  0.00  0.00    +0.000 C 
BRANCH  26  27
ATOM     27  C   UNL     1      -4.612  11.398  16.819  0.00  0.00    +0.000 C 
BRANCH  27  28
ATOM     28  C   UNL     1      -5.730  11.182  17.838  0.00  0.00    +0.000 C 
BRANCH  28  29
ATOM     29  C   UNL     1      -6.808  12.253  17.674  0.00  0.00    +0.000 C 
BRANCH  29  30
ATOM     30  N   UNL     1      -6.230  13.482  17.145  0.00  0.00    +0.000 NA
ATOM     31  H   UNL     1      -5.503  13.250  16.468  0.00  0.00    +0.000 HD
ATOM     32  H   UNL     1      -5.765  13.984  17.900  0.00  0.00    +0.000 HD
ENDBRANCH  29  30
ENDBRANCH  28  29
ENDBRANCH  27  28
ENDBRANCH  26  27
ENDBRANCH  22  26
ENDBRANCH  21  22
ENDBRANCH  19  21
ENDBRANCH   6  17
TORSDOF 9
ENDMDL
MODEL 5
REMARK VINA RESULT:      -6.3      1.571      2.375
REMARK  Name = 
REMARK  11 active torsions:
REMARK  status: ('A' for Active; 'I' for Inactive)
REMARK    1  A    between atoms: C_1  and  N_2
REMARK    2  A    between atoms: C_6  and  N_7
REMARK    3  A    between atoms: N_7  and  C_8
REMARK    4  A    between atoms: C_9  and  C_11
REMARK    5  A    between atoms: C_11  and  C_12
REMARK    6  A    between atoms: C_12  and  N_13
REMARK    7  A    between atoms: C_12  and  C_14
REMARK    8  A    between atoms: C_14  and  C_15
REMARK    9  A    between atoms: C_15  and  C_16
REMARK   10  A    between atoms: C_16  and  C_17
REMARK   11  A    between atoms: C_17  and  N_18
REMARK                            x       y       z     vdW  Elec       q    Type
REMARK                         _______ _______ _______ _____ _____    ______ ____
ROOT
ATOM      1  C   UNL     1       0.377  10.513  18.233  0.00  0.00    +0.000 C 
ATOM      2  N   UNL     1       0.717   9.604  19.327  0.00  0.00    +0.000 N 
ATOM      3  C   UNL     1       1.661   8.621  19.089  0.00  0.00    +0.000 C 
ATOM      4  N   UNL     1       2.496   8.739  18.127  0.00  0.00    +0.000 NA
ATOM      5  C   UNL     1       3.295   7.598  17.697  0.00  0.00    +0.000 C 
ATOM      6  C   UNL     1       3.585   6.501  18.709  0.00  0.00    +0.000 C 
ATOM      7  C   UNL     1       2.518   6.428  19.793  0.00  0.00    +0.000 C 
ATOM      8  O   UNL     1       2.480   5.537  20.645  0.00  0.00    +0.000 OA
ATOM      9  N   UNL     1       1.656   7.484  19.863  0.00  0.00    +0.000 N 
ATOM     10  C   UNL     1       0.179   9.855  20.600  0.00  0.00    +0.000 A 
ATOM     11  C   UNL     1      -0.624  10.960  20.882  0.00  0.00    +0.000 A 
ATOM     12  C   UNL     1      -1.040  11.211  22.192  0.00  0.00    +0.000 A 
ATOM     13  C   UNL     1      -0.670  10.352  23.206  0.00  0.00    +0.000 A 
ATOM     14  C   UNL     1       0.089   9.247  22.864  0.00  0.00    +0.000 A 
ATOM     15  N   UNL     1       0.494   8.993  21.602  0.00  0.00    +0.000 NA
ATOM     16  H   UNL     1       1.042   7.511  20.671  0.00  0.00    +0.000 HD
ENDROOT
BRANCH   6  17
ATOM     17  N   UNL     1       3.881   5.165  18.096  0.00  0.00    +0.000 N 
ATOM     18  C   UNL     1       2.833   4.417  17.408  0.00  0.00    +0.000 C 
ATOM     19  C   UNL     1       5.064   4.450  18.293  0.00  0.00    +0.000 C 
ATOM     20  O   UNL     1       5.222   3.312  17.849  0.00  0.00    +0.000 OA
BRANCH  19  21
ATOM     21  C   UNL     1       6.164   5.160  19.050  0.00  0.00    +0.000 C 
BRANCH  21  22
ATOM     22  C   UNL     1       7.445   5.418  18.243  0.00  0.00    +0.000 C 
BRANCH  22  23
ATOM     23  N   UNL     1       7.993   4.172  17.685  0.00  0.00    +0.000 NA
ATOM     24  H   UNL     1       8.039   3.457  18.410  0.00  0.00    +0.000 HD
ATOM     25  H   UNL     1       8.974   4.360  17.437  0.00  0.00    +0.000 HD
ENDBRANCH  22  23
BRANCH  22  26
ATOM     26  C   UNL     1       7.163   6.379  17.069  0.00  0.00    +0.000 C 
BRANCH  26  27
ATOM     27  C   UNL     1       7.381   7.852  17.438  0.00  0.00    +0.000 C 
BRANCH  27  28
ATOM     28  C   UNL     1       8.388   8.017  18.575  0.00  0.00    +0.000 C 
BRANCH  28  29
ATOM     29  C   UNL     1       8.896   9.459  18.625  0.00  0.00    +0.000 C 
BRANCH  29  30
ATOM     30  N   UNL     1       8.030  10.333  17.844  0.00  0.00    +0.000 NA
ATOM     31  H   UNL     1       7.356   9.767  17.328  0.00  0.00    +0.000 HD
ATOM     32  H   UNL     1       8.589  10.819  17.145  0.00  0.00    +0.000 HD
ENDBRANCH  29  30
ENDBRANCH  28  29
ENDBRANCH  27  28
ENDBRANCH  26  27
ENDBRANCH  22  26
ENDBRANCH  21  22
ENDBRANCH  19  21
ENDBRANCH   6  17
TORSDOF 9
ENDMDL
MODEL 6
REMARK VINA RESULT:      -6.2      3.133      8.054
REMARK  Name = 
REMARK  11 active torsions:
REMARK  status: ('A' for Active; 'I' for Inactive)
REMARK    1  A    between atoms: C_1  and  N_2
REMARK    2  A    between atoms: C_6  and  N_7
REMARK    3  A    between atoms: N_7  and  C_8
REMARK    4  A    between atoms: C_9  and  C_11
REMARK    5  A    between atoms: C_11  and  C_12
REMARK    6  A    between atoms: C_12  and  N_13
REMARK    7  A    between atoms: C_12  and  C_14
REMARK    8  A    between atoms: C_14  and  C_15
REMARK    9  A    between atoms: C_15  and  C_16
REMARK   10  A    between atoms: C_16  and  C_17
REMARK   11  A    between atoms: C_17  and  N_18
REMARK                            x       y       z     vdW  Elec       q    Type
REMARK                         _______ _______ _______ _____ _____    ______ ____
ROOT
ATOM      1  C   UNL     1       4.257   6.239  17.689  0.00  0.00    +0.000 C 
ATOM      2  N   UNL     1       3.313   6.275  18.806  0.00  0.00    +0.000 N 
ATOM      3  C   UNL     1       2.514   7.396  18.948  0.00  0.00    +0.000 C 
ATOM      4  N   UNL     1       2.296   8.170  17.954  0.00  0.00    +0.000 NA
ATOM      5  C   UNL     1       1.700   9.485  18.157  0.00  0.00    +0.000 C 
ATOM      6  C   UNL     1       0.820   9.693  19.380  0.00  0.00    +0.000 C 
ATOM      7  C   UNL     1       1.181   8.743  20.512  0.00  0.00    +0.000 C 
ATOM      8  O   UNL     1       0.685   8.815  21.640  0.00  0.00    +0.000 OA
ATOM      9  N   UNL     1       2.002   7.702  20.187  0.00  0.00    +0.000 N 
ATOM     10  C   UNL     1       3.163   5.123  19.594  0.00  0.00    +0.000 A 
ATOM     11  C   UNL     1       3.832   3.928  19.333  0.00  0.00    +0.000 A 
ATOM     12  C   UNL     1       3.557   2.787  20.091  0.00  0.00    +0.000 A 
ATOM     13  C   UNL     1       2.635   2.848  21.114  0.00  0.00    +0.000 A 
ATOM     14  C   UNL     1       2.032   4.069  21.360  0.00  0.00    +0.000 A 
ATOM     15  N   UNL     1       2.292   5.178  20.637  0.00  0.00    +0.000 NA
ATOM     16  H   UNL     1       2.126   6.987  20.897  0.00  0.00    +0.000 HD
ENDROOT
BRANCH   6  17
ATOM     17  N   UNL     1       0.726  11.121  19.829  0.00  0.00    +0.000 N 
ATOM     18  C   UNL     1       1.934  11.896  20.095  0.00  0.00    +0.000 C 
ATOM     19  C   UNL     1      -0.458  11.750  20.220  0.00  0.00    +0.000 C 
ATOM     20  O   UNL     1      -0.471  12.894  20.676  0.00  0.00    +0.000 OA
BRANCH  19  21
ATOM     21  C   UNL     1      -1.737  10.967  20.018  0.00  0.00    +0.000 C 
BRANCH  21  22
ATOM     22  C   UNL     1      -2.728  11.587  19.022  0.00  0.00    +0.000 C 
BRANCH  22  23
ATOM     23  N   UNL     1      -3.081  12.965  19.398  0.00  0.00    +0.000 NA
ATOM     24  H   UNL     1      -3.909  12.962  19.993  0.00  0.00    +0.000 HD
ATOM     25  H   UNL     1      -3.376  13.445  18.537  0.00  0.00    +0.000 HD
ENDBRANCH  22  23
BRANCH  22  26
ATOM     26  C   UNL     1      -2.120  11.624  17.604  0.00  0.00    +0.000 C 
BRANCH  26  27
ATOM     27  C   UNL     1      -1.863  10.226  17.028  0.00  0.00    +0.000 C 
BRANCH  27  28
ATOM     28  C   UNL     1      -3.055   9.706  16.226  0.00  0.00    +0.000 C 
BRANCH  28  29
ATOM     29  C   UNL     1      -2.937  10.139  14.765  0.00  0.00    +0.000 C 
BRANCH  29  30
ATOM     30  N   UNL     1      -4.232  10.061  14.103  0.00  0.00    +0.000 NA
ATOM     31  H   UNL     1      -4.926   9.702  14.759  0.00  0.00    +0.000 HD
ATOM     32  H   UNL     1      -4.179   9.382  13.345  0.00  0.00    +0.000 HD
ENDBRANCH  29  30
ENDBRANCH  28  29
ENDBRANCH  27  28
ENDBRANCH  26  27
ENDBRANCH  22  26
ENDBRANCH  21  22
ENDBRANCH  19  21
ENDBRANCH   6  17
TORSDOF 9
ENDMDL
MODEL 7
REMARK VINA RESULT:      -6.1      3.406      8.633
REMARK  Name = 
REMARK  11 active torsions:
REMARK  status: ('A' for Active; 'I' for Inactive)
REMARK    1  A    between atoms: C_1  and  N_2
REMARK    2  A    between atoms: C_6  and  N_7
REMARK    3  A    between atoms: N_7  and  C_8
REMARK    4  A    between atoms: C_9  and  C_11
REMARK    5  A    between atoms: C_11  and  C_12
REMARK    6  A    between atoms: C_12  and  N_13
REMARK    7  A    between atoms: C_12  and  C_14
REMARK    8  A    between atoms: C_14  and  C_15
REMARK    9  A    between atoms: C_15  and  C_16
REMARK   10  A    between atoms: C_16  and  C_17
REMARK   11  A    between atoms: C_17  and  N_18
REMARK                            x       y       z     vdW  Elec       q    Type
REMARK                         _______ _______ _______ _____ _____    ______ ____
ROOT
ATOM      1  C   UNL     1       1.988   5.051  20.758  0.00  0.00    +0.000 C 
ATOM      2  N   UNL     1       2.583   5.985  19.802  0.00  0.00    +0.000 N 
ATOM      3  C   UNL     1       2.081   7.272  19.749  0.00  0.00    +0.000 C 
ATOM      4  N   UNL     1       1.433   7.760  20.738  0.00  0.00    +0.000 NA
ATOM      5  C   UNL     1       0.667   8.990  20.586  0.00  0.00    +0.000 C 
ATOM      6  C   UNL     1       1.096   9.976  19.511  0.00  0.00    +0.000 C 
ATOM      7  C   UNL     1       1.832   9.290  18.369  0.00  0.00    +0.000 C 
ATOM      8  O   UNL     1       2.162   9.871  17.331  0.00  0.00    +0.000 OA
ATOM      9  N   UNL     1       2.235   8.006  18.596  0.00  0.00    +0.000 N 
ATOM     10  C   UNL     1       3.721   5.577  19.087  0.00  0.00    +0.000 A 
ATOM     11  C   UNL     1       4.341   4.343  19.280  0.00  0.00    +0.000 A 
ATOM     12  C   UNL     1       5.532   4.041  18.615  0.00  0.00    +0.000 A 
ATOM     13  C   UNL     1       6.084   4.960  17.747  0.00  0.00    +0.000 A 
ATOM     14  C   UNL     1       5.405   6.150  17.557  0.00  0.00    +0.000 A 
ATOM     15  N   UNL     1       4.254   6.451  18.193  0.00  0.00    +0.000 NA
ATOM     16  H   UNL     1       2.851   7.597  17.900  0.00  0.00    +0.000 HD
ENDROOT
BRANCH   6  17
ATOM     17  N   UNL     1      -0.003  10.878  19.033  0.00  0.00    +0.000 N 
ATOM     18  C   UNL     1      -1.163  10.328  18.338  0.00  0.00    +0.000 C 
ATOM     19  C   UNL     1       0.069  12.272  19.018  0.00  0.00    +0.000 C 
ATOM     20  O   UNL     1      -0.819  12.968  18.525  0.00  0.00    +0.000 OA
BRANCH  19  21
ATOM     21  C   UNL     1       1.281  12.893  19.678  0.00  0.00    +0.000 C 
BRANCH  21  22
ATOM     22  C   UNL     1       2.376  13.366  18.710  0.00  0.00    +0.000 C 
BRANCH  22  23
ATOM     23  N   UNL     1       2.193  12.795  17.366  0.00  0.00    +0.000 NA
ATOM     24  H   UNL     1       2.725  11.930  17.281  0.00  0.00    +0.000 HD
ATOM     25  H   UNL     1       2.636  13.444  16.702  0.00  0.00    +0.000 HD
ENDBRANCH  22  23
BRANCH  22  26
ATOM     26  C   UNL     1       2.356  14.903  18.578  0.00  0.00    +0.000 C 
BRANCH  26  27
ATOM     27  C   UNL     1       1.250  15.560  19.414  0.00  0.00    +0.000 C 
BRANCH  27  28
ATOM     28  C   UNL     1       0.382  16.502  18.580  0.00  0.00    +0.000 C 
BRANCH  28  29
ATOM     29  C   UNL     1      -0.941  16.772  19.296  0.00  0.00    +0.000 C 
BRANCH  29  30
ATOM     30  N   UNL     1      -1.496  15.535  19.829  0.00  0.00    +0.000 NA
ATOM     31  H   UNL     1      -0.901  14.753  19.557  0.00  0.00    +0.000 HD
ATOM     32  H   UNL     1      -2.405  15.365  19.400  0.00  0.00    +0.000 HD
ENDBRANCH  29  30
ENDBRANCH  28  29
ENDBRANCH  27  28
ENDBRANCH  26  27
ENDBRANCH  22  26
ENDBRANCH  21  22
ENDBRANCH  19  21
ENDBRANCH   6  17
TORSDOF 9
ENDMDL
MODEL 8
REMARK VINA RESULT:      -6.0      3.526      8.863
REMARK  Name = 
REMARK  11 active torsions:
REMARK  status: ('A' for Active; 'I' for Inactive)
REMARK    1  A    between atoms: C_1  and  N_2
REMARK    2  A    between atoms: C_6  and  N_7
REMARK    3  A    between atoms: N_7  and  C_8
REMARK    4  A    between atoms: C_9  and  C_11
REMARK    5  A    between atoms: C_11  and  C_12
REMARK    6  A    between atoms: C_12  and  N_13
REMARK    7  A    between atoms: C_12  and  C_14
REMARK    8  A    between atoms: C_14  and  C_15
REMARK    9  A    between atoms: C_15  and  C_16
REMARK   10  A    between atoms: C_16  and  C_17
REMARK   11  A    between atoms: C_17  and  N_18
REMARK                            x       y       z     vdW  Elec       q    Type
REMARK                         _______ _______ _______ _____ _____    ______ ____
ROOT
ATOM      1  C   UNL     1       4.478   6.300  17.730  0.00  0.00    +0.000 C 
ATOM      2  N   UNL     1       3.469   6.276  18.790  0.00  0.00    +0.000 N 
ATOM      3  C   UNL     1       2.592   7.342  18.879  0.00  0.00    +0.000 C 
ATOM      4  N   UNL     1       2.383   8.100  17.870  0.00  0.00    +0.000 NA
ATOM      5  C   UNL     1       1.692   9.372  18.033  0.00  0.00    +0.000 C 
ATOM      6  C   UNL     1       0.729   9.524  19.200  0.00  0.00    +0.000 C 
ATOM      7  C   UNL     1       1.083   8.599  20.356  0.00  0.00    +0.000 C 
ATOM      8  O   UNL     1       0.518   8.639  21.451  0.00  0.00    +0.000 OA
ATOM      9  N   UNL     1       1.989   7.614  20.084  0.00  0.00    +0.000 N 
ATOM     10  C   UNL     1       3.348   5.116  19.573  0.00  0.00    +0.000 A 
ATOM     11  C   UNL     1       4.108   3.967  19.357  0.00  0.00    +0.000 A 
ATOM     12  C   UNL     1       3.864   2.811  20.102  0.00  0.00    +0.000 A 
ATOM     13  C   UNL     1       2.880   2.813  21.068  0.00  0.00    +0.000 A 
ATOM     14  C   UNL     1       2.186   3.992  21.273  0.00  0.00    +0.000 A 
ATOM     15  N   UNL     1       2.415   5.115  20.561  0.00  0.00    +0.000 NA
ATOM     16  H   UNL     1       2.116   6.909  20.804  0.00  0.00    +0.000 HD
ENDROOT
BRANCH   6  17
ATOM     17  N   UNL     1       0.515  10.943  19.637  0.00  0.00    +0.000 N 
ATOM     18  C   UNL     1       1.558  11.658  20.365  0.00  0.00    +0.000 C 
ATOM     19  C   UNL     1      -0.709  11.611  19.580  0.00  0.00    +0.000 C 
ATOM     20  O   UNL     1      -0.859  12.742  20.042  0.00  0.00    +0.000 OA
BRANCH  19  21
ATOM     21  C   UNL     1      -1.842  10.888  18.884  0.00  0.00    +0.000 C 
BRANCH  21  22
ATOM     22  C   UNL     1      -2.639  11.739  17.885  0.00  0.00    +0.000 C 
BRANCH  22  23
ATOM     23  N   UNL     1      -1.999  11.760  16.561  0.00  0.00    +0.000 NA
ATOM     24  H   UNL     1      -2.473  12.429  15.955  0.00  0.00    +0.000 HD
ATOM     25  H   UNL     1      -2.172  10.843  16.129  0.00  0.00    +0.000 HD
ENDBRANCH  22  23
BRANCH  22  26
ATOM     26  C   UNL     1      -4.066  11.179  17.713  0.00  0.00    +0.000 C 
BRANCH  26  27
ATOM     27  C   UNL     1      -5.138  12.063  18.364  0.00  0.00    +0.000 C 
BRANCH  27  28
ATOM     28  C   UNL     1      -5.946  11.306  19.416  0.00  0.00    +0.000 C 
BRANCH  28  29
ATOM     29  C   UNL     1      -7.142  10.612  18.763  0.00  0.00    +0.000 C 
BRANCH  29  30
ATOM     30  N   UNL     1      -7.224   9.223  19.194  0.00  0.00    +0.000 NA
ATOM     31  H   UNL     1      -7.288   8.618  18.376  0.00  0.00    +0.000 HD
ATOM     32  H   UNL     1      -8.088   9.086  19.718  0.00  0.00    +0.000 HD
ENDBRANCH  29  30
ENDBRANCH  28  29
ENDBRANCH  27  28
ENDBRANCH  26  27
ENDBRANCH  22  26
ENDBRANCH  21  22
ENDBRANCH  19  21
ENDBRANCH   6  17
TORSDOF 9
ENDMDL
MODEL 9
REMARK VINA RESULT:      -6.0      3.711      8.540
REMARK  Name = 
REMARK  11 active torsions:
REMARK  status: ('A' for Active; 'I' for Inactive)
REMARK    1  A    between atoms: C_1  and  N_2
REMARK    2  A    between atoms: C_6  and  N_7
REMARK    3  A    between atoms: N_7  and  C_8
REMARK    4  A    between atoms: C_9  and  C_11
REMARK    5  A    between atoms: C_11  and  C_12
REMARK    6  A    between atoms: C_12  and  N_13
REMARK    7  A    between atoms: C_12  and  C_14
REMARK    8  A    between atoms: C_14  and  C_15
REMARK    9  A    between atoms: C_15  and  C_16
REMARK   10  A    between atoms: C_16  and  C_17
REMARK   11  A    between atoms: C_17  and  N_18
REMARK                            x       y       z     vdW  Elec       q    Type
REMARK                         _______ _______ _______ _____ _____    ______ ____
ROOT
ATOM      1  C   UNL     1       1.801   4.945  20.809  0.00  0.00    +0.000 C 
ATOM      2  N   UNL     1       2.424   5.851  19.844  0.00  0.00    +0.000 N 
ATOM      3  C   UNL     1       1.991   7.165  19.811  0.00  0.00    +0.000 C 
ATOM      4  N   UNL     1       1.395   7.681  20.818  0.00  0.00    +0.000 NA
ATOM      5  C   UNL     1       0.694   8.952  20.691  0.00  0.00    +0.000 C 
ATOM      6  C   UNL     1       1.150   9.920  19.610  0.00  0.00    +0.000 C 
ATOM      7  C   UNL     1       1.819   9.202  18.447  0.00  0.00    +0.000 C 
ATOM      8  O   UNL     1       2.155   9.771  17.405  0.00  0.00    +0.000 OA
ATOM      9  N   UNL     1       2.157   7.896  18.658  0.00  0.00    +0.000 N 
ATOM     10  C   UNL     1       3.520   5.387  19.099  0.00  0.00    +0.000 A 
ATOM     11  C   UNL     1       4.076   4.120  19.270  0.00  0.00    +0.000 A 
ATOM     12  C   UNL     1       5.232   3.758  18.574  0.00  0.00    +0.000 A 
ATOM     13  C   UNL     1       5.813   4.651  17.698  0.00  0.00    +0.000 A 
ATOM     14  C   UNL     1       5.195   5.877  17.531  0.00  0.00    +0.000 A 
ATOM     15  N   UNL     1       4.077   6.237  18.197  0.00  0.00    +0.000 NA
ATOM     16  H   UNL     1       2.733   7.459  17.945  0.00  0.00    +0.000 HD
ENDROOT
BRANCH   6  17
ATOM     17  N   UNL     1       0.090  10.883  19.165  0.00  0.00    +0.000 N 
ATOM     18  C   UNL     1      -1.124  10.400  18.515  0.00  0.00    +0.000 C 
ATOM     19  C   UNL     1       0.245  12.271  19.137  0.00  0.00    +0.000 C 
ATOM     20  O   UNL     1      -0.617  13.015  18.670  0.00  0.00    +0.000 OA
BRANCH  19  21
ATOM     21  C   UNL     1       1.515  12.821  19.748  0.00  0.00    +0.000 C 
BRANCH  21  22
ATOM     22  C   UNL     1       2.627  13.157  18.743  0.00  0.00    +0.000 C 
BRANCH  22  23
ATOM     23  N   UNL     1       2.242  12.797  17.370  0.00  0.00    +0.000 NA
ATOM     24  H   UNL     1       1.252  12.553  17.339  0.00  0.00    +0.000 HD
ATOM     25  H   UNL     1       2.737  11.926  17.137  0.00  0.00    +0.000 HD
ENDBRANCH  22  23
BRANCH  22  26
ATOM     26  C   UNL     1       2.941  14.667  18.767  0.00  0.00    +0.000 C 
BRANCH  26  27
ATOM     27  C   UNL     1       1.889  15.484  19.526  0.00  0.00    +0.000 C 
BRANCH  27  28
ATOM     28  C   UNL     1       1.149  16.461  18.613  0.00  0.00    +0.000 C 
BRANCH  28  29
ATOM     29  C   UNL     1       2.135  17.150  17.669  0.00  0.00    +0.000 C 
BRANCH  29  30
ATOM     30  N   UNL     1       1.576  18.400  17.170  0.00  0.00    +0.000 NA
ATOM     31  H   UNL     1       1.765  19.146  17.839  0.00  0.00    +0.000 HD
ATOM     32  H   UNL     1       0.561  18.314  17.119  0.00  0.00    +0.000 HD
ENDBRANCH  29  30
ENDBRANCH  28  29
ENDBRANCH  27  28
ENDBRANCH  26  27
ENDBRANCH  22  26
ENDBRANCH  21  22
ENDBRANCH  19  21
ENDBRANCH   6  17
TORSDOF 9
ENDMDL
