MODEL 1
REMARK VINA RESULT:      -7.5      0.000      0.000
REMARK  Name = 
REMARK  8 active torsions:
REMARK  status: ('A' for Active; 'I' for Inactive)
REMARK    1  A    between atoms: C_1  and  O_2
REMARK    2  A    between atoms: O_2  and  C_3
REMARK    3  A    between atoms: C_3  and  C_5
REMARK    4  A    between atoms: C_9  and  N_10
REMARK    5  A    between atoms: C_11  and  C_13
REMARK    6  A    between atoms: CA_18  and  C_19
REMARK    7  A    between atoms: C_19  and  OXT_21
REMARK    8  A    between atoms: C_22  and  C_23
REMARK                            x       y       z     vdW  Elec       q    Type
REMARK                         _______ _______ _______ _____ _____    ______ ____
ROOT
ATOM      1  N   UNL     1       2.999   6.987  18.496  0.00  0.00    +0.000 N 
ATOM      2  C   UNL     1       2.197   6.938  19.624  0.00  0.00    +0.000 C 
ATOM      3  O   UNL     1       1.894   5.915  20.236  0.00  0.00    +0.000 OA
ATOM      4  H   UNL     1       3.257   7.907  18.145  0.00  0.00    +0.000 HD
ENDROOT
BRANCH   1   9
ATOM      5  C   UNL     1       5.681   4.855  16.930  0.00  0.00    +0.000 A 
ATOM      6  C   UNL     1       4.983   3.650  16.760  0.00  0.00    +0.000 A 
ATOM      7  C   UNL     1       3.643   3.560  17.102  0.00  0.00    +0.000 A 
ATOM      8  C   UNL     1       2.997   4.660  17.659  0.00  0.00    +0.000 A 
ATOM      9  C   UNL     1       3.655   5.883  17.862  0.00  0.00    +0.000 A 
ATOM     10  C   UNL     1       5.006   6.007  17.426  0.00  0.00    +0.000 A 
ATOM     11  C   UNL     1       5.695   7.349  17.432  0.00  0.00    +0.000 C 
BRANCH   5  12
ATOM     12  C   UNL     1       7.107   4.806  16.482  0.00  0.00    +0.000 C 
ATOM     13  O   UNL     1       7.980   4.251  17.133  0.00  0.00    +0.000 OA
BRANCH  12  15
ATOM     14  C   UNL     1       6.995   4.786  14.117  0.00  0.00    +0.000 C 
ATOM     15  O   UNL     1       7.299   5.490  15.329  0.00  0.00    +0.000 OA
ENDBRANCH  12  15
ENDBRANCH   5  12
ENDBRANCH   1   9
BRANCH   2  16
ATOM     16  C   UNL     1       1.560   8.176  20.156  0.00  0.00    +0.000 A 
ATOM     17  C   UNL     1       1.439   8.226  21.561  0.00  0.00    +0.000 A 
ATOM     18  C   UNL     1       1.054   9.392  22.217  0.00  0.00    +0.000 A 
ATOM     19  C   UNL     1       0.803  10.513  21.453  0.00  0.00    +0.000 A 
ATOM     20  N   UNL     1       0.884  10.524  20.104  0.00  0.00    +0.000 NA
ATOM     21  CA  UNL     1       1.244   9.347  19.479  0.00  0.00    +0.000 A 
BRANCH  21  22
ATOM     22  C   UNL     1       1.258   9.493  17.995  0.00  0.00    +0.000 C 
ATOM     23  O   UNL     1       2.240   9.393  17.287  0.00  0.00    +0.000 OA
BRANCH  22  24
ATOM     24  OXT UNL     1       0.002   9.678  17.520  0.00  0.00    +0.000 OA
ATOM     25  HXT UNL     1       0.004   9.560  16.540  0.00  0.00    +0.000 HD
ENDBRANCH  22  24
ENDBRANCH  21  22
ENDBRANCH   2  16
TORSDOF 6
ENDMDL
MODEL 2
REMARK VINA RESULT:      -7.4      2.078      7.209
REMARK  Name = 
REMARK  8 active torsions:
REMARK  status: ('A' for Active; 'I' for Inactive)
REMARK    1  A    between atoms: C_1  and  O_2
REMARK    2  A    between atoms: O_2  and  C_3
REMARK    3  A    between atoms: C_3  and  C_5
REMARK    4  A    between atoms: C_9  and  N_10
REMARK    5  A    between atoms: C_11  and  C_13
REMARK    6  A    between atoms: CA_18  and  C_19
REMARK    7  A    between atoms: C_19  and  OXT_21
REMARK    8  A    between atoms: C_22  and  C_23
REMARK                            x       y       z     vdW  Elec       q    Type
REMARK                         _______ _______ _______ _____ _____    ______ ____
ROOT
ATOM      1  N   UNL     1       3.462   6.681  18.036  0.00  0.00    +0.000 N 
ATOM      2  C   UNL     1       4.584   5.901  18.260  0.00  0.00    +0.000 C 
ATOM      3  O   UNL     1       5.002   5.560  19.365  0.00  0.00    +0.000 OA
ATOM      4  H   UNL     1       3.165   6.807  17.070  0.00  0.00    +0.000 HD
ENDROOT
BRANCH   1   9
ATOM      5  C   UNL     1       0.988   8.917  19.790  0.00  0.00    +0.000 A 
ATOM      6  C   UNL     1       0.668   8.122  20.901  0.00  0.00    +0.000 A 
ATOM      7  C   UNL     1       1.297   6.902  21.096  0.00  0.00    +0.000 A 
ATOM      8  C   UNL     1       2.219   6.442  20.160  0.00  0.00    +0.000 A 
ATOM      9  C   UNL     1       2.562   7.194  19.025  0.00  0.00    +0.000 A 
ATOM     10  C   UNL     1       1.988   8.488  18.870  0.00  0.00    +0.000 A 
ATOM     11  C   UNL     1       2.471   9.417  17.784  0.00  0.00    +0.000 C 
BRANCH   5  12
ATOM     12  C   UNL     1       0.255  10.220  19.736  0.00  0.00    +0.000 C 
ATOM     13  O   UNL     1       0.756  11.270  20.111  0.00  0.00    +0.000 OA
BRANCH  12  15
ATOM     14  C   UNL     1      -1.209  10.224  17.876  0.00  0.00    +0.000 C 
ATOM     15  O   UNL     1      -1.013  10.068  19.288  0.00  0.00    +0.000 OA
ENDBRANCH  12  15
ENDBRANCH   5  12
ENDBRANCH   1   9
BRANCH   2  16
ATOM     16  C   UNL     1       5.441   5.460  17.123  0.00  0.00    +0.000 A 
ATOM     17  C   UNL     1       4.844   4.518  16.259  0.00  0.00    +0.000 A 
ATOM     18  C   UNL     1       5.435   4.164  15.048  0.00  0.00    +0.000 A 
ATOM     19  C   UNL     1       6.624   4.774  14.705  0.00  0.00    +0.000 A 
ATOM     20  N   UNL     1       7.254   5.670  15.497  0.00  0.00    +0.000 NA
ATOM     21  CA  UNL     1       6.657   5.983  16.702  0.00  0.00    +0.000 A 
BRANCH  21  22
ATOM     22  C   UNL     1       7.475   6.952  17.487  0.00  0.00    +0.000 C 
ATOM     23  O   UNL     1       7.673   8.112  17.186  0.00  0.00    +0.000 OA
BRANCH  22  24
ATOM     24  OXT UNL     1       7.913   6.387  18.639  0.00  0.00    +0.000 OA
ATOM     25  HXT UNL     1       7.172   5.887  19.058  0.00  0.00    +0.000 HD
ENDBRANCH  22  24
ENDBRANCH  21  22
ENDBRANCH   2  16
TORSDOF 6
ENDMDL
MODEL 3
REMARK VINA RESULT:      -7.4      2.087      7.263
REMARK  Name = 
REMARK  8 active torsions:
REMARK  status: ('A' for Active; 'I' for Inactive)
REMARK    1  A    between atoms: C_1  and  O_2
REMARK    2  A    between atoms: O_2  and  C_3
REMARK    3  A    between atoms: C_3  and  C_5
REMARK    4  A    between atoms: C_9  and  N_10
REMARK    5  A    between atoms: C_11  and  C_13
REMARK    6  A    between atoms: CA_18  and  C_19
REMARK    7  A    between atoms: C_19  and  OXT_21
REMARK    8  A    between atoms: C_22  and  C_23
REMARK                            x       y       z     vdW  Elec       q    Type
REMARK                         _______ _______ _______ _____ _____    ______ ____
ROOT
ATOM      1  N   UNL     1       3.496   6.605  18.028  0.00  0.00    +0.000 N 
ATOM      2  C   UNL     1       4.630   5.839  18.243  0.00  0.00    +0.000 C 
ATOM      3  O   UNL     1       5.056   5.497  19.345  0.00  0.00    +0.000 OA
ATOM      4  H   UNL     1       3.194   6.733  17.064  0.00  0.00    +0.000 HD
ENDROOT
BRANCH   1   9
ATOM      5  C   UNL     1       1.015   8.807  19.814  0.00  0.00    +0.000 A 
ATOM      6  C   UNL     1       0.692   7.991  20.909  0.00  0.00    +0.000 A 
ATOM      7  C   UNL     1       1.320   6.768  21.084  0.00  0.00    +0.000 A 
ATOM      8  C   UNL     1       2.246   6.326  20.143  0.00  0.00    +0.000 A 
ATOM      9  C   UNL     1       2.592   7.099  19.023  0.00  0.00    +0.000 A 
ATOM     10  C   UNL     1       2.018   8.395  18.890  0.00  0.00    +0.000 A 
ATOM     11  C   UNL     1       2.505   9.345  17.824  0.00  0.00    +0.000 C 
BRANCH   5  12
ATOM     12  C   UNL     1       0.281  10.110  19.782  0.00  0.00    +0.000 C 
ATOM     13  O   UNL     1      -0.759  10.260  19.158  0.00  0.00    +0.000 OA
BRANCH  12  15
ATOM     14  C   UNL     1       0.879  12.397  19.906  0.00  0.00    +0.000 C 
ATOM     15  O   UNL     1       0.938  11.077  20.463  0.00  0.00    +0.000 OA
ENDBRANCH  12  15
ENDBRANCH   5  12
ENDBRANCH   1   9
BRANCH   2  16
ATOM     16  C   UNL     1       5.489   5.418  17.101  0.00  0.00    +0.000 A 
ATOM     17  C   UNL     1       4.902   4.475  16.232  0.00  0.00    +0.000 A 
ATOM     18  C   UNL     1       5.494   4.138  15.016  0.00  0.00    +0.000 A 
ATOM     19  C   UNL     1       6.675   4.765  14.675  0.00  0.00    +0.000 A 
ATOM     20  N   UNL     1       7.295   5.663  15.472  0.00  0.00    +0.000 NA
ATOM     21  CA  UNL     1       6.698   5.959  16.681  0.00  0.00    +0.000 A 
BRANCH  21  22
ATOM     22  C   UNL     1       7.506   6.931  17.471  0.00  0.00    +0.000 C 
ATOM     23  O   UNL     1       7.699   8.093  17.173  0.00  0.00    +0.000 OA
BRANCH  22  24
ATOM     24  OXT UNL     1       7.942   6.367  18.624  0.00  0.00    +0.000 OA
ATOM     25  HXT UNL     1       7.762   5.397  18.601  0.00  0.00    +0.000 HD
ENDBRANCH  22  24
ENDBRANCH  21  22
ENDBRANCH   2  16
TORSDOF 6
ENDMDL
MODEL 4
REMARK VINA RESULT:      -7.4      3.428      7.171
REMARK  Name = 
REMARK  8 active torsions:
REMARK  status: ('A' for Active; 'I' for Inactive)
REMARK    1  A    between atoms: C_1  and  O_2
REMARK    2  A    between atoms: O_2  and  C_3
REMARK    3  A    between atoms: C_3  and  C_5
REMARK    4  A    between atoms: C_9  and  N_10
REMARK    5  A    between atoms: C_11  and  C_13
REMARK    6  A    between atoms: CA_18  and  C_19
REMARK    7  A    between atoms: C_19  and  OXT_21
REMARK    8  A    between atoms: C_22  and  C_23
REMARK                            x       y       z     vdW  Elec       q    Type
REMARK                         _______ _______ _______ _____ _____    ______ ____
ROOT
ATOM      1  N   UNL     1       4.398   3.162  16.986  0.00  0.00    +0.000 N 
ATOM      2  C   UNL     1       4.720   4.384  16.422  0.00  0.00    +0.000 C 
ATOM      3  O   UNL     1       4.109   5.435  16.610  0.00  0.00    +0.000 OA
ATOM      4  H   UNL     1       5.044   2.390  16.831  0.00  0.00    +0.000 HD
ENDROOT
BRANCH   1   9
ATOM      5  C   UNL     1       2.297   3.235  20.113  0.00  0.00    +0.000 A 
ATOM      6  C   UNL     1       1.178   2.504  19.686  0.00  0.00    +0.000 A 
ATOM      7  C   UNL     1       1.142   1.952  18.415  0.00  0.00    +0.000 A 
ATOM      8  C   UNL     1       2.205   2.161  17.541  0.00  0.00    +0.000 A 
ATOM      9  C   UNL     1       3.341   2.897  17.916  0.00  0.00    +0.000 A 
ATOM     10  C   UNL     1       3.421   3.387  19.251  0.00  0.00    +0.000 A 
ATOM     11  C   UNL     1       4.696   4.005  19.767  0.00  0.00    +0.000 C 
BRANCH   5  12
ATOM     12  C   UNL     1       2.202   3.736  21.519  0.00  0.00    +0.000 C 
ATOM     13  O   UNL     1       1.964   2.997  22.463  0.00  0.00    +0.000 OA
BRANCH  12  15
ATOM     14  C   UNL     1       1.541   5.855  20.696  0.00  0.00    +0.000 C 
ATOM     15  O   UNL     1       2.352   5.080  21.589  0.00  0.00    +0.000 OA
ENDBRANCH  12  15
ENDBRANCH   5  12
ENDBRANCH   1   9
BRANCH   2  16
ATOM     16  C   UNL     1       5.840   4.498  15.446  0.00  0.00    +0.000 A 
ATOM     17  C   UNL     1       5.595   3.910  14.188  0.00  0.00    +0.000 A 
ATOM     18  C   UNL     1       6.458   4.107  13.112  0.00  0.00    +0.000 A 
ATOM     19  C   UNL     1       7.562   4.911  13.305  0.00  0.00    +0.000 A 
ATOM     20  N   UNL     1       7.861   5.487  14.491  0.00  0.00    +0.000 NA
ATOM     21  CA  UNL     1       7.001   5.254  15.546  0.00  0.00    +0.000 A 
BRANCH  21  22
ATOM     22  C   UNL     1       7.471   5.918  16.796  0.00  0.00    +0.000 C 
ATOM     23  O   UNL     1       7.851   5.345  17.797  0.00  0.00    +0.000 OA
BRANCH  22  24
ATOM     24  OXT UNL     1       7.491   7.265  16.645  0.00  0.00    +0.000 OA
ATOM     25  HXT UNL     1       6.593   7.577  16.380  0.00  0.00    +0.000 HD
ENDBRANCH  22  24
ENDBRANCH  21  22
ENDBRANCH   2  16
TORSDOF 6
ENDMDL
MODEL 5
REMARK VINA RESULT:      -7.3      3.382      7.552
REMARK  Name = 
REMARK  8 active torsions:
REMARK  status: ('A' for Active; 'I' for Inactive)
REMARK    1  A    between atoms: C_1  and  O_2
REMARK    2  A    between atoms: O_2  and  C_3
REMARK    3  A    between atoms: C_3  and  C_5
REMARK    4  A    between atoms: C_9  and  N_10
REMARK    5  A    between atoms: C_11  and  C_13
REMARK    6  A    between atoms: CA_18  and  C_19
REMARK    7  A    between atoms: C_19  and  OXT_21
REMARK    8  A    between atoms: C_22  and  C_23
REMARK                            x       y       z     vdW  Elec       q    Type
REMARK                         _______ _______ _______ _____ _____    ______ ____
ROOT
ATOM      1  N   UNL     1       2.225   7.330  20.301  0.00  0.00    +0.000 N 
ATOM      2  C   UNL     1       1.819   6.007  20.329  0.00  0.00    +0.000 C 
ATOM      3  O   UNL     1       0.716   5.611  20.703  0.00  0.00    +0.000 OA
ATOM      4  H   UNL     1       3.127   7.534  19.874  0.00  0.00    +0.000 HD
ENDROOT
BRANCH   1   9
ATOM      5  C   UNL     1       0.055  10.394  19.992  0.00  0.00    +0.000 A 
ATOM      6  C   UNL     1      -0.237  10.637  21.343  0.00  0.00    +0.000 A 
ATOM      7  C   UNL     1       0.316   9.843  22.336  0.00  0.00    +0.000 A 
ATOM      8  C   UNL     1       1.130   8.769  21.988  0.00  0.00    +0.000 A 
ATOM      9  C   UNL     1       1.440   8.476  20.650  0.00  0.00    +0.000 A 
ATOM     10  C   UNL     1       0.950   9.346  19.634  0.00  0.00    +0.000 A 
ATOM     11  C   UNL     1       1.416   9.198  18.207  0.00  0.00    +0.000 C 
BRANCH   5  12
ATOM     12  C   UNL     1      -0.586  11.356  19.043  0.00  0.00    +0.000 C 
ATOM     13  O   UNL     1      -0.076  12.430  18.755  0.00  0.00    +0.000 OA
BRANCH  12  15
ATOM     14  C   UNL     1      -2.229  11.411  17.340  0.00  0.00    +0.000 C 
ATOM     15  O   UNL     1      -1.791  10.916  18.612  0.00  0.00    +0.000 OA
ENDBRANCH  12  15
ENDBRANCH   5  12
ENDBRANCH   1   9
BRANCH   2  16
ATOM     16  C   UNL     1       2.763   4.915  19.958  0.00  0.00    +0.000 A 
ATOM     17  C   UNL     1       3.928   5.340  19.284  0.00  0.00    +0.000 A 
ATOM     18  C   UNL     1       4.992   4.471  19.053  0.00  0.00    +0.000 A 
ATOM     19  C   UNL     1       4.883   3.175  19.513  0.00  0.00    +0.000 A 
ATOM     20  N   UNL     1       3.787   2.704  20.148  0.00  0.00    +0.000 NA
ATOM     21  CA  UNL     1       2.738   3.581  20.342  0.00  0.00    +0.000 A 
BRANCH  21  22
ATOM     22  C   UNL     1       1.585   2.920  21.019  0.00  0.00    +0.000 C 
ATOM     23  O   UNL     1       1.565   2.550  22.176  0.00  0.00    +0.000 OA
BRANCH  22  24
ATOM     24  OXT UNL     1       0.517   2.851  20.187  0.00  0.00    +0.000 OA
ATOM     25  HXT UNL     1       0.258   3.764  19.914  0.00  0.00    +0.000 HD
ENDBRANCH  22  24
ENDBRANCH  21  22
ENDBRANCH   2  16
TORSDOF 6
ENDMDL
MODEL 6
REMARK VINA RESULT:      -7.3      0.700      1.213
REMARK  Name = 
REMARK  8 active torsions:
REMARK  status: ('A' for Active; 'I' for Inactive)
REMARK    1  A    between atoms: C_1  and  O_2
REMARK    2  A    between atoms: O_2  and  C_3
REMARK    3  A    between atoms: C_3  and  C_5
REMARK    4  A    between atoms: C_9  and  N_10
REMARK    5  A    between atoms: C_11  and  C_13
REMARK    6  A    between atoms: CA_18  and  C_19
REMARK    7  A    between atoms: C_19  and  OXT_21
REMARK    8  A    between atoms: C_22  and  C_23
REMARK                            x       y       z     vdW  Elec       q    Type
REMARK                         _______ _______ _______ _____ _____    ______ ____
ROOT
ATOM      1  N   UNL     1       2.369   6.991  18.440  0.00  0.00    +0.000 N 
ATOM      2  C   UNL     1       2.055   7.124  19.782  0.00  0.00    +0.000 C 
ATOM      3  O   UNL     1       2.266   6.275  20.647  0.00  0.00    +0.000 OA
ATOM      4  H   UNL     1       2.235   7.807  17.846  0.00  0.00    +0.000 HD
ENDROOT
BRANCH   1   9
ATOM      5  C   UNL     1       5.011   4.908  16.746  0.00  0.00    +0.000 A 
ATOM      6  C   UNL     1       4.382   3.653  16.741  0.00  0.00    +0.000 A 
ATOM      7  C   UNL     1       3.094   3.510  17.232  0.00  0.00    +0.000 A 
ATOM      8  C   UNL     1       2.437   4.610  17.777  0.00  0.00    +0.000 A 
ATOM      9  C   UNL     1       3.029   5.883  17.818  0.00  0.00    +0.000 A 
ATOM     10  C   UNL     1       4.315   6.052  17.230  0.00  0.00    +0.000 A 
ATOM     11  C   UNL     1       4.908   7.429  17.065  0.00  0.00    +0.000 C 
BRANCH   5  12
ATOM     12  C   UNL     1       6.383   4.909  16.150  0.00  0.00    +0.000 C 
ATOM     13  O   UNL     1       6.617   5.382  15.047  0.00  0.00    +0.000 OA
BRANCH  12  15
ATOM     14  C   UNL     1       7.676   4.986  18.131  0.00  0.00    +0.000 C 
ATOM     15  O   UNL     1       7.281   4.283  16.945  0.00  0.00    +0.000 OA
ENDBRANCH  12  15
ENDBRANCH   5  12
ENDBRANCH   1   9
BRANCH   2  16
ATOM     16  C   UNL     1       1.342   8.334  20.279  0.00  0.00    +0.000 A 
ATOM     17  C   UNL     1       1.127   8.367  21.673  0.00  0.00    +0.000 A 
ATOM     18  C   UNL     1       0.659   9.514  22.310  0.00  0.00    +0.000 A 
ATOM     19  C   UNL     1       0.420  10.632  21.538  0.00  0.00    +0.000 A 
ATOM     20  N   UNL     1       0.588  10.658  20.197  0.00  0.00    +0.000 NA
ATOM     21  CA  UNL     1       1.030   9.499  19.590  0.00  0.00    +0.000 A 
BRANCH  21  22
ATOM     22  C   UNL     1       1.136   9.658  18.111  0.00  0.00    +0.000 C 
ATOM     23  O   UNL     1       2.167   9.616  17.470  0.00  0.00    +0.000 OA
BRANCH  22  24
ATOM     24  OXT UNL     1      -0.093   9.781  17.553  0.00  0.00    +0.000 OA
ATOM     25  HXT UNL     1      -0.583   8.930  17.653  0.00  0.00    +0.000 HD
ENDBRANCH  22  24
ENDBRANCH  21  22
ENDBRANCH   2  16
TORSDOF 6
ENDMDL
MODEL 7
REMARK VINA RESULT:      -7.3      2.720      7.515
REMARK  Name = 
REMARK  8 active torsions:
REMARK  status: ('A' for Active; 'I' for Inactive)
REMARK    1  A    between atoms: C_1  and  O_2
REMARK    2  A    between atoms: O_2  and  C_3
REMARK    3  A    between atoms: C_3  and  C_5
REMARK    4  A    between atoms: C_9  and  N_10
REMARK    5  A    between atoms: C_11  and  C_13
REMARK    6  A    between atoms: CA_18  and  C_19
REMARK    7  A    between atoms: C_19  and  OXT_21
REMARK    8  A    between atoms: C_22  and  C_23
REMARK                            x       y       z     vdW  Elec       q    Type
REMARK                         _______ _______ _______ _____ _____    ______ ____
ROOT
ATOM      1  N   UNL     1       2.256   7.037  20.105  0.00  0.00    +0.000 N 
ATOM      2  C   UNL     1       2.403   5.862  19.389  0.00  0.00    +0.000 C 
ATOM      3  O   UNL     1       2.122   5.715  18.199  0.00  0.00    +0.000 OA
ATOM      4  H   UNL     1       2.620   7.054  21.056  0.00  0.00    +0.000 HD
ENDROOT
BRANCH   1   9
ATOM      5  C   UNL     1       0.517  10.372  19.886  0.00  0.00    +0.000 A 
ATOM      6  C   UNL     1       1.037  10.852  18.674  0.00  0.00    +0.000 A 
ATOM      7  C   UNL     1       1.897  10.069  17.920  0.00  0.00    +0.000 A 
ATOM      8  C   UNL     1       2.283   8.817  18.389  0.00  0.00    +0.000 A 
ATOM      9  C   UNL     1       1.801   8.298  19.601  0.00  0.00    +0.000 A 
ATOM     10  C   UNL     1       0.845   9.060  20.333  0.00  0.00    +0.000 A 
ATOM     11  C   UNL     1       0.145   8.467  21.530  0.00  0.00    +0.000 C 
BRANCH   5  12
ATOM     12  C   UNL     1      -0.424  11.315  20.566  0.00  0.00    +0.000 C 
ATOM     13  O   UNL     1      -1.465  11.690  20.046  0.00  0.00    +0.000 OA
BRANCH  12  15
ATOM     14  C   UNL     1      -0.910  11.826  22.826  0.00  0.00    +0.000 C 
ATOM     15  O   UNL     1       0.050  11.725  21.766  0.00  0.00    +0.000 OA
ENDBRANCH  12  15
ENDBRANCH   5  12
ENDBRANCH   1   9
BRANCH   2  16
ATOM     16  C   UNL     1       2.868   4.616  20.061  0.00  0.00    +0.000 A 
ATOM     17  C   UNL     1       2.004   4.122  21.061  0.00  0.00    +0.000 A 
ATOM     18  C   UNL     1       2.197   2.867  21.635  0.00  0.00    +0.000 A 
ATOM     19  C   UNL     1       3.257   2.106  21.188  0.00  0.00    +0.000 A 
ATOM     20  N   UNL     1       4.129   2.530  20.246  0.00  0.00    +0.000 NA
ATOM     21  CA  UNL     1       3.928   3.788  19.713  0.00  0.00    +0.000 A 
BRANCH  21  22
ATOM     22  C   UNL     1       4.980   4.140  18.718  0.00  0.00    +0.000 C 
ATOM     23  O   UNL     1       6.136   4.409  18.980  0.00  0.00    +0.000 OA
BRANCH  22  24
ATOM     24  OXT UNL     1       4.497   4.045  17.455  0.00  0.00    +0.000 OA
ATOM     25  HXT UNL     1       5.075   4.564  16.845  0.00  0.00    +0.000 HD
ENDBRANCH  22  24
ENDBRANCH  21  22
ENDBRANCH   2  16
TORSDOF 6
ENDMDL
MODEL 8
REMARK VINA RESULT:      -7.3      2.231      3.863
REMARK  Name = 
REMARK  8 active torsions:
REMARK  status: ('A' for Active; 'I' for Inactive)
REMARK    1  A    between atoms: C_1  and  O_2
REMARK    2  A    between atoms: O_2  and  C_3
REMARK    3  A    between atoms: C_3  and  C_5
REMARK    4  A    between atoms: C_9  and  N_10
REMARK    5  A    between atoms: C_11  and  C_13
REMARK    6  A    between atoms: CA_18  and  C_19
REMARK    7  A    between atoms: C_19  and  OXT_21
REMARK    8  A    between atoms: C_22  and  C_23
REMARK                            x       y       z     vdW  Elec       q    Type
REMARK                         _______ _______ _______ _____ _____    ______ ____
ROOT
ATOM      1  N   UNL     1       2.469   7.833  19.079  0.00  0.00    +0.000 N 
ATOM      2  C   UNL     1       1.692   8.823  18.503  0.00  0.00    +0.000 C 
ATOM      3  O   UNL     1       1.439   8.918  17.302  0.00  0.00    +0.000 OA
ATOM      4  H   UNL     1       2.517   7.809  20.096  0.00  0.00    +0.000 HD
ENDROOT
BRANCH   1   9
ATOM      5  C   UNL     1       3.179   4.319  17.924  0.00  0.00    +0.000 A 
ATOM      6  C   UNL     1       4.180   4.561  16.970  0.00  0.00    +0.000 A 
ATOM      7  C   UNL     1       4.649   5.847  16.755  0.00  0.00    +0.000 A 
ATOM      8  C   UNL     1       4.092   6.912  17.458  0.00  0.00    +0.000 A 
ATOM      9  C   UNL     1       3.079   6.723  18.411  0.00  0.00    +0.000 A 
ATOM     10  C   UNL     1       2.661   5.393  18.702  0.00  0.00    +0.000 A 
ATOM     11  C   UNL     1       1.728   5.117  19.854  0.00  0.00    +0.000 C 
BRANCH   5  12
ATOM     12  C   UNL     1       2.805   2.878  18.068  0.00  0.00    +0.000 C 
ATOM     13  O   UNL     1       1.678   2.467  17.829  0.00  0.00    +0.000 OA
BRANCH  12  15
ATOM     14  C   UNL     1       4.169   2.322  19.921  0.00  0.00    +0.000 C 
ATOM     15  O   UNL     1       3.831   2.133  18.541  0.00  0.00    +0.000 OA
ENDBRANCH  12  15
ENDBRANCH   5  12
ENDBRANCH   1   9
BRANCH   2  16
ATOM     16  C   UNL     1       1.141   9.934  19.329  0.00  0.00    +0.000 A 
ATOM     17  C   UNL     1       1.137  11.197  18.702  0.00  0.00    +0.000 A 
ATOM     18  C   UNL     1       0.474  12.287  19.262  0.00  0.00    +0.000 A 
ATOM     19  C   UNL     1      -0.196  12.095  20.453  0.00  0.00    +0.000 A 
ATOM     20  N   UNL     1      -0.214  10.915  21.112  0.00  0.00    +0.000 NA
ATOM     21  CA  UNL     1       0.472   9.860  20.545  0.00  0.00    +0.000 A 
BRANCH  21  22
ATOM     22  C   UNL     1       0.399   8.636  21.393  0.00  0.00    +0.000 C 
ATOM     23  O   UNL     1      -0.603   7.980  21.598  0.00  0.00    +0.000 OA
BRANCH  22  24
ATOM     24  OXT UNL     1       1.629   8.297  21.853  0.00  0.00    +0.000 OA
ATOM     25  HXT UNL     1       2.305   8.882  21.434  0.00  0.00    +0.000 HD
ENDBRANCH  22  24
ENDBRANCH  21  22
ENDBRANCH   2  16
TORSDOF 6
ENDMDL
MODEL 9
REMARK VINA RESULT:      -7.2      2.770      7.457
REMARK  Name = 
REMARK  8 active torsions:
REMARK  status: ('A' for Active; 'I' for Inactive)
REMARK    1  A    between atoms: C_1  and  O_2
REMARK    2  A    between atoms: O_2  and  C_3
REMARK    3  A    between atoms: C_3  and  C_5
REMARK    4  A    between atoms: C_9  and  N_10
REMARK    5  A    between atoms: C_11  and  C_13
REMARK    6  A    between atoms: CA_18  and  C_19
REMARK    7  A    between atoms: C_19  and  OXT_21
REMARK    8  A    between atoms: C_22  and  C_23
REMARK                            x       y       z     vdW  Elec       q    Type
REMARK                         _______ _______ _______ _____ _____    ______ ____
ROOT
ATOM      1  N   UNL     1       2.341   6.968  20.095  0.00  0.00    +0.000 N 
ATOM      2  C   UNL     1       2.399   5.775  19.396  0.00  0.00    +0.000 C 
ATOM      3  O   UNL     1       2.017   5.612  18.237  0.00  0.00    +0.000 OA
ATOM      4  H   UNL     1       2.784   6.995  21.012  0.00  0.00    +0.000 HD
ENDROOT
BRANCH   1   9
ATOM      5  C   UNL     1       0.736  10.374  19.964  0.00  0.00    +0.000 A 
ATOM      6  C   UNL     1       1.108  10.782  18.674  0.00  0.00    +0.000 A 
ATOM      7  C   UNL     1       1.822   9.931  17.846  0.00  0.00    +0.000 A 
ATOM      8  C   UNL     1       2.213   8.679  18.314  0.00  0.00    +0.000 A 
ATOM      9  C   UNL     1       1.878   8.231  19.601  0.00  0.00    +0.000 A 
ATOM     10  C   UNL     1       1.065   9.065  20.420  0.00  0.00    +0.000 A 
ATOM     11  C   UNL     1       0.508   8.553  21.725  0.00  0.00    +0.000 C 
BRANCH   5  12
ATOM     12  C   UNL     1      -0.062  11.387  20.722  0.00  0.00    +0.000 C 
ATOM     13  O   UNL     1       0.403  12.019  21.659  0.00  0.00    +0.000 OA
BRANCH  12  15
ATOM     14  C   UNL     1      -1.893  12.774  20.149  0.00  0.00    +0.000 C 
ATOM     15  O   UNL     1      -1.339  11.458  20.280  0.00  0.00    +0.000 OA
ENDBRANCH  12  15
ENDBRANCH   5  12
ENDBRANCH   1   9
BRANCH   2  16
ATOM     16  C   UNL     1       2.887   4.531  20.056  0.00  0.00    +0.000 A 
ATOM     17  C   UNL     1       2.040   4.020  21.061  0.00  0.00    +0.000 A 
ATOM     18  C   UNL     1       2.255   2.765  21.625  0.00  0.00    +0.000 A 
ATOM     19  C   UNL     1       3.321   2.020  21.163  0.00  0.00    +0.000 A 
ATOM     20  N   UNL     1       4.178   2.462  20.216  0.00  0.00    +0.000 NA
ATOM     21  CA  UNL     1       3.955   3.720  19.692  0.00  0.00    +0.000 A 
BRANCH  21  22
ATOM     22  C   UNL     1       4.993   4.092  18.689  0.00  0.00    +0.000 C 
ATOM     23  O   UNL     1       4.868   4.012  17.483  0.00  0.00    +0.000 OA
BRANCH  22  24
ATOM     24  OXT UNL     1       6.086   4.612  19.300  0.00  0.00    +0.000 OA
ATOM     25  HXT UNL     1       5.880   4.774  20.252  0.00  0.00    +0.000 HD
ENDBRANCH  22  24
ENDBRANCH  21  22
ENDBRANCH   2  16
TORSDOF 6
ENDMDL
