MODEL 1
REMARK VINA RESULT:      -6.9      0.000      0.000
REMARK  Name = 
REMARK  10 active torsions:
REMARK  status: ('A' for Active; 'I' for Inactive)
REMARK    1  A    between atoms: C_1  and  C_2
REMARK    2  A    between atoms: C_7  and  C_8
REMARK    3  A    between atoms: N_10  and  C_11
REMARK    4  A    between atoms: C_11  and  C_12
REMARK    5  A    between atoms: C_11  and  C_13
REMARK    6  A    between atoms: C_13  and  O_15
REMARK    7  A    between atoms: O_15  and  C_16
REMARK    8  A    between atoms: C_16  and  C_17
REMARK    9  A    between atoms: C_16  and  C_18
REMARK   10  A    between atoms: C_16  and  C_19
REMARK                            x       y       z     vdW  Elec       q    Type
REMARK                         _______ _______ _______ _____ _____    ______ ____
ROOT
ATOM      1  C   UNL     1       2.606   6.773  19.034  0.00  0.00    +0.000 C 
ATOM      2  O   UNL     1       2.291   6.429  17.905  0.00  0.00    +0.000 OA
ATOM      3  N   UNL     1       3.710   6.253  19.668  0.00  0.00    +0.000 N 
ATOM      4  H   UNL     1       3.894   6.556  20.622  0.00  0.00    +0.000 HD
ENDROOT
BRANCH   1  11
ATOM      5  C   UNL     1      -1.159  11.832  18.871  0.00  0.00    +0.000 C 
ATOM      6  C   UNL     1       0.261  11.623  19.396  0.00  0.00    +0.000 C 
ATOM      7  C   UNL     1       0.269  10.835  20.722  0.00  0.00    +0.000 C 
ATOM      8  N   UNL     1       0.829   9.509  20.607  0.00  0.00    +0.000 N 
ATOM      9  C   UNL     1       0.895   8.569  21.589  0.00  0.00    +0.000 A 
ATOM     10  N   UNL     1       1.504   7.486  21.165  0.00  0.00    +0.000 NA
ATOM     11  C   UNL     1       1.871   7.751  19.843  0.00  0.00    +0.000 A 
ATOM     12  C   UNL     1       1.454   9.028  19.485  0.00  0.00    +0.000 A 
ATOM     13  C   UNL     1       1.602   9.794  18.281  0.00  0.00    +0.000 C 
ATOM     14  O   UNL     1       2.145   9.443  17.244  0.00  0.00    +0.000 OA
ATOM     15  N   UNL     1       1.093  11.068  18.342  0.00  0.00    +0.000 N 
ATOM     16  H   UNL     1       1.206  11.571  17.468  0.00  0.00    +0.000 HD
ENDBRANCH   1  11
BRANCH   3  17
ATOM     17  C   UNL     1       4.529   5.233  19.028  0.00  0.00    +0.000 C 
ATOM     18  C   UNL     1       6.013   5.558  19.166  0.00  0.00    +0.000 C 
BRANCH  17  19
ATOM     19  C   UNL     1       4.274   3.813  19.539  0.00  0.00    +0.000 C 
ATOM     20  O   UNL     1       5.176   3.070  19.911  0.00  0.00    +0.000 OA
BRANCH  19  21
ATOM     21  O   UNL     1       2.949   3.494  19.523  0.00  0.00    +0.000 OA
BRANCH  21  22
ATOM     22  C   UNL     1       2.430   2.639  18.473  0.00  0.00    +0.000 C 
ATOM     23  C   UNL     1       2.601   3.296  17.098  0.00  0.00    +0.000 C 
ATOM     24  C   UNL     1       3.289   1.365  18.514  0.00  0.00    +0.000 C 
ATOM     25  C   UNL     1       0.975   2.237  18.750  0.00  0.00    +0.000 C 
ENDBRANCH  21  22
ENDBRANCH  19  21
ENDBRANCH  17  19
ENDBRANCH   3  17
TORSDOF 5
ENDMDL
MODEL 2
REMARK VINA RESULT:      -6.9      1.651      2.939
REMARK  Name = 
REMARK  10 active torsions:
REMARK  status: ('A' for Active; 'I' for Inactive)
REMARK    1  A    between atoms: C_1  and  C_2
REMARK    2  A    between atoms: C_7  and  C_8
REMARK    3  A    between atoms: N_10  and  C_11
REMARK    4  A    between atoms: C_11  and  C_12
REMARK    5  A    between atoms: C_11  and  C_13
REMARK    6  A    between atoms: C_13  and  O_15
REMARK    7  A    between atoms: O_15  and  C_16
REMARK    8  A    between atoms: C_16  and  C_17
REMARK    9  A    between atoms: C_16  and  C_18
REMARK   10  A    between atoms: C_16  and  C_19
REMARK                            x       y       z     vdW  Elec       q    Type
REMARK                         _______ _______ _______ _____ _____    ______ ____
ROOT
ATOM      1  C   UNL     1       1.906   6.431  20.322  0.00  0.00    +0.000 C 
ATOM      2  O   UNL     1       1.252   5.443  20.621  0.00  0.00    +0.000 OA
ATOM      3  N   UNL     1       3.069   6.339  19.595  0.00  0.00    +0.000 N 
ATOM      4  H   UNL     1       3.583   7.198  19.413  0.00  0.00    +0.000 HD
ENDROOT
BRANCH   1  11
ATOM      5  C   UNL     1      -0.609  11.852  18.300  0.00  0.00    +0.000 C 
ATOM      6  C   UNL     1       0.796  11.484  18.775  0.00  0.00    +0.000 C 
ATOM      7  C   UNL     1       0.851  11.299  20.305  0.00  0.00    +0.000 C 
ATOM      8  N   UNL     1       1.074   9.933  20.720  0.00  0.00    +0.000 N 
ATOM      9  C   UNL     1       1.092   9.467  21.998  0.00  0.00    +0.000 A 
ATOM     10  N   UNL     1       1.364   8.183  22.027  0.00  0.00    +0.000 NA
ATOM     11  C   UNL     1       1.553   7.806  20.694  0.00  0.00    +0.000 A 
ATOM     12  C   UNL     1       1.378   8.906  19.864  0.00  0.00    +0.000 A 
ATOM     13  C   UNL     1       1.489   9.076  18.443  0.00  0.00    +0.000 C 
ATOM     14  O   UNL     1       1.757   8.218  17.615  0.00  0.00    +0.000 OA
ATOM     15  N   UNL     1       1.295  10.361  17.999  0.00  0.00    +0.000 N 
ATOM     16  H   UNL     1       1.369  10.435  16.990  0.00  0.00    +0.000 HD
ENDBRANCH   1  11
BRANCH   3  17
ATOM     17  C   UNL     1       3.592   5.045  19.182  0.00  0.00    +0.000 C 
ATOM     18  C   UNL     1       3.003   4.620  17.840  0.00  0.00    +0.000 C 
BRANCH  17  19
ATOM     19  C   UNL     1       5.119   4.981  19.105  0.00  0.00    +0.000 C 
ATOM     20  O   UNL     1       5.759   3.986  19.426  0.00  0.00    +0.000 OA
BRANCH  19  21
ATOM     21  O   UNL     1       5.656   6.146  18.644  0.00  0.00    +0.000 OA
BRANCH  21  22
ATOM     22  C   UNL     1       6.326   6.166  17.357  0.00  0.00    +0.000 C 
ATOM     23  C   UNL     1       5.358   6.579  16.243  0.00  0.00    +0.000 C 
ATOM     24  C   UNL     1       7.419   7.241  17.477  0.00  0.00    +0.000 C 
ATOM     25  C   UNL     1       7.012   4.824  17.066  0.00  0.00    +0.000 C 
ENDBRANCH  21  22
ENDBRANCH  19  21
ENDBRANCH  17  19
ENDBRANCH   3  17
TORSDOF 5
ENDMDL
MODEL 3
REMARK VINA RESULT:      -6.9      1.479      2.397
REMARK  Name = 
REMARK  10 active torsions:
REMARK  status: ('A' for Active; 'I' for Inactive)
REMARK    1  A    between atoms: C_1  and  C_2
REMARK    2  A    between atoms: C_7  and  C_8
REMARK    3  A    between atoms: N_10  and  C_11
REMARK    4  A    between atoms: C_11  and  C_12
REMARK    5  A    between atoms: C_11  and  C_13
REMARK    6  A    between atoms: C_13  and  O_15
REMARK    7  A    between atoms: O_15  and  C_16
REMARK    8  A    between atoms: C_16  and  C_17
REMARK    9  A    between atoms: C_16  and  C_18
REMARK   10  A    between atoms: C_16  and  C_19
REMARK                            x       y       z     vdW  Elec       q    Type
REMARK                         _______ _______ _______ _____ _____    ______ ____
ROOT
ATOM      1  C   UNL     1       2.200   6.974  19.981  0.00  0.00    +0.000 C 
ATOM      2  O   UNL     1       3.322   6.942  19.498  0.00  0.00    +0.000 OA
ATOM      3  N   UNL     1       1.443   5.836  20.131  0.00  0.00    +0.000 N 
ATOM      4  H   UNL     1       0.502   5.938  20.506  0.00  0.00    +0.000 HD
ENDROOT
BRANCH   1  11
ATOM      5  C   UNL     1      -1.272  11.946  18.244  0.00  0.00    +0.000 C 
ATOM      6  C   UNL     1       0.137  11.827  18.823  0.00  0.00    +0.000 C 
ATOM      7  C   UNL     1       0.110  11.482  20.326  0.00  0.00    +0.000 C 
ATOM      8  N   UNL     1       0.593  10.154  20.627  0.00  0.00    +0.000 N 
ATOM      9  C   UNL     1       0.612   9.556  21.849  0.00  0.00    +0.000 A 
ATOM     10  N   UNL     1       1.155   8.363  21.782  0.00  0.00    +0.000 NA
ATOM     11  C   UNL     1       1.527   8.192  20.446  0.00  0.00    +0.000 A 
ATOM     12  C   UNL     1       1.182   9.320  19.712  0.00  0.00    +0.000 A 
ATOM     13  C   UNL     1       1.365   9.673  18.333  0.00  0.00    +0.000 C 
ATOM     14  O   UNL     1       1.879   8.993  17.458  0.00  0.00    +0.000 OA
ATOM     15  N   UNL     1       0.929  10.932  17.998  0.00  0.00    +0.000 N 
ATOM     16  H   UNL     1       1.065  11.137  17.013  0.00  0.00    +0.000 HD
ENDBRANCH   1  11
BRANCH   3  17
ATOM     17  C   UNL     1       1.938   4.544  19.678  0.00  0.00    +0.000 C 
ATOM     18  C   UNL     1       1.166   3.402  20.333  0.00  0.00    +0.000 C 
BRANCH  17  19
ATOM     19  C   UNL     1       1.914   4.361  18.159  0.00  0.00    +0.000 C 
ATOM     20  O   UNL     1       0.913   4.003  17.549  0.00  0.00    +0.000 OA
BRANCH  19  21
ATOM     21  O   UNL     1       3.121   4.640  17.591  0.00  0.00    +0.000 OA
BRANCH  21  22
ATOM     22  C   UNL     1       4.199   3.673  17.687  0.00  0.00    +0.000 C 
ATOM     23  C   UNL     1       3.648   2.244  17.746  0.00  0.00    +0.000 C 
ATOM     24  C   UNL     1       5.011   3.830  16.390  0.00  0.00    +0.000 C 
ATOM     25  C   UNL     1       5.127   3.990  18.868  0.00  0.00    +0.000 C 
ENDBRANCH  21  22
ENDBRANCH  19  21
ENDBRANCH  17  19
ENDBRANCH   3  17
TORSDOF 5
ENDMDL
MODEL 4
REMARK VINA RESULT:      -6.9      0.892      1.267
REMARK  Name = 
REMARK  10 active torsions:
REMARK  status: ('A' for Active; 'I' for Inactive)
REMARK    1  A    between atoms: C_1  and  C_2
REMARK    2  A    between atoms: C_7  and  C_8
REMARK    3  A    between atoms: N_10  and  C_11
REMARK    4  A    between atoms: C_11  and  C_12
REMARK    5  A    between atoms: C_11  and  C_13
REMARK    6  A    between atoms: C_13  and  O_15
REMARK    7  A    between atoms: O_15  and  C_16
REMARK    8  A    between atoms: C_16  and  C_17
REMARK    9  A    between atoms: C_16  and  C_18
REMARK   10  A    between atoms: C_16  and  C_19
REMARK                            x       y       z     vdW  Elec       q    Type
REMARK                         _______ _______ _______ _____ _____    ______ ____
ROOT
ATOM      1  C   UNL     1       2.765   7.095  18.782  0.00  0.00    +0.000 C 
ATOM      2  O   UNL     1       2.688   7.093  17.563  0.00  0.00    +0.000 OA
ATOM      3  N   UNL     1       3.682   6.319  19.451  0.00  0.00    +0.000 N 
ATOM      4  H   UNL     1       3.667   6.339  20.469  0.00  0.00    +0.000 HD
ENDROOT
BRANCH   1  11
ATOM      5  C   UNL     1      -1.453  11.777  19.065  0.00  0.00    +0.000 C 
ATOM      6  C   UNL     1      -0.040  11.631  19.626  0.00  0.00    +0.000 C 
ATOM      7  C   UNL     1      -0.004  10.685  20.844  0.00  0.00    +0.000 C 
ATOM      8  N   UNL     1       0.683   9.439  20.594  0.00  0.00    +0.000 N 
ATOM      9  C   UNL     1       0.802   8.392  21.455  0.00  0.00    +0.000 A 
ATOM     10  N   UNL     1       1.525   7.430  20.931  0.00  0.00    +0.000 NA
ATOM     11  C   UNL     1       1.912   7.893  19.670  0.00  0.00    +0.000 A 
ATOM     12  C   UNL     1       1.390   9.162  19.452  0.00  0.00    +0.000 A 
ATOM     13  C   UNL     1       1.508  10.085  18.360  0.00  0.00    +0.000 C 
ATOM     14  O   UNL     1       2.117   9.918  17.314  0.00  0.00    +0.000 OA
ATOM     15  N   UNL     1       0.878  11.290  18.553  0.00  0.00    +0.000 N 
ATOM     16  H   UNL     1       0.975  11.908  17.753  0.00  0.00    +0.000 HD
ENDBRANCH   1  11
BRANCH   3  17
ATOM     17  C   UNL     1       4.577   5.428  18.728  0.00  0.00    +0.000 C 
ATOM     18  C   UNL     1       5.965   5.416  19.360  0.00  0.00    +0.000 C 
BRANCH  17  19
ATOM     19  C   UNL     1       4.067   3.990  18.605  0.00  0.00    +0.000 C 
ATOM     20  O   UNL     1       4.453   3.221  17.731  0.00  0.00    +0.000 OA
BRANCH  19  21
ATOM     21  O   UNL     1       3.153   3.688  19.569  0.00  0.00    +0.000 OA
BRANCH  21  22
ATOM     22  C   UNL     1       1.800   3.328  19.186  0.00  0.00    +0.000 C 
ATOM     23  C   UNL     1       1.617   1.806  19.190  0.00  0.00    +0.000 C 
ATOM     24  C   UNL     1       0.889   3.932  20.268  0.00  0.00    +0.000 C 
ATOM     25  C   UNL     1       1.417   3.958  17.840  0.00  0.00    +0.000 C 
ENDBRANCH  21  22
ENDBRANCH  19  21
ENDBRANCH  17  19
ENDBRANCH   3  17
TORSDOF 5
ENDMDL
MODEL 5
REMARK VINA RESULT:      -6.9      3.177      5.588
REMARK  Name = 
REMARK  10 active torsions:
REMARK  status: ('A' for Active; 'I' for Inactive)
REMARK    1  A    between atoms: C_1  and  C_2
REMARK    2  A    between atoms: C_7  and  C_8
REMARK    3  A    between atoms: N_10  and  C_11
REMARK    4  A    between atoms: C_11  and  C_12
REMARK    5  A    between atoms: C_11  and  C_13
REMARK    6  A    between atoms: C_13  and  O_15
REMARK    7  A    between atoms: O_15  and  C_16
REMARK    8  A    between atoms: C_16  and  C_17
REMARK    9  A    between atoms: C_16  and  C_18
REMARK   10  A    between atoms: C_16  and  C_19
REMARK                            x       y       z     vdW  Elec       q    Type
REMARK                         _______ _______ _______ _____ _____    ______ ____
ROOT
ATOM      1  C   UNL     1       4.281   6.778  17.774  0.00  0.00    +0.000 C 
ATOM      2  O   UNL     1       4.048   7.470  16.794  0.00  0.00    +0.000 OA
ATOM      3  N   UNL     1       5.541   6.296  18.037  0.00  0.00    +0.000 N 
ATOM      4  H   UNL     1       5.658   5.695  18.850  0.00  0.00    +0.000 HD
ENDROOT
BRANCH   1  11
ATOM      5  C   UNL     1       2.431   2.185  21.682  0.00  0.00    +0.000 C 
ATOM      6  C   UNL     1       1.780   2.811  20.450  0.00  0.00    +0.000 C 
ATOM      7  C   UNL     1       1.219   4.216  20.752  0.00  0.00    +0.000 C 
ATOM      8  N   UNL     1       1.937   5.283  20.094  0.00  0.00    +0.000 N 
ATOM      9  C   UNL     1       1.714   6.618  20.236  0.00  0.00    +0.000 A 
ATOM     10  N   UNL     1       2.514   7.315  19.464  0.00  0.00    +0.000 NA
ATOM     11  C   UNL     1       3.279   6.376  18.767  0.00  0.00    +0.000 A 
ATOM     12  C   UNL     1       2.917   5.091  19.154  0.00  0.00    +0.000 A 
ATOM     13  C   UNL     1       3.356   3.792  18.734  0.00  0.00    +0.000 C 
ATOM     14  O   UNL     1       4.217   3.534  17.905  0.00  0.00    +0.000 OA
ATOM     15  N   UNL     1       2.697   2.741  19.325  0.00  0.00    +0.000 N 
ATOM     16  H   UNL     1       3.046   1.842  19.010  0.00  0.00    +0.000 HD
ENDBRANCH   1  11
BRANCH   3  17
ATOM     17  C   UNL     1       6.647   6.560  17.128  0.00  0.00    +0.000 C 
ATOM     18  C   UNL     1       7.649   7.527  17.752  0.00  0.00    +0.000 C 
BRANCH  17  19
ATOM     19  C   UNL     1       7.386   5.304  16.657  0.00  0.00    +0.000 C 
ATOM     20  O   UNL     1       7.803   4.450  17.431  0.00  0.00    +0.000 OA
BRANCH  19  21
ATOM     21  O   UNL     1       7.514   5.265  15.301  0.00  0.00    +0.000 OA
BRANCH  21  22
ATOM     22  C   UNL     1       6.495   4.610  14.503  0.00  0.00    +0.000 C 
ATOM     23  C   UNL     1       5.971   3.355  15.210  0.00  0.00    +0.000 C 
ATOM     24  C   UNL     1       5.343   5.622  14.390  0.00  0.00    +0.000 C 
ATOM     25  C   UNL     1       7.004   4.311  13.086  0.00  0.00    +0.000 C 
ENDBRANCH  21  22
ENDBRANCH  19  21
ENDBRANCH  17  19
ENDBRANCH   3  17
TORSDOF 5
ENDMDL
MODEL 6
REMARK VINA RESULT:      -6.9      3.464      5.802
REMARK  Name = 
REMARK  10 active torsions:
REMARK  status: ('A' for Active; 'I' for Inactive)
REMARK    1  A    between atoms: C_1  and  C_2
REMARK    2  A    between atoms: C_7  and  C_8
REMARK    3  A    between atoms: N_10  and  C_11
REMARK    4  A    between atoms: C_11  and  C_12
REMARK    5  A    between atoms: C_11  and  C_13
REMARK    6  A    between atoms: C_13  and  O_15
REMARK    7  A    between atoms: O_15  and  C_16
REMARK    8  A    between atoms: C_16  and  C_17
REMARK    9  A    between atoms: C_16  and  C_18
REMARK   10  A    between atoms: C_16  and  C_19
REMARK                            x       y       z     vdW  Elec       q    Type
REMARK                         _______ _______ _______ _____ _____    ______ ____
ROOT
ATOM      1  C   UNL     1       5.503   5.623  19.068  0.00  0.00    +0.000 C 
ATOM      2  O   UNL     1       6.431   5.220  19.753  0.00  0.00    +0.000 OA
ATOM      3  N   UNL     1       5.708   6.196  17.835  0.00  0.00    +0.000 N 
ATOM      4  H   UNL     1       4.894   6.545  17.333  0.00  0.00    +0.000 HD
ENDROOT
BRANCH   1  11
ATOM      5  C   UNL     1       1.148   2.309  22.206  0.00  0.00    +0.000 C 
ATOM      6  C   UNL     1       1.307   2.657  20.727  0.00  0.00    +0.000 C 
ATOM      7  C   UNL     1       0.954   4.132  20.446  0.00  0.00    +0.000 C 
ATOM      8  N   UNL     1       2.091   4.942  20.074  0.00  0.00    +0.000 N 
ATOM      9  C   UNL     1       2.091   6.283  19.845  0.00  0.00    +0.000 A 
ATOM     10  N   UNL     1       3.282   6.701  19.485  0.00  0.00    +0.000 NA
ATOM     11  C   UNL     1       4.090   5.560  19.458  0.00  0.00    +0.000 A 
ATOM     12  C   UNL     1       3.345   4.446  19.823  0.00  0.00    +0.000 A 
ATOM     13  C   UNL     1       3.671   3.052  19.924  0.00  0.00    +0.000 C 
ATOM     14  O   UNL     1       4.756   2.530  19.716  0.00  0.00    +0.000 OA
ATOM     15  N   UNL     1       2.619   2.237  20.266  0.00  0.00    +0.000 N 
ATOM     16  H   UNL     1       2.895   1.263  20.339  0.00  0.00    +0.000 HD
ENDBRANCH   1  11
BRANCH   3  17
ATOM     17  C   UNL     1       7.054   6.382  17.312  0.00  0.00    +0.000 C 
ATOM     18  C   UNL     1       8.000   6.877  18.401  0.00  0.00    +0.000 C 
BRANCH  17  19
ATOM     19  C   UNL     1       7.649   5.133  16.657  0.00  0.00    +0.000 C 
ATOM     20  O   UNL     1       8.202   4.247  17.298  0.00  0.00    +0.000 OA
BRANCH  19  21
ATOM     21  O   UNL     1       7.488   5.139  15.303  0.00  0.00    +0.000 OA
BRANCH  21  22
ATOM     22  C   UNL     1       6.265   4.613  14.726  0.00  0.00    +0.000 C 
ATOM     23  C   UNL     1       5.230   5.727  14.529  0.00  0.00    +0.000 C 
ATOM     24  C   UNL     1       6.662   4.067  13.344  0.00  0.00    +0.000 C 
ATOM     25  C   UNL     1       5.715   3.446  15.556  0.00  0.00    +0.000 C 
ENDBRANCH  21  22
ENDBRANCH  19  21
ENDBRANCH  17  19
ENDBRANCH   3  17
TORSDOF 5
ENDMDL
MODEL 7
REMARK VINA RESULT:      -6.8      1.579      2.978
REMARK  Name = 
REMARK  10 active torsions:
REMARK  status: ('A' for Active; 'I' for Inactive)
REMARK    1  A    between atoms: C_1  and  C_2
REMARK    2  A    between atoms: C_7  and  C_8
REMARK    3  A    between atoms: N_10  and  C_11
REMARK    4  A    between atoms: C_11  and  C_12
REMARK    5  A    between atoms: C_11  and  C_13
REMARK    6  A    between atoms: C_13  and  O_15
REMARK    7  A    between atoms: O_15  and  C_16
REMARK    8  A    between atoms: C_16  and  C_17
REMARK    9  A    between atoms: C_16  and  C_18
REMARK   10  A    between atoms: C_16  and  C_19
REMARK                            x       y       z     vdW  Elec       q    Type
REMARK                         _______ _______ _______ _____ _____    ______ ____
ROOT
ATOM      1  C   UNL     1       2.511   6.251  19.237  0.00  0.00    +0.000 C 
ATOM      2  O   UNL     1       2.079   5.718  18.227  0.00  0.00    +0.000 OA
ATOM      3  N   UNL     1       3.655   5.806  19.859  0.00  0.00    +0.000 N 
ATOM      4  H   UNL     1       3.939   6.273  20.718  0.00  0.00    +0.000 HD
ENDROOT
BRANCH   1  11
ATOM      5  C   UNL     1      -0.608  11.668  18.387  0.00  0.00    +0.000 C 
ATOM      6  C   UNL     1       0.767  11.354  18.976  0.00  0.00    +0.000 C 
ATOM      7  C   UNL     1       0.657  10.730  20.382  0.00  0.00    +0.000 C 
ATOM      8  N   UNL     1       1.054   9.342  20.436  0.00  0.00    +0.000 N 
ATOM      9  C   UNL     1       0.988   8.521  21.519  0.00  0.00    +0.000 A 
ATOM     10  N   UNL     1       1.467   7.332  21.239  0.00  0.00    +0.000 NA
ATOM     11  C   UNL     1       1.886   7.397  19.908  0.00  0.00    +0.000 A 
ATOM     12  C   UNL     1       1.634   8.664  19.395  0.00  0.00    +0.000 A 
ATOM     13  C   UNL     1       1.895   9.262  18.117  0.00  0.00    +0.000 C 
ATOM     14  O   UNL     1       2.408   8.731  17.143  0.00  0.00    +0.000 OA
ATOM     15  N   UNL     1       1.543  10.586  18.018  0.00  0.00    +0.000 N 
ATOM     16  H   UNL     1       1.732  10.967  17.097  0.00  0.00    +0.000 HD
ENDBRANCH   1  11
BRANCH   3  17
ATOM     17  C   UNL     1       4.377   4.648  19.355  0.00  0.00    +0.000 C 
ATOM     18  C   UNL     1       3.583   3.365  19.585  0.00  0.00    +0.000 C 
BRANCH  17  19
ATOM     19  C   UNL     1       4.762   4.743  17.876  0.00  0.00    +0.000 C 
ATOM     20  O   UNL     1       4.443   3.895  17.051  0.00  0.00    +0.000 OA
BRANCH  19  21
ATOM     21  O   UNL     1       5.487   5.866  17.609  0.00  0.00    +0.000 OA
BRANCH  21  22
ATOM     22  C   UNL     1       6.850   5.741  17.128  0.00  0.00    +0.000 C 
ATOM     23  C   UNL     1       6.876   5.458  15.622  0.00  0.00    +0.000 C 
ATOM     24  C   UNL     1       7.504   7.110  17.379  0.00  0.00    +0.000 C 
ATOM     25  C   UNL     1       7.629   4.690  17.932  0.00  0.00    +0.000 C 
ENDBRANCH  21  22
ENDBRANCH  19  21
ENDBRANCH  17  19
ENDBRANCH   3  17
TORSDOF 5
ENDMDL
MODEL 8
REMARK VINA RESULT:      -6.8      1.849      3.108
REMARK  Name = 
REMARK  10 active torsions:
REMARK  status: ('A' for Active; 'I' for Inactive)
REMARK    1  A    between atoms: C_1  and  C_2
REMARK    2  A    between atoms: C_7  and  C_8
REMARK    3  A    between atoms: N_10  and  C_11
REMARK    4  A    between atoms: C_11  and  C_12
REMARK    5  A    between atoms: C_11  and  C_13
REMARK    6  A    between atoms: C_13  and  O_15
REMARK    7  A    between atoms: O_15  and  C_16
REMARK    8  A    between atoms: C_16  and  C_17
REMARK    9  A    between atoms: C_16  and  C_18
REMARK   10  A    between atoms: C_16  and  C_19
REMARK                            x       y       z     vdW  Elec       q    Type
REMARK                         _______ _______ _______ _____ _____    ______ ____
ROOT
ATOM      1  C   UNL     1       2.370   6.521  19.265  0.00  0.00    +0.000 C 
ATOM      2  O   UNL     1       1.986   5.370  19.407  0.00  0.00    +0.000 OA
ATOM      3  N   UNL     1       3.405   6.840  18.418  0.00  0.00    +0.000 N 
ATOM      4  H   UNL     1       3.699   7.814  18.375  0.00  0.00    +0.000 HD
ENDROOT
BRANCH   1  11
ATOM      5  C   UNL     1      -0.801  11.930  18.562  0.00  0.00    +0.000 C 
ATOM      6  C   UNL     1       0.616  11.623  19.045  0.00  0.00    +0.000 C 
ATOM      7  C   UNL     1       0.619  11.026  20.467  0.00  0.00    +0.000 C 
ATOM      8  N   UNL     1       1.017   9.639  20.516  0.00  0.00    +0.000 N 
ATOM      9  C   UNL     1       1.037   8.839  21.617  0.00  0.00    +0.000 A 
ATOM     10  N   UNL     1       1.491   7.643  21.323  0.00  0.00    +0.000 NA
ATOM     11  C   UNL     1       1.802   7.681  19.961  0.00  0.00    +0.000 A 
ATOM     12  C   UNL     1       1.511   8.939  19.445  0.00  0.00    +0.000 A 
ATOM     13  C   UNL     1       1.669   9.512  18.139  0.00  0.00    +0.000 C 
ATOM     14  O   UNL     1       2.102   8.961  17.138  0.00  0.00    +0.000 OA
ATOM     15  N   UNL     1       1.313  10.834  18.043  0.00  0.00    +0.000 N 
ATOM     16  H   UNL     1       1.427  11.197  17.102  0.00  0.00    +0.000 HD
ENDBRANCH   1  11
BRANCH   3  17
ATOM     17  C   UNL     1       4.116   5.804  17.683  0.00  0.00    +0.000 C 
ATOM     18  C   UNL     1       4.807   6.383  16.452  0.00  0.00    +0.000 C 
BRANCH  17  19
ATOM     19  C   UNL     1       5.139   5.032  18.518  0.00  0.00    +0.000 C 
ATOM     20  O   UNL     1       5.115   3.812  18.637  0.00  0.00    +0.000 OA
BRANCH  19  21
ATOM     21  O   UNL     1       6.056   5.859  19.096  0.00  0.00    +0.000 OA
BRANCH  21  22
ATOM     22  C   UNL     1       7.460   5.722  18.756  0.00  0.00    +0.000 C 
ATOM     23  C   UNL     1       7.662   4.630  17.700  0.00  0.00    +0.000 C 
ATOM     24  C   UNL     1       7.872   7.072  18.147  0.00  0.00    +0.000 C 
ATOM     25  C   UNL     1       8.315   5.487  20.009  0.00  0.00    +0.000 C 
ENDBRANCH  21  22
ENDBRANCH  19  21
ENDBRANCH  17  19
ENDBRANCH   3  17
TORSDOF 5
ENDMDL
MODEL 9
REMARK VINA RESULT:      -6.8      1.177      1.579
REMARK  Name = 
REMARK  10 active torsions:
REMARK  status: ('A' for Active; 'I' for Inactive)
REMARK    1  A    between atoms: C_1  and  C_2
REMARK    2  A    between atoms: C_7  and  C_8
REMARK    3  A    between atoms: N_10  and  C_11
REMARK    4  A    between atoms: C_11  and  C_12
REMARK    5  A    between atoms: C_11  and  C_13
REMARK    6  A    between atoms: C_13  and  O_15
REMARK    7  A    between atoms: O_15  and  C_16
REMARK    8  A    between atoms: C_16  and  C_17
REMARK    9  A    between atoms: C_16  and  C_18
REMARK   10  A    between atoms: C_16  and  C_19
REMARK                            x       y       z     vdW  Elec       q    Type
REMARK                         _______ _______ _______ _____ _____    ______ ____
ROOT
ATOM      1  C   UNL     1       2.433   6.385  18.847  0.00  0.00    +0.000 C 
ATOM      2  O   UNL     1       1.807   5.423  18.429  0.00  0.00    +0.000 OA
ATOM      3  N   UNL     1       3.778   6.536  18.603  0.00  0.00    +0.000 N 
ATOM      4  H   UNL     1       4.246   7.342  19.012  0.00  0.00    +0.000 HD
ENDROOT
BRANCH   1  11
ATOM      5  C   UNL     1      -0.555  11.937  18.642  0.00  0.00    +0.000 C 
ATOM      6  C   UNL     1       0.824  11.529  19.159  0.00  0.00    +0.000 C 
ATOM      7  C   UNL     1       0.731  10.766  20.496  0.00  0.00    +0.000 C 
ATOM      8  N   UNL     1       1.090   9.370  20.395  0.00  0.00    +0.000 N 
ATOM      9  C   UNL     1       1.028   8.444  21.390  0.00  0.00    +0.000 A 
ATOM     10  N   UNL     1       1.468   7.278  20.977  0.00  0.00    +0.000 NA
ATOM     11  C   UNL     1       1.856   7.470  19.648  0.00  0.00    +0.000 A 
ATOM     12  C   UNL     1       1.627   8.789  19.276  0.00  0.00    +0.000 A 
ATOM     13  C   UNL     1       1.873   9.510  18.060  0.00  0.00    +0.000 C 
ATOM     14  O   UNL     1       2.348   9.070  17.023  0.00  0.00    +0.000 OA
ATOM     15  N   UNL     1       1.556  10.845  18.106  0.00  0.00    +0.000 N 
ATOM     16  H   UNL     1       1.732  11.314  17.224  0.00  0.00    +0.000 HD
ENDBRANCH   1  11
BRANCH   3  17
ATOM     17  C   UNL     1       4.521   5.527  17.862  0.00  0.00    +0.000 C 
ATOM     18  C   UNL     1       5.507   6.174  16.894  0.00  0.00    +0.000 C 
BRANCH  17  19
ATOM     19  C   UNL     1       5.267   4.524  18.745  0.00  0.00    +0.000 C 
ATOM     20  O   UNL     1       6.430   4.194  18.539  0.00  0.00    +0.000 OA
BRANCH  19  21
ATOM     21  O   UNL     1       4.488   4.061  19.763  0.00  0.00    +0.000 OA
BRANCH  21  22
ATOM     22  C   UNL     1       3.917   2.729  19.679  0.00  0.00    +0.000 C 
ATOM     23  C   UNL     1       4.834   1.698  20.346  0.00  0.00    +0.000 C 
ATOM     24  C   UNL     1       2.599   2.794  20.469  0.00  0.00    +0.000 C 
ATOM     25  C   UNL     1       3.581   2.359  18.228  0.00  0.00    +0.000 C 
ENDBRANCH  21  22
ENDBRANCH  19  21
ENDBRANCH  17  19
ENDBRANCH   3  17
TORSDOF 5
ENDMDL
