MODEL 1
REMARK VINA RESULT:      -6.2      0.000      0.000
REMARK  Name = 
REMARK  6 active torsions:
REMARK  status: ('A' for Active; 'I' for Inactive)
REMARK    1  A    between atoms: C_1  and  C_2
REMARK    2  A    between atoms: C_2  and  C_3
REMARK    3  A    between atoms: C_13  and  S_14
REMARK    4  A    between atoms: S_14  and  N_17
REMARK    5  A    between atoms: C_21  and  C_22
REMARK    6  A    between atoms: C_22  and  O_24
REMARK                            x       y       z     vdW  Elec       q    Type
REMARK                         _______ _______ _______ _____ _____    ______ ____
ROOT
ATOM      1  C   UNL     1      -2.116  12.715  22.275  0.00  0.00    +0.000 C 
ATOM      2  O   UNL     1      -0.944  12.398  22.421  0.00  0.00    +0.000 OA
ATOM      3  N   UNL     1      -2.866  12.547  21.108  0.00  0.00    +0.000 N 
ATOM      4  C   UNL     1      -4.227  13.107  21.013  0.00  0.00    +0.000 C 
ATOM      5  C   UNL     1      -4.748  12.889  19.613  0.00  0.00    +0.000 C 
ATOM      6  C   UNL     1      -3.675  12.038  19.025  0.00  0.00    +0.000 A 
ATOM      7  C   UNL     1      -3.777  11.486  17.752  0.00  0.00    +0.000 A 
ATOM      8  C   UNL     1      -2.733  10.711  17.295  0.00  0.00    +0.000 A 
ATOM      9 BR   UNL     1      -2.837   9.897  15.594  0.00  0.00    +0.000 Br
ATOM     10  C   UNL     1      -1.609  10.517  18.096  0.00  0.00    +0.000 A 
ATOM     11  C   UNL     1      -1.496  11.093  19.390  0.00  0.00    +0.000 A 
ATOM     12  C   UNL     1      -2.561  11.863  19.884  0.00  0.00    +0.000 A 
ENDROOT
BRANCH  11  13
ATOM     13  S   UNL     1      -0.032  10.673  20.307  0.00  0.00    +0.000 S 
ATOM     14  O   UNL     1       0.852  11.822  20.300  0.00  0.00    +0.000 OA
ATOM     15  O   UNL     1      -0.479   9.967  21.489  0.00  0.00    +0.000 OA
BRANCH  13  16
ATOM     16  N   UNL     1       0.765   9.450  19.318  0.00  0.00    +0.000 NA
ATOM     17  C   UNL     1       1.785  10.013  18.374  0.00  0.00    +0.000 C 
ATOM     18  C   UNL     1       2.334   8.915  17.465  0.00  0.00    +0.000 C 
ATOM     19  C   UNL     1       2.914   7.768  18.283  0.00  0.00    +0.000 C 
ATOM     20  C   UNL     1       1.850   7.208  19.228  0.00  0.00    +0.000 C 
ATOM     21  C   UNL     1       1.276   8.303  20.122  0.00  0.00    +0.000 C 
BRANCH  20  22
ATOM     22  C   UNL     1       2.422   6.131  20.121  0.00  0.00    +0.000 C 
ATOM     23  O   UNL     1       1.788   5.525  20.971  0.00  0.00    +0.000 OA
BRANCH  22  24
ATOM     24  O   UNL     1       3.725   5.864  19.874  0.00  0.00    +0.000 OA
ATOM     25  H   UNL     1       4.205   5.424  20.600  0.00  0.00    +0.000 HD
ENDBRANCH  22  24
ENDBRANCH  20  22
ENDBRANCH  13  16
ENDBRANCH  11  13
BRANCH   1  27
ATOM     26  C   UNL     1      -3.712  12.505  24.305  0.00  0.00    +0.000 C 
ATOM     27  C   UNL     1      -2.873  13.409  23.421  0.00  0.00    +0.000 C 
ENDBRANCH   1  27
TORSDOF 5
ENDMDL
MODEL 2
REMARK VINA RESULT:      -6.2      2.962      3.793
REMARK  Name = 
REMARK  6 active torsions:
REMARK  status: ('A' for Active; 'I' for Inactive)
REMARK    1  A    between atoms: C_1  and  C_2
REMARK    2  A    between atoms: C_2  and  C_3
REMARK    3  A    between atoms: C_13  and  S_14
REMARK    4  A    between atoms: S_14  and  N_17
REMARK    5  A    between atoms: C_21  and  C_22
REMARK    6  A    between atoms: C_22  and  O_24
REMARK                            x       y       z     vdW  Elec       q    Type
REMARK                         _______ _______ _______ _____ _____    ______ ____
ROOT
ATOM      1  C   UNL     1      -6.254  13.979  21.807  0.00  0.00    +0.000 C 
ATOM      2  O   UNL     1      -5.201  14.234  22.374  0.00  0.00    +0.000 OA
ATOM      3  N   UNL     1      -6.380  13.373  20.554  0.00  0.00    +0.000 N 
ATOM      4  C   UNL     1      -7.703  13.258  19.914  0.00  0.00    +0.000 C 
ATOM      5  C   UNL     1      -7.527  12.685  18.528  0.00  0.00    +0.000 C 
ATOM      6  C   UNL     1      -6.077  12.341  18.531  0.00  0.00    +0.000 A 
ATOM      7  C   UNL     1      -5.470  11.668  17.474  0.00  0.00    +0.000 A 
ATOM      8  C   UNL     1      -4.123  11.394  17.568  0.00  0.00    +0.000 A 
ATOM      9 BR   UNL     1      -3.256  10.442  16.186  0.00  0.00    +0.000 Br
ATOM     10  C   UNL     1      -3.406  11.804  18.691  0.00  0.00    +0.000 A 
ATOM     11  C   UNL     1      -4.021  12.505  19.763  0.00  0.00    +0.000 A 
ATOM     12  C   UNL     1      -5.398  12.770  19.698  0.00  0.00    +0.000 A 
ENDROOT
BRANCH  11  13
ATOM     13  S   UNL     1      -2.976  12.878  21.153  0.00  0.00    +0.000 S 
ATOM     14  O   UNL     1      -2.741  14.308  21.171  0.00  0.00    +0.000 OA
ATOM     15  O   UNL     1      -3.480  12.097  22.263  0.00  0.00    +0.000 OA
BRANCH  13  16
ATOM     16  N   UNL     1      -1.427  12.143  20.742  0.00  0.00    +0.000 NA
ATOM     17  C   UNL     1      -0.376  13.138  20.352  0.00  0.00    +0.000 C 
ATOM     18  C   UNL     1       0.890  12.421  19.886  0.00  0.00    +0.000 C 
ATOM     19  C   UNL     1       1.404  11.468  20.958  0.00  0.00    +0.000 C 
ATOM     20  C   UNL     1       0.315  10.459  21.329  0.00  0.00    +0.000 C 
ATOM     21  C   UNL     1      -0.963  11.167  21.770  0.00  0.00    +0.000 C 
BRANCH  20  22
ATOM     22  C   UNL     1       0.762   9.560  22.458  0.00  0.00    +0.000 C 
ATOM     23  O   UNL     1       0.400   9.671  23.618  0.00  0.00    +0.000 OA
BRANCH  22  24
ATOM     24  O   UNL     1       1.599   8.574  22.060  0.00  0.00    +0.000 OA
ATOM     25  H   UNL     1       2.371   8.867  21.542  0.00  0.00    +0.000 HD
ENDBRANCH  22  24
ENDBRANCH  20  22
ENDBRANCH  13  16
ENDBRANCH  11  13
BRANCH   1  27
ATOM     26  C   UNL     1      -7.640  14.327  23.968  0.00  0.00    +0.000 C 
ATOM     27  C   UNL     1      -7.592  14.384  22.452  0.00  0.00    +0.000 C 
ENDBRANCH   1  27
TORSDOF 5
ENDMDL
MODEL 3
REMARK VINA RESULT:      -6.2      3.252      7.285
REMARK  Name = 
REMARK  6 active torsions:
REMARK  status: ('A' for Active; 'I' for Inactive)
REMARK    1  A    between atoms: C_1  and  C_2
REMARK    2  A    between atoms: C_2  and  C_3
REMARK    3  A    between atoms: C_13  and  S_14
REMARK    4  A    between atoms: S_14  and  N_17
REMARK    5  A    between atoms: C_21  and  C_22
REMARK    6  A    between atoms: C_22  and  O_24
REMARK                            x       y       z     vdW  Elec       q    Type
REMARK                         _______ _______ _______ _____ _____    ______ ____
ROOT
ATOM      1  C   UNL     1       0.868  10.491  18.398  0.00  0.00    +0.000 C 
ATOM      2  O   UNL     1      -0.256  10.065  18.624  0.00  0.00    +0.000 OA
ATOM      3  N   UNL     1       1.266  11.828  18.485  0.00  0.00    +0.000 N 
ATOM      4  C   UNL     1       2.613  12.231  18.041  0.00  0.00    +0.000 C 
ATOM      5  C   UNL     1       2.724  13.735  18.127  0.00  0.00    +0.000 C 
ATOM      6  C   UNL     1       1.443  14.090  18.798  0.00  0.00    +0.000 A 
ATOM      7  C   UNL     1       1.146  15.392  19.193  0.00  0.00    +0.000 A 
ATOM      8  C   UNL     1      -0.066  15.622  19.808  0.00  0.00    +0.000 A 
ATOM      9 BR   UNL     1      -0.503  17.359  20.408  0.00  0.00    +0.000 Br
ATOM     10  C   UNL     1      -0.960  14.570  20.000  0.00  0.00    +0.000 A 
ATOM     11  C   UNL     1      -0.665  13.245  19.583  0.00  0.00    +0.000 A 
ATOM     12  C   UNL     1       0.575  12.984  18.979  0.00  0.00    +0.000 A 
ENDROOT
BRANCH  11  13
ATOM     13  S   UNL     1      -1.882  12.011  19.982  0.00  0.00    +0.000 S 
ATOM     14  O   UNL     1      -2.500  11.569  18.748  0.00  0.00    +0.000 OA
ATOM     15  O   UNL     1      -1.278  11.147  20.974  0.00  0.00    +0.000 OA
BRANCH  13  16
ATOM     16  N   UNL     1      -3.133  12.900  20.851  0.00  0.00    +0.000 NA
ATOM     17  C   UNL     1      -4.481  12.831  20.199  0.00  0.00    +0.000 C 
ATOM     18  C   UNL     1      -5.476  13.728  20.935  0.00  0.00    +0.000 C 
ATOM     19  C   UNL     1      -5.557  13.358  22.411  0.00  0.00    +0.000 C 
ATOM     20  C   UNL     1      -4.170  13.446  23.051  0.00  0.00    +0.000 C 
ATOM     21  C   UNL     1      -3.164  12.574  22.306  0.00  0.00    +0.000 C 
BRANCH  20  22
ATOM     22  C   UNL     1      -4.202  12.993  24.492  0.00  0.00    +0.000 C 
ATOM     23  O   UNL     1      -4.577  11.892  24.865  0.00  0.00    +0.000 OA
BRANCH  22  24
ATOM     24  O   UNL     1      -3.741  13.924  25.358  0.00  0.00    +0.000 OA
ATOM     25  H   UNL     1      -4.421  14.509  25.742  0.00  0.00    +0.000 HD
ENDBRANCH  22  24
ENDBRANCH  20  22
ENDBRANCH  13  16
ENDBRANCH  11  13
BRANCH   1  27
ATOM     26  C   UNL     1       2.102   8.232  18.701  0.00  0.00    +0.000 C 
ATOM     27  C   UNL     1       1.973   9.530  17.924  0.00  0.00    +0.000 C 
ENDBRANCH   1  27
TORSDOF 5
ENDMDL
MODEL 4
REMARK VINA RESULT:      -5.8      2.436      6.956
REMARK  Name = 
REMARK  6 active torsions:
REMARK  status: ('A' for Active; 'I' for Inactive)
REMARK    1  A    between atoms: C_1  and  C_2
REMARK    2  A    between atoms: C_2  and  C_3
REMARK    3  A    between atoms: C_13  and  S_14
REMARK    4  A    between atoms: S_14  and  N_17
REMARK    5  A    between atoms: C_21  and  C_22
REMARK    6  A    between atoms: C_22  and  O_24
REMARK                            x       y       z     vdW  Elec       q    Type
REMARK                         _______ _______ _______ _____ _____    ______ ____
ROOT
ATOM      1  C   UNL     1       0.361  10.338  19.074  0.00  0.00    +0.000 C 
ATOM      2  O   UNL     1       0.754  10.654  20.188  0.00  0.00    +0.000 OA
ATOM      3  N   UNL     1      -0.930  10.539  18.577  0.00  0.00    +0.000 N 
ATOM      4  C   UNL     1      -1.318   9.977  17.271  0.00  0.00    +0.000 C 
ATOM      5  C   UNL     1      -2.788  10.236  17.046  0.00  0.00    +0.000 C 
ATOM      6  C   UNL     1      -3.117  11.109  18.207  0.00  0.00    +0.000 A 
ATOM      7  C   UNL     1      -4.368  11.700  18.363  0.00  0.00    +0.000 A 
ATOM      8  C   UNL     1      -4.578  12.493  19.470  0.00  0.00    +0.000 A 
ATOM      9 BR   UNL     1      -6.239  13.359  19.709  0.00  0.00    +0.000 Br
ATOM     10  C   UNL     1      -3.558  12.667  20.404  0.00  0.00    +0.000 A 
ATOM     11  C   UNL     1      -2.287  12.051  20.256  0.00  0.00    +0.000 A 
ATOM     12  C   UNL     1      -2.044  11.262  19.120  0.00  0.00    +0.000 A 
ENDROOT
BRANCH  11  13
ATOM     13  S   UNL     1      -1.076  12.448  21.497  0.00  0.00    +0.000 S 
ATOM     14  O   UNL     1      -0.725  11.227  22.193  0.00  0.00    +0.000 OA
ATOM     15  O   UNL     1      -0.137  13.358  20.875  0.00  0.00    +0.000 OA
BRANCH  13  16
ATOM     16  N   UNL     1      -1.958  13.430  22.666  0.00  0.00    +0.000 NA
ATOM     17  C   UNL     1      -2.972  12.657  23.454  0.00  0.00    +0.000 C 
ATOM     18  C   UNL     1      -3.782  13.596  24.347  0.00  0.00    +0.000 C 
ATOM     19  C   UNL     1      -2.869  14.401  25.263  0.00  0.00    +0.000 C 
ATOM     20  C   UNL     1      -1.852  15.186  24.431  0.00  0.00    +0.000 C 
ATOM     21  C   UNL     1      -1.057  14.259  23.516  0.00  0.00    +0.000 C 
BRANCH  20  22
ATOM     22  C   UNL     1      -0.871  15.921  25.316  0.00  0.00    +0.000 C 
ATOM     23  O   UNL     1       0.190  16.390  24.934  0.00  0.00    +0.000 OA
BRANCH  22  24
ATOM     24  O   UNL     1      -1.291  16.046  26.596  0.00  0.00    +0.000 OA
ATOM     25  H   UNL     1      -2.217  16.335  26.704  0.00  0.00    +0.000 HD
ENDBRANCH  22  24
ENDBRANCH  20  22
ENDBRANCH  13  16
ENDBRANCH  11  13
BRANCH   1  27
ATOM     26  C   UNL     1       1.972   8.353  18.649  0.00  0.00    +0.000 C 
ATOM     27  C   UNL     1       1.306   9.605  18.106  0.00  0.00    +0.000 C 
ENDBRANCH   1  27
TORSDOF 5
ENDMDL
MODEL 5
REMARK VINA RESULT:      -5.8      4.463      7.702
REMARK  Name = 
REMARK  6 active torsions:
REMARK  status: ('A' for Active; 'I' for Inactive)
REMARK    1  A    between atoms: C_1  and  C_2
REMARK    2  A    between atoms: C_2  and  C_3
REMARK    3  A    between atoms: C_13  and  S_14
REMARK    4  A    between atoms: S_14  and  N_17
REMARK    5  A    between atoms: C_21  and  C_22
REMARK    6  A    between atoms: C_22  and  O_24
REMARK                            x       y       z     vdW  Elec       q    Type
REMARK                         _______ _______ _______ _____ _____    ______ ____
ROOT
ATOM      1  C   UNL     1       1.418   9.950  19.161  0.00  0.00    +0.000 C 
ATOM      2  O   UNL     1       1.940  10.862  18.537  0.00  0.00    +0.000 OA
ATOM      3  N   UNL     1       0.668  10.088  20.333  0.00  0.00    +0.000 N 
ATOM      4  C   UNL     1       0.218   8.894  21.071  0.00  0.00    +0.000 C 
ATOM      5  C   UNL     1      -0.453   9.335  22.350  0.00  0.00    +0.000 C 
ATOM      6  C   UNL     1      -0.492  10.813  22.170  0.00  0.00    +0.000 A 
ATOM      7  C   UNL     1      -1.137  11.655  23.073  0.00  0.00    +0.000 A 
ATOM      8  C   UNL     1      -1.120  13.010  22.820  0.00  0.00    +0.000 A 
ATOM      9 BR   UNL     1      -2.018  14.196  23.984  0.00  0.00    +0.000 Br
ATOM     10  C   UNL     1      -0.454  13.501  21.699  0.00  0.00    +0.000 A 
ATOM     11  C   UNL     1       0.218  12.644  20.786  0.00  0.00    +0.000 A 
ATOM     12  C   UNL     1       0.189  11.259  21.010  0.00  0.00    +0.000 A 
ENDROOT
BRANCH  11  13
ATOM     13  S   UNL     1       0.943  13.431  19.365  0.00  0.00    +0.000 S 
ATOM     14  O   UNL     1       2.368  13.171  19.383  0.00  0.00    +0.000 OA
ATOM     15  O   UNL     1       0.055  13.163  18.254  0.00  0.00    +0.000 OA
BRANCH  13  16
ATOM     16  N   UNL     1       0.766  15.155  19.686  0.00  0.00    +0.000 NA
ATOM     17  C   UNL     1       2.036  15.816  20.130  0.00  0.00    +0.000 C 
ATOM     18  C   UNL     1       1.774  17.272  20.513  0.00  0.00    +0.000 C 
ATOM     19  C   UNL     1       1.131  18.033  19.360  0.00  0.00    +0.000 C 
ATOM     20  C   UNL     1      -0.166  17.342  18.934  0.00  0.00    +0.000 C 
ATOM     21  C   UNL     1       0.082  15.880  18.576  0.00  0.00    +0.000 C 
BRANCH  20  22
ATOM     22  C   UNL     1      -0.778  18.019  17.730  0.00  0.00    +0.000 C 
ATOM     23  O   UNL     1      -0.251  18.088  16.631  0.00  0.00    +0.000 OA
BRANCH  22  24
ATOM     24  O   UNL     1      -2.007  18.533  17.969  0.00  0.00    +0.000 OA
ATOM     25  H   UNL     1      -2.054  19.176  18.700  0.00  0.00    +0.000 HD
ENDBRANCH  22  24
ENDBRANCH  20  22
ENDBRANCH  13  16
ENDBRANCH  11  13
BRANCH   1  27
ATOM     26  C   UNL     1       2.772   8.246  17.756  0.00  0.00    +0.000 C 
ATOM     27  C   UNL     1       1.608   8.494  18.699  0.00  0.00    +0.000 C 
ENDBRANCH   1  27
TORSDOF 5
ENDMDL
MODEL 6
REMARK VINA RESULT:      -5.7      2.805      7.202
REMARK  Name = 
REMARK  6 active torsions:
REMARK  status: ('A' for Active; 'I' for Inactive)
REMARK    1  A    between atoms: C_1  and  C_2
REMARK    2  A    between atoms: C_2  and  C_3
REMARK    3  A    between atoms: C_13  and  S_14
REMARK    4  A    between atoms: S_14  and  N_17
REMARK    5  A    between atoms: C_21  and  C_22
REMARK    6  A    between atoms: C_22  and  O_24
REMARK                            x       y       z     vdW  Elec       q    Type
REMARK                         _______ _______ _______ _____ _____    ______ ____
ROOT
ATOM      1  C   UNL     1      -0.373  10.907  19.148  0.00  0.00    +0.000 C 
ATOM      2  O   UNL     1      -0.246  11.431  20.245  0.00  0.00    +0.000 OA
ATOM      3  N   UNL     1      -1.569  10.791  18.433  0.00  0.00    +0.000 N 
ATOM      4  C   UNL     1      -1.615  10.003  17.188  0.00  0.00    +0.000 C 
ATOM      5  C   UNL     1      -3.043   9.944  16.701  0.00  0.00    +0.000 C 
ATOM      6  C   UNL     1      -3.718  10.878  17.645  0.00  0.00    +0.000 A 
ATOM      7  C   UNL     1      -5.058  11.233  17.511  0.00  0.00    +0.000 A 
ATOM      8  C   UNL     1      -5.593  12.105  18.434  0.00  0.00    +0.000 A 
ATOM      9 BR   UNL     1      -7.392  12.660  18.274  0.00  0.00    +0.000 Br
ATOM     10  C   UNL     1      -4.802  12.589  19.475  0.00  0.00    +0.000 A 
ATOM     11  C   UNL     1      -3.440  12.215  19.622  0.00  0.00    +0.000 A 
ATOM     12  C   UNL     1      -2.868  11.349  18.677  0.00  0.00    +0.000 A 
ENDROOT
BRANCH  11  13
ATOM     13  S   UNL     1      -2.556  12.992  20.957  0.00  0.00    +0.000 S 
ATOM     14  O   UNL     1      -2.090  11.955  21.854  0.00  0.00    +0.000 OA
ATOM     15  O   UNL     1      -1.728  14.016  20.356  0.00  0.00    +0.000 OA
BRANCH  13  16
ATOM     16  N   UNL     1      -3.799  13.872  21.846  0.00  0.00    +0.000 NA
ATOM     17  C   UNL     1      -4.525  14.886  21.016  0.00  0.00    +0.000 C 
ATOM     18  C   UNL     1      -5.490  15.694  21.884  0.00  0.00    +0.000 C 
ATOM     19  C   UNL     1      -6.465  14.778  22.613  0.00  0.00    +0.000 C 
ATOM     20  C   UNL     1      -5.697  13.760  23.458  0.00  0.00    +0.000 C 
ATOM     21  C   UNL     1      -4.712  12.968  22.604  0.00  0.00    +0.000 C 
BRANCH  20  22
ATOM     22  C   UNL     1      -6.635  12.777  24.119  0.00  0.00    +0.000 C 
ATOM     23  O   UNL     1      -7.842  12.932  24.222  0.00  0.00    +0.000 OA
BRANCH  22  24
ATOM     24  O   UNL     1      -6.014  11.665  24.576  0.00  0.00    +0.000 OA
ATOM     25  H   UNL     1      -5.167  11.453  24.141  0.00  0.00    +0.000 HD
ENDBRANCH  22  24
ENDBRANCH  20  22
ENDBRANCH  13  16
ENDBRANCH  11  13
BRANCH   1  27
ATOM     26  C   UNL     1       1.434   9.050  19.178  0.00  0.00    +0.000 C 
ATOM     27  C   UNL     1       0.840  10.252  18.464  0.00  0.00    +0.000 C 
ENDBRANCH   1  27
TORSDOF 5
ENDMDL
MODEL 7
REMARK VINA RESULT:      -5.7      2.813      6.913
REMARK  Name = 
REMARK  6 active torsions:
REMARK  status: ('A' for Active; 'I' for Inactive)
REMARK    1  A    between atoms: C_1  and  C_2
REMARK    2  A    between atoms: C_2  and  C_3
REMARK    3  A    between atoms: C_13  and  S_14
REMARK    4  A    between atoms: S_14  and  N_17
REMARK    5  A    between atoms: C_21  and  C_22
REMARK    6  A    between atoms: C_22  and  O_24
REMARK                            x       y       z     vdW  Elec       q    Type
REMARK                         _______ _______ _______ _____ _____    ______ ____
ROOT
ATOM      1  C   UNL     1       0.572  10.152  18.744  0.00  0.00    +0.000 C 
ATOM      2  O   UNL     1       1.172  10.534  19.739  0.00  0.00    +0.000 OA
ATOM      3  N   UNL     1      -0.771  10.406  18.453  0.00  0.00    +0.000 N 
ATOM      4  C   UNL     1      -1.414   9.762  17.293  0.00  0.00    +0.000 C 
ATOM      5  C   UNL     1      -2.883  10.112  17.294  0.00  0.00    +0.000 C 
ATOM      6  C   UNL     1      -2.952  11.106  18.401  0.00  0.00    +0.000 A 
ATOM      7  C   UNL     1      -4.119  11.802  18.704  0.00  0.00    +0.000 A 
ATOM      8  C   UNL     1      -4.083  12.703  19.747  0.00  0.00    +0.000 A 
ATOM      9 BR   UNL     1      -5.623  13.711  20.173  0.00  0.00    +0.000 Br
ATOM     10  C   UNL     1      -2.908  12.880  20.474  0.00  0.00    +0.000 A 
ATOM     11  C   UNL     1      -1.721  12.158  20.176  0.00  0.00    +0.000 A 
ATOM     12  C   UNL     1      -1.728  11.256  19.101  0.00  0.00    +0.000 A 
ENDROOT
BRANCH  11  13
ATOM     13  S   UNL     1      -0.291  12.570  21.150  0.00  0.00    +0.000 S 
ATOM     14  O   UNL     1      -0.006  11.454  22.029  0.00  0.00    +0.000 OA
ATOM     15  O   UNL     1       0.655  13.187  20.245  0.00  0.00    +0.000 OA
BRANCH  13  16
ATOM     16  N   UNL     1      -0.841  13.877  22.198  0.00  0.00    +0.000 NA
ATOM     17  C   UNL     1      -1.462  13.400  23.476  0.00  0.00    +0.000 C 
ATOM     18  C   UNL     1      -2.028  14.579  24.267  0.00  0.00    +0.000 C 
ATOM     19  C   UNL     1      -0.953  15.625  24.533  0.00  0.00    +0.000 C 
ATOM     20  C   UNL     1      -0.345  16.100  23.211  0.00  0.00    +0.000 C 
ATOM     21  C   UNL     1       0.200  14.926  22.403  0.00  0.00    +0.000 C 
BRANCH  20  22
ATOM     22  C   UNL     1       0.791  17.069  23.448  0.00  0.00    +0.000 C 
ATOM     23  O   UNL     1       1.141  17.932  22.659  0.00  0.00    +0.000 OA
BRANCH  22  24
ATOM     24  O   UNL     1       1.385  16.916  24.653  0.00  0.00    +0.000 OA
ATOM     25  H   UNL     1       2.329  17.161  24.686  0.00  0.00    +0.000 HD
ENDBRANCH  22  24
ENDBRANCH  20  22
ENDBRANCH  13  16
ENDBRANCH  11  13
BRANCH   1  27
ATOM     26  C   UNL     1       2.221   8.210  18.272  0.00  0.00    +0.000 C 
ATOM     27  C   UNL     1       1.288   9.266  17.708  0.00  0.00    +0.000 C 
ENDBRANCH   1  27
TORSDOF 5
ENDMDL
MODEL 8
REMARK VINA RESULT:      -5.6      4.113      6.531
REMARK  Name = 
REMARK  6 active torsions:
REMARK  status: ('A' for Active; 'I' for Inactive)
REMARK    1  A    between atoms: C_1  and  C_2
REMARK    2  A    between atoms: C_2  and  C_3
REMARK    3  A    between atoms: C_13  and  S_14
REMARK    4  A    between atoms: S_14  and  N_17
REMARK    5  A    between atoms: C_21  and  C_22
REMARK    6  A    between atoms: C_22  and  O_24
REMARK                            x       y       z     vdW  Elec       q    Type
REMARK                         _______ _______ _______ _____ _____    ______ ____
ROOT
ATOM      1  C   UNL     1      -2.949  11.294  17.579  0.00  0.00    +0.000 C 
ATOM      2  O   UNL     1      -1.749  11.198  17.369  0.00  0.00    +0.000 OA
ATOM      3  N   UNL     1      -3.536  11.847  18.721  0.00  0.00    +0.000 N 
ATOM      4  C   UNL     1      -4.995  11.767  18.919  0.00  0.00    +0.000 C 
ATOM      5  C   UNL     1      -5.333  12.325  20.280  0.00  0.00    +0.000 C 
ATOM      6  C   UNL     1      -4.014  12.862  20.718  0.00  0.00    +0.000 A 
ATOM      7  C   UNL     1      -3.860  13.584  21.899  0.00  0.00    +0.000 A 
ATOM      8  C   UNL     1      -2.599  14.040  22.219  0.00  0.00    +0.000 A 
ATOM      9 BR   UNL     1      -2.338  15.067  23.783  0.00  0.00    +0.000 Br
ATOM     10  C   UNL     1      -1.523  13.758  21.380  0.00  0.00    +0.000 A 
ATOM     11  C   UNL     1      -1.676  13.007  20.184  0.00  0.00    +0.000 A 
ATOM     12  C   UNL     1      -2.956  12.556  19.826  0.00  0.00    +0.000 A 
ENDROOT
BRANCH  11  13
ATOM     13  S   UNL     1      -0.214  12.812  19.191  0.00  0.00    +0.000 S 
ATOM     14  O   UNL     1       0.280  11.462  19.373  0.00  0.00    +0.000 OA
ATOM     15  O   UNL     1      -0.500  13.434  17.916  0.00  0.00    +0.000 OA
BRANCH  13  16
ATOM     16  N   UNL     1       0.975  13.864  19.957  0.00  0.00    +0.000 NA
ATOM     17  C   UNL     1       2.185  13.136  20.459  0.00  0.00    +0.000 C 
ATOM     18  C   UNL     1       3.103  14.090  21.223  0.00  0.00    +0.000 C 
ATOM     19  C   UNL     1       3.496  15.280  20.356  0.00  0.00    +0.000 C 
ATOM     20  C   UNL     1       2.243  16.008  19.866  0.00  0.00    +0.000 C 
ATOM     21  C   UNL     1       1.307  15.057  19.126  0.00  0.00    +0.000 C 
BRANCH  20  22
ATOM     22  C   UNL     1       2.598  17.138  18.927  0.00  0.00    +0.000 C 
ATOM     23  O   UNL     1       3.430  17.063  18.036  0.00  0.00    +0.000 OA
BRANCH  22  24
ATOM     24  O   UNL     1       1.876  18.262  19.140  0.00  0.00    +0.000 OA
ATOM     25  H   UNL     1       2.234  19.071  18.730  0.00  0.00    +0.000 HD
ENDBRANCH  22  24
ENDBRANCH  20  22
ENDBRANCH  13  16
ENDBRANCH  11  13
BRANCH   1  27
ATOM     26  C   UNL     1      -3.421  10.499  15.158  0.00  0.00    +0.000 C 
ATOM     27  C   UNL     1      -3.955  10.729  16.561  0.00  0.00    +0.000 C 
ENDBRANCH   1  27
TORSDOF 5
ENDMDL
MODEL 9
REMARK VINA RESULT:      -5.6      2.299      6.730
REMARK  Name = 
REMARK  6 active torsions:
REMARK  status: ('A' for Active; 'I' for Inactive)
REMARK    1  A    between atoms: C_1  and  C_2
REMARK    2  A    between atoms: C_2  and  C_3
REMARK    3  A    between atoms: C_13  and  S_14
REMARK    4  A    between atoms: S_14  and  N_17
REMARK    5  A    between atoms: C_21  and  C_22
REMARK    6  A    between atoms: C_22  and  O_24
REMARK                            x       y       z     vdW  Elec       q    Type
REMARK                         _______ _______ _______ _____ _____    ______ ____
ROOT
ATOM      1  C   UNL     1       0.834   9.828  19.334  0.00  0.00    +0.000 C 
ATOM      2  O   UNL     1       1.197   9.938  20.496  0.00  0.00    +0.000 OA
ATOM      3  N   UNL     1      -0.391  10.259  18.818  0.00  0.00    +0.000 N 
ATOM      4  C   UNL     1      -0.769   9.932  17.430  0.00  0.00    +0.000 C 
ATOM      5  C   UNL     1      -2.180  10.407  17.184  0.00  0.00    +0.000 C 
ATOM      6  C   UNL     1      -2.467  11.152  18.442  0.00  0.00    +0.000 A 
ATOM      7  C   UNL     1      -3.643  11.875  18.628  0.00  0.00    +0.000 A 
ATOM      8  C   UNL     1      -3.817  12.532  19.826  0.00  0.00    +0.000 A 
ATOM      9 BR   UNL     1      -5.371  13.567  20.115  0.00  0.00    +0.000 Br
ATOM     10  C   UNL     1      -2.840  12.446  20.816  0.00  0.00    +0.000 A 
ATOM     11  C   UNL     1      -1.647  11.696  20.634  0.00  0.00    +0.000 A 
ATOM     12  C   UNL     1      -1.438  11.041  19.411  0.00  0.00    +0.000 A 
ENDROOT
BRANCH  11  13
ATOM     13  S   UNL     1      -0.471  11.763  21.967  0.00  0.00    +0.000 S 
ATOM     14  O   UNL     1      -0.318  10.426  22.503  0.00  0.00    +0.000 OA
ATOM     15  O   UNL     1       0.609  12.614  21.515  0.00  0.00    +0.000 OA
BRANCH  13  16
ATOM     16  N   UNL     1      -1.291  12.691  23.222  0.00  0.00    +0.000 NA
ATOM     17  C   UNL     1      -0.946  14.149  23.212  0.00  0.00    +0.000 C 
ATOM     18  C   UNL     1      -1.589  14.858  24.404  0.00  0.00    +0.000 C 
ATOM     19  C   UNL     1      -3.099  14.649  24.414  0.00  0.00    +0.000 C 
ATOM     20  C   UNL     1      -3.420  13.153  24.433  0.00  0.00    +0.000 C 
ATOM     21  C   UNL     1      -2.759  12.432  23.262  0.00  0.00    +0.000 C 
BRANCH  20  22
ATOM     22  C   UNL     1      -4.910  12.912  24.348  0.00  0.00    +0.000 C 
ATOM     23  O   UNL     1      -5.713  13.695  23.865  0.00  0.00    +0.000 OA
BRANCH  22  24
ATOM     24  O   UNL     1      -5.288  11.709  24.837  0.00  0.00    +0.000 OA
ATOM     25  H   UNL     1      -4.874  10.936  24.410  0.00  0.00    +0.000 HD
ENDBRANCH  22  24
ENDBRANCH  20  22
ENDBRANCH  13  16
ENDBRANCH  11  13
BRANCH   1  27
ATOM     26  C   UNL     1       2.309   7.779  18.750  0.00  0.00    +0.000 C 
ATOM     27  C   UNL     1       1.737   9.115  18.311  0.00  0.00    +0.000 C 
ENDBRANCH   1  27
TORSDOF 5
ENDMDL
