MODEL 1
REMARK VINA RESULT:      -8.4      0.000      0.000
REMARK  Name = 
REMARK  9 active torsions:
REMARK  status: ('A' for Active; 'I' for Inactive)
REMARK    1  A    between atoms: C_1  and  C_2
REMARK    2  A    between atoms: C_2  and  C_3
REMARK    3  A    between atoms: C_3  and  C_4
REMARK    4  A    between atoms: N_6  and  C_7
REMARK    5  A    between atoms: N_10  and  C_11
REMARK    6  A    between atoms: C_11  and  C_12
REMARK    7  A    between atoms: C_12  and  C_13
REMARK    8  A    between atoms: C_21  and  C_22
REMARK    9  A    between atoms: C_23  and  C_24
REMARK                            x       y       z     vdW  Elec       q    Type
REMARK                         _______ _______ _______ _____ _____    ______ ____
ROOT
ATOM      1  C   UNL     1       3.758   3.795  17.272  0.00  0.00    +0.000 A 
ATOM      2  N   UNL     1       4.925   3.322  16.824  0.00  0.00    +0.000 NA
ATOM      3  N   UNL     1       5.700   4.432  16.720  0.00  0.00    +0.000 N 
ATOM      4  C   UNL     1       7.056   4.273  16.249  0.00  0.00    +0.000 C 
ATOM      5  C   UNL     1       5.072   5.586  17.103  0.00  0.00    +0.000 A 
ATOM      6  C   UNL     1       5.442   6.925  17.260  0.00  0.00    +0.000 A 
ATOM      7  N   UNL     1       6.729   7.382  17.027  0.00  0.00    +0.000 N 
ATOM      8  N   UNL     1       4.482   7.759  17.741  0.00  0.00    +0.000 NA
ATOM      9  C   UNL     1       3.250   7.281  18.018  0.00  0.00    +0.000 A 
ATOM     10  N   UNL     1       2.843   6.018  17.897  0.00  0.00    +0.000 NA
ATOM     11  C   UNL     1       3.800   5.189  17.452  0.00  0.00    +0.000 A 
ATOM     12  H   UNL     1       7.167   7.115  16.155  0.00  0.00    +0.000 HD
ENDROOT
BRANCH   9  13
ATOM     13  C   UNL     1       2.208   8.184  18.520  0.00  0.00    +0.000 C 
ATOM     14  C   UNL     1       1.499   9.075  17.810  0.00  0.00    +0.000 C 
BRANCH  14  15
ATOM     15  C   UNL     1       0.458   9.933  18.403  0.00  0.00    +0.000 A 
ATOM     16  C   UNL     1      -0.787  10.043  17.772  0.00  0.00    +0.000 A 
ATOM     17  C   UNL     1      -1.772  10.862  18.314  0.00  0.00    +0.000 A 
ATOM     18  C   UNL     1      -1.487  11.571  19.471  0.00  0.00    +0.000 A 
ATOM     19  N   UNL     1      -0.300  11.506  20.110  0.00  0.00    +0.000 NA
ATOM     20  C   UNL     1       0.640  10.697  19.556  0.00  0.00    +0.000 A 
ENDBRANCH  14  15
ENDBRANCH   9  13
BRANCH   1  21
ATOM     21  C   UNL     1       2.592   2.904  17.540  0.00  0.00    +0.000 C 
BRANCH  21  23
ATOM     22  C   UNL     1       1.067   2.832  19.579  0.00  0.00    +0.000 C 
ATOM     23  C   UNL     1       2.450   2.536  19.017  0.00  0.00    +0.000 C 
ENDBRANCH  21  23
ENDBRANCH   1  21
BRANCH   7  24
ATOM     24  C   UNL     1       7.105   8.644  17.654  0.00  0.00    +0.000 C 
BRANCH  24  25
ATOM     25  C   UNL     1       8.473   8.537  18.337  0.00  0.00    +0.000 C 
BRANCH  25  26
ATOM     26  C   UNL     1       9.008   9.883  18.776  0.00  0.00    +0.000 A 
ATOM     27  C   UNL     1       9.179  10.163  20.138  0.00  0.00    +0.000 A 
ATOM     28  C   UNL     1       9.664  11.404  20.557  0.00  0.00    +0.000 A 
ATOM     29  C   UNL     1       9.991  12.381  19.614  0.00  0.00    +0.000 A 
ATOM     30  C   UNL     1       9.833  12.106  18.258  0.00  0.00    +0.000 A 
ATOM     31 CL   UNL     1      10.233  13.313  17.096  0.00  0.00    +0.000 Cl
ATOM     32  C   UNL     1       9.349  10.867  17.833  0.00  0.00    +0.000 A 
ENDBRANCH  25  26
ENDBRANCH  24  25
ENDBRANCH   7  24
TORSDOF 7
ENDMDL
MODEL 2
REMARK VINA RESULT:      -8.2      1.029      1.483
REMARK  Name = 
REMARK  9 active torsions:
REMARK  status: ('A' for Active; 'I' for Inactive)
REMARK    1  A    between atoms: C_1  and  C_2
REMARK    2  A    between atoms: C_2  and  C_3
REMARK    3  A    between atoms: C_3  and  C_4
REMARK    4  A    between atoms: N_6  and  C_7
REMARK    5  A    between atoms: N_10  and  C_11
REMARK    6  A    between atoms: C_11  and  C_12
REMARK    7  A    between atoms: C_12  and  C_13
REMARK    8  A    between atoms: C_21  and  C_22
REMARK    9  A    between atoms: C_23  and  C_24
REMARK                            x       y       z     vdW  Elec       q    Type
REMARK                         _______ _______ _______ _____ _____    ______ ____
ROOT
ATOM      1  C   UNL     1       3.453   3.684  17.596  0.00  0.00    +0.000 A 
ATOM      2  N   UNL     1       4.616   3.206  17.143  0.00  0.00    +0.000 NA
ATOM      3  N   UNL     1       5.357   4.323  16.928  0.00  0.00    +0.000 N 
ATOM      4  C   UNL     1       6.700   4.160  16.423  0.00  0.00    +0.000 C 
ATOM      5  C   UNL     1       4.713   5.487  17.246  0.00  0.00    +0.000 A 
ATOM      6  C   UNL     1       5.052   6.842  17.288  0.00  0.00    +0.000 A 
ATOM      7  N   UNL     1       6.318   7.311  16.976  0.00  0.00    +0.000 N 
ATOM      8  N   UNL     1       4.089   7.689  17.740  0.00  0.00    +0.000 NA
ATOM      9  C   UNL     1       2.879   7.204  18.096  0.00  0.00    +0.000 A 
ATOM     10  N   UNL     1       2.501   5.926  18.085  0.00  0.00    +0.000 NA
ATOM     11  C   UNL     1       3.464   5.089  17.669  0.00  0.00    +0.000 A 
ATOM     12  H   UNL     1       6.733   6.988  16.111  0.00  0.00    +0.000 HD
ENDROOT
BRANCH   9  13
ATOM     13  C   UNL     1       1.831   8.118  18.566  0.00  0.00    +0.000 C 
ATOM     14  C   UNL     1       1.424   9.252  17.976  0.00  0.00    +0.000 C 
BRANCH  14  15
ATOM     15  C   UNL     1       0.348  10.100  18.519  0.00  0.00    +0.000 A 
ATOM     16  C   UNL     1       0.583  10.858  19.672  0.00  0.00    +0.000 A 
ATOM     17  C   UNL     1      -0.430  11.651  20.202  0.00  0.00    +0.000 A 
ATOM     18  C   UNL     1      -1.668  11.657  19.578  0.00  0.00    +0.000 A 
ATOM     19  N   UNL     1      -1.946  10.936  18.471  0.00  0.00    +0.000 NA
ATOM     20  C   UNL     1      -0.937  10.174  17.978  0.00  0.00    +0.000 A 
ENDBRANCH  14  15
ENDBRANCH   9  13
BRANCH   1  21
ATOM     21  C   UNL     1       2.319   2.789  17.973  0.00  0.00    +0.000 C 
BRANCH  21  23
ATOM     22  C   UNL     1       0.989   3.072  20.126  0.00  0.00    +0.000 C 
ATOM     23  C   UNL     1       2.248   2.517  19.476  0.00  0.00    +0.000 C 
ENDBRANCH  21  23
ENDBRANCH   1  21
BRANCH   7  24
ATOM     24  C   UNL     1       6.683   8.626  17.492  0.00  0.00    +0.000 C 
BRANCH  24  25
ATOM     25  C   UNL     1       8.137   8.647  17.975  0.00  0.00    +0.000 C 
BRANCH  25  26
ATOM     26  C   UNL     1       8.642  10.051  18.228  0.00  0.00    +0.000 A 
ATOM     27  C   UNL     1       8.198  11.114  17.431  0.00  0.00    +0.000 A 
ATOM     28  C   UNL     1       8.662  12.413  17.649  0.00  0.00    +0.000 A 
ATOM     29  C   UNL     1       9.573  12.666  18.675  0.00  0.00    +0.000 A 
ATOM     30  C   UNL     1      10.010  11.617  19.479  0.00  0.00    +0.000 A 
ATOM     31 CL   UNL     1      11.138  11.930  20.744  0.00  0.00    +0.000 Cl
ATOM     32  C   UNL     1       9.550  10.316  19.266  0.00  0.00    +0.000 A 
ENDBRANCH  25  26
ENDBRANCH  24  25
ENDBRANCH   7  24
TORSDOF 7
ENDMDL
MODEL 3
REMARK VINA RESULT:      -7.9      1.042      1.349
REMARK  Name = 
REMARK  9 active torsions:
REMARK  status: ('A' for Active; 'I' for Inactive)
REMARK    1  A    between atoms: C_1  and  C_2
REMARK    2  A    between atoms: C_2  and  C_3
REMARK    3  A    between atoms: C_3  and  C_4
REMARK    4  A    between atoms: N_6  and  C_7
REMARK    5  A    between atoms: N_10  and  C_11
REMARK    6  A    between atoms: C_11  and  C_12
REMARK    7  A    between atoms: C_12  and  C_13
REMARK    8  A    between atoms: C_21  and  C_22
REMARK    9  A    between atoms: C_23  and  C_24
REMARK                            x       y       z     vdW  Elec       q    Type
REMARK                         _______ _______ _______ _____ _____    ______ ____
ROOT
ATOM      1  C   UNL     1       3.390   4.043  17.699  0.00  0.00    +0.000 A 
ATOM      2  N   UNL     1       4.525   3.433  17.342  0.00  0.00    +0.000 NA
ATOM      3  N   UNL     1       5.382   4.461  17.115  0.00  0.00    +0.000 N 
ATOM      4  C   UNL     1       6.729   4.145  16.701  0.00  0.00    +0.000 C 
ATOM      5  C   UNL     1       4.838   5.697  17.334  0.00  0.00    +0.000 A 
ATOM      6  C   UNL     1       5.305   7.015  17.327  0.00  0.00    +0.000 A 
ATOM      7  N   UNL     1       6.626   7.343  17.068  0.00  0.00    +0.000 N 
ATOM      8  N   UNL     1       4.405   7.972  17.676  0.00  0.00    +0.000 NA
ATOM      9  C   UNL     1       3.137   7.625  17.983  0.00  0.00    +0.000 A 
ATOM     10  N   UNL     1       2.637   6.390  18.015  0.00  0.00    +0.000 NA
ATOM     11  C   UNL     1       3.535   5.443  17.701  0.00  0.00    +0.000 A 
ATOM     12  H   UNL     1       7.054   6.934  16.247  0.00  0.00    +0.000 HD
ENDROOT
BRANCH   9  13
ATOM     13  C   UNL     1       2.158   8.659  18.342  0.00  0.00    +0.000 C 
ATOM     14  C   UNL     1       1.014   8.945  17.702  0.00  0.00    +0.000 C 
BRANCH  14  15
ATOM     15  C   UNL     1       0.084   9.998  18.148  0.00  0.00    +0.000 A 
ATOM     16  C   UNL     1      -1.213  10.040  17.624  0.00  0.00    +0.000 A 
ATOM     17  C   UNL     1      -2.094  11.039  18.026  0.00  0.00    +0.000 A 
ATOM     18  C   UNL     1      -1.655  11.990  18.934  0.00  0.00    +0.000 A 
ATOM     19  N   UNL     1      -0.412  11.997  19.460  0.00  0.00    +0.000 NA
ATOM     20  C   UNL     1       0.424  11.009  19.049  0.00  0.00    +0.000 A 
ENDBRANCH  14  15
ENDBRANCH   9  13
BRANCH   1  21
ATOM     21  C   UNL     1       2.156   3.283  18.052  0.00  0.00    +0.000 C 
BRANCH  21  23
ATOM     22  C   UNL     1       1.112   3.932  20.282  0.00  0.00    +0.000 C 
ATOM     23  C   UNL     1       2.047   2.983  19.547  0.00  0.00    +0.000 C 
ENDBRANCH  21  23
ENDBRANCH   1  21
BRANCH   7  24
ATOM     24  C   UNL     1       7.088   8.645  17.537  0.00  0.00    +0.000 C 
BRANCH  24  25
ATOM     25  C   UNL     1       8.409   8.520  18.305  0.00  0.00    +0.000 C 
BRANCH  25  26
ATOM     26  C   UNL     1       9.000   9.866  18.661  0.00  0.00    +0.000 A 
ATOM     27  C   UNL     1       9.555  10.678  17.662  0.00  0.00    +0.000 A 
ATOM     28  C   UNL     1      10.112  11.919  17.978  0.00  0.00    +0.000 A 
ATOM     29  C   UNL     1      10.114  12.368  19.300  0.00  0.00    +0.000 A 
ATOM     30  C   UNL     1       9.554  11.572  20.296  0.00  0.00    +0.000 A 
ATOM     31 CL   UNL     1       9.560  12.125  21.927  0.00  0.00    +0.000 Cl
ATOM     32  C   UNL     1       8.996  10.330  19.986  0.00  0.00    +0.000 A 
ENDBRANCH  25  26
ENDBRANCH  24  25
ENDBRANCH   7  24
TORSDOF 7
ENDMDL
MODEL 4
REMARK VINA RESULT:      -7.9      0.629      1.018
REMARK  Name = 
REMARK  9 active torsions:
REMARK  status: ('A' for Active; 'I' for Inactive)
REMARK    1  A    between atoms: C_1  and  C_2
REMARK    2  A    between atoms: C_2  and  C_3
REMARK    3  A    between atoms: C_3  and  C_4
REMARK    4  A    between atoms: N_6  and  C_7
REMARK    5  A    between atoms: N_10  and  C_11
REMARK    6  A    between atoms: C_11  and  C_12
REMARK    7  A    between atoms: C_12  and  C_13
REMARK    8  A    between atoms: C_21  and  C_22
REMARK    9  A    between atoms: C_23  and  C_24
REMARK                            x       y       z     vdW  Elec       q    Type
REMARK                         _______ _______ _______ _____ _____    ______ ____
ROOT
ATOM      1  C   UNL     1       3.866   3.697  17.158  0.00  0.00    +0.000 A 
ATOM      2  N   UNL     1       5.036   3.280  16.666  0.00  0.00    +0.000 NA
ATOM      3  N   UNL     1       5.762   4.423  16.560  0.00  0.00    +0.000 N 
ATOM      4  C   UNL     1       7.108   4.328  16.046  0.00  0.00    +0.000 C 
ATOM      5  C   UNL     1       5.100   5.542  16.984  0.00  0.00    +0.000 A 
ATOM      6  C   UNL     1       5.420   6.892  17.156  0.00  0.00    +0.000 A 
ATOM      7  N   UNL     1       6.680   7.406  16.893  0.00  0.00    +0.000 N 
ATOM      8  N   UNL     1       4.444   7.679  17.682  0.00  0.00    +0.000 NA
ATOM      9  C   UNL     1       3.241   7.146  17.986  0.00  0.00    +0.000 A 
ATOM     10  N   UNL     1       2.881   5.869  17.854  0.00  0.00    +0.000 NA
ATOM     11  C   UNL     1       3.857   5.088  17.364  0.00  0.00    +0.000 A 
ATOM     12  H   UNL     1       7.102   7.173  16.003  0.00  0.00    +0.000 HD
ENDROOT
BRANCH   9  13
ATOM     13  C   UNL     1       2.179   7.996  18.537  0.00  0.00    +0.000 C 
ATOM     14  C   UNL     1       1.657   9.100  17.981  0.00  0.00    +0.000 C 
BRANCH  14  15
ATOM     15  C   UNL     1       0.578   9.884  18.606  0.00  0.00    +0.000 A 
ATOM     16  C   UNL     1       0.606  10.119  19.986  0.00  0.00    +0.000 A 
ATOM     17  C   UNL     1      -0.416  10.845  20.590  0.00  0.00    +0.000 A 
ATOM     18  C   UNL     1      -1.460  11.308  19.803  0.00  0.00    +0.000 A 
ATOM     19  N   UNL     1      -1.537  11.098  18.471  0.00  0.00    +0.000 NA
ATOM     20  C   UNL     1      -0.524  10.388  17.913  0.00  0.00    +0.000 A 
ENDBRANCH  14  15
ENDBRANCH   9  13
BRANCH   1  21
ATOM     21  C   UNL     1       2.744   2.755  17.445  0.00  0.00    +0.000 C 
BRANCH  21  23
ATOM     22  C   UNL     1       3.637   2.412  19.805  0.00  0.00    +0.000 C 
ATOM     23  C   UNL     1       2.414   2.656  18.934  0.00  0.00    +0.000 C 
ENDBRANCH  21  23
ENDBRANCH   1  21
BRANCH   7  24
ATOM     24  C   UNL     1       7.025   8.671  17.533  0.00  0.00    +0.000 C 
BRANCH  24  25
ATOM     25  C   UNL     1       8.455   8.643  18.082  0.00  0.00    +0.000 C 
BRANCH  25  26
ATOM     26  C   UNL     1       8.870   9.966  18.685  0.00  0.00    +0.000 A 
ATOM     27  C   UNL     1       9.221  10.045  20.040  0.00  0.00    +0.000 A 
ATOM     28  C   UNL     1       9.598  11.262  20.611  0.00  0.00    +0.000 A 
ATOM     29  C   UNL     1       9.634  12.419  19.830  0.00  0.00    +0.000 A 
ATOM     30  C   UNL     1       9.297  12.347  18.481  0.00  0.00    +0.000 A 
ATOM     31 CL   UNL     1       9.339  13.775  17.519  0.00  0.00    +0.000 Cl
ATOM     32  C   UNL     1       8.920  11.132  17.904  0.00  0.00    +0.000 A 
ENDBRANCH  25  26
ENDBRANCH  24  25
ENDBRANCH   7  24
TORSDOF 7
ENDMDL
MODEL 5
REMARK VINA RESULT:      -7.9      4.322      8.941
REMARK  Name = 
REMARK  9 active torsions:
REMARK  status: ('A' for Active; 'I' for Inactive)
REMARK    1  A    between atoms: C_1  and  C_2
REMARK    2  A    between atoms: C_2  and  C_3
REMARK    3  A    between atoms: C_3  and  C_4
REMARK    4  A    between atoms: N_6  and  C_7
REMARK    5  A    between atoms: N_10  and  C_11
REMARK    6  A    between atoms: C_11  and  C_12
REMARK    7  A    between atoms: C_12  and  C_13
REMARK    8  A    between atoms: C_21  and  C_22
REMARK    9  A    between atoms: C_23  and  C_24
REMARK                            x       y       z     vdW  Elec       q    Type
REMARK                         _______ _______ _______ _____ _____    ______ ____
ROOT
ATOM      1  C   UNL     1       1.702  10.972  18.846  0.00  0.00    +0.000 A 
ATOM      2  N   UNL     1       0.860  11.131  19.872  0.00  0.00    +0.000 NA
ATOM      3  N   UNL     1       0.684   9.867  20.338  0.00  0.00    +0.000 N 
ATOM      4  C   UNL     1      -0.191   9.676  21.470  0.00  0.00    +0.000 C 
ATOM      5  C   UNL     1       1.398   8.919  19.656  0.00  0.00    +0.000 A 
ATOM      6  C   UNL     1       1.623   7.546  19.788  0.00  0.00    +0.000 A 
ATOM      7  N   UNL     1       1.079   6.789  20.814  0.00  0.00    +0.000 N 
ATOM      8  N   UNL     1       2.484   6.991  18.894  0.00  0.00    +0.000 NA
ATOM      9  C   UNL     1       3.050   7.758  17.938  0.00  0.00    +0.000 A 
ATOM     10  N   UNL     1       2.881   9.069  17.768  0.00  0.00    +0.000 NA
ATOM     11  C   UNL     1       2.055   9.621  18.671  0.00  0.00    +0.000 A 
ATOM     12  H   UNL     1       0.087   6.886  20.987  0.00  0.00    +0.000 HD
ENDROOT
BRANCH   9  13
ATOM     13  C   UNL     1       3.965   7.157  16.960  0.00  0.00    +0.000 C 
ATOM     14  C   UNL     1       4.538   5.946  17.028  0.00  0.00    +0.000 C 
BRANCH  14  15
ATOM     15  C   UNL     1       5.438   5.421  15.985  0.00  0.00    +0.000 A 
ATOM     16  C   UNL     1       4.930   4.560  15.005  0.00  0.00    +0.000 A 
ATOM     17  C   UNL     1       5.774   4.047  14.025  0.00  0.00    +0.000 A 
ATOM     18  C   UNL     1       7.116   4.391  14.054  0.00  0.00    +0.000 A 
ATOM     19  N   UNL     1       7.655   5.209  14.983  0.00  0.00    +0.000 NA
ATOM     20  C   UNL     1       6.806   5.694  15.925  0.00  0.00    +0.000 A 
ENDBRANCH  14  15
ENDBRANCH   9  13
BRANCH   1  21
ATOM     21  C   UNL     1       2.182  12.124  18.028  0.00  0.00    +0.000 C 
BRANCH  21  23
ATOM     22  C   UNL     1       1.708  14.541  18.674  0.00  0.00    +0.000 C 
ATOM     23  C   UNL     1       2.599  13.325  18.876  0.00  0.00    +0.000 C 
ENDBRANCH  21  23
ENDBRANCH   1  21
BRANCH   7  24
ATOM     24  C   UNL     1       1.734   5.522  21.120  0.00  0.00    +0.000 C 
BRANCH  24  25
ATOM     25  C   UNL     1       1.004   4.347  20.460  0.00  0.00    +0.000 C 
BRANCH  25  26
ATOM     26  C   UNL     1       1.914   3.523  19.577  0.00  0.00    +0.000 A 
ATOM     27  C   UNL     1       1.732   3.517  18.187  0.00  0.00    +0.000 A 
ATOM     28  C   UNL     1       2.561   2.754  17.362  0.00  0.00    +0.000 A 
ATOM     29  C   UNL     1       3.588   1.990  17.917  0.00  0.00    +0.000 A 
ATOM     30  C   UNL     1       3.782   1.999  19.296  0.00  0.00    +0.000 A 
ATOM     31 CL   UNL     1       5.048   1.053  19.981  0.00  0.00    +0.000 Cl
ATOM     32  C   UNL     1       2.957   2.760  20.127  0.00  0.00    +0.000 A 
ENDBRANCH  25  26
ENDBRANCH  24  25
ENDBRANCH   7  24
TORSDOF 7
ENDMDL
MODEL 6
REMARK VINA RESULT:      -7.8      3.987      8.344
REMARK  Name = 
REMARK  9 active torsions:
REMARK  status: ('A' for Active; 'I' for Inactive)
REMARK    1  A    between atoms: C_1  and  C_2
REMARK    2  A    between atoms: C_2  and  C_3
REMARK    3  A    between atoms: C_3  and  C_4
REMARK    4  A    between atoms: N_6  and  C_7
REMARK    5  A    between atoms: N_10  and  C_11
REMARK    6  A    between atoms: C_11  and  C_12
REMARK    7  A    between atoms: C_12  and  C_13
REMARK    8  A    between atoms: C_21  and  C_22
REMARK    9  A    between atoms: C_23  and  C_24
REMARK                            x       y       z     vdW  Elec       q    Type
REMARK                         _______ _______ _______ _____ _____    ______ ____
ROOT
ATOM      1  C   UNL     1       6.919   4.672  14.817  0.00  0.00    +0.000 A 
ATOM      2  N   UNL     1       6.003   3.703  14.910  0.00  0.00    +0.000 NA
ATOM      3  N   UNL     1       5.381   3.965  16.089  0.00  0.00    +0.000 N 
ATOM      4  C   UNL     1       4.314   3.085  16.505  0.00  0.00    +0.000 C 
ATOM      5  C   UNL     1       5.858   5.073  16.734  0.00  0.00    +0.000 A 
ATOM      6  C   UNL     1       5.515   5.788  17.885  0.00  0.00    +0.000 A 
ATOM      7  N   UNL     1       4.445   5.443  18.695  0.00  0.00    +0.000 N 
ATOM      8  N   UNL     1       6.243   6.910  18.134  0.00  0.00    +0.000 NA
ATOM      9  C   UNL     1       7.244   7.262  17.299  0.00  0.00    +0.000 A 
ATOM     10  N   UNL     1       7.611   6.627  16.185  0.00  0.00    +0.000 NA
ATOM     11  C   UNL     1       6.870   5.538  15.925  0.00  0.00    +0.000 A 
ATOM     12  H   UNL     1       4.375   4.476  18.986  0.00  0.00    +0.000 HD
ENDROOT
BRANCH   9  13
ATOM     13  C   UNL     1       8.044   8.462  17.575  0.00  0.00    +0.000 C 
ATOM     14  C   UNL     1       8.372   8.955  18.778  0.00  0.00    +0.000 C 
BRANCH  14  15
ATOM     15  C   UNL     1       9.195  10.164  18.956  0.00  0.00    +0.000 A 
ATOM     16  C   UNL     1       9.619  10.881  17.831  0.00  0.00    +0.000 A 
ATOM     17  C   UNL     1      10.410  12.016  17.987  0.00  0.00    +0.000 A 
ATOM     18  C   UNL     1      10.777  12.403  19.266  0.00  0.00    +0.000 A 
ATOM     19  N   UNL     1      10.401  11.739  20.380  0.00  0.00    +0.000 NA
ATOM     20  C   UNL     1       9.630  10.637  20.195  0.00  0.00    +0.000 A 
ENDBRANCH  14  15
ENDBRANCH   9  13
BRANCH   1  21
ATOM     21  C   UNL     1       7.845   4.779  13.652  0.00  0.00    +0.000 C 
BRANCH  21  23
ATOM     22  C   UNL     1       6.991   3.310  11.755  0.00  0.00    +0.000 C 
ATOM     23  C   UNL     1       7.121   4.722  12.307  0.00  0.00    +0.000 C 
ENDBRANCH  21  23
ENDBRANCH   1  21
BRANCH   7  24
ATOM     24  C   UNL     1       3.908   6.487  19.562  0.00  0.00    +0.000 C 
BRANCH  24  25
ATOM     25  C   UNL     1       2.380   6.403  19.648  0.00  0.00    +0.000 C 
BRANCH  25  26
ATOM     26  C   UNL     1       1.880   4.976  19.676  0.00  0.00    +0.000 A 
ATOM     27  C   UNL     1       1.510   4.335  18.486  0.00  0.00    +0.000 A 
ATOM     28  C   UNL     1       1.039   3.020  18.498  0.00  0.00    +0.000 A 
ATOM     29  C   UNL     1       0.939   2.326  19.705  0.00  0.00    +0.000 A 
ATOM     30  C   UNL     1       1.315   2.952  20.891  0.00  0.00    +0.000 A 
ATOM     31 CL   UNL     1       1.187   2.095  22.380  0.00  0.00    +0.000 Cl
ATOM     32  C   UNL     1       1.787   4.266  20.885  0.00  0.00    +0.000 A 
ENDBRANCH  25  26
ENDBRANCH  24  25
ENDBRANCH   7  24
TORSDOF 7
ENDMDL
MODEL 7
REMARK VINA RESULT:      -7.8      3.970      8.422
REMARK  Name = 
REMARK  9 active torsions:
REMARK  status: ('A' for Active; 'I' for Inactive)
REMARK    1  A    between atoms: C_1  and  C_2
REMARK    2  A    between atoms: C_2  and  C_3
REMARK    3  A    between atoms: C_3  and  C_4
REMARK    4  A    between atoms: N_6  and  C_7
REMARK    5  A    between atoms: N_10  and  C_11
REMARK    6  A    between atoms: C_11  and  C_12
REMARK    7  A    between atoms: C_12  and  C_13
REMARK    8  A    between atoms: C_21  and  C_22
REMARK    9  A    between atoms: C_23  and  C_24
REMARK                            x       y       z     vdW  Elec       q    Type
REMARK                         _______ _______ _______ _____ _____    ______ ____
ROOT
ATOM      1  C   UNL     1      -2.628  11.041  18.296  0.00  0.00    +0.000 A 
ATOM      2  N   UNL     1      -3.110  12.092  18.966  0.00  0.00    +0.000 NA
ATOM      3  N   UNL     1      -2.040  12.535  19.676  0.00  0.00    +0.000 N 
ATOM      4  C   UNL     1      -2.219  13.686  20.529  0.00  0.00    +0.000 C 
ATOM      5  C   UNL     1      -0.896  11.814  19.464  0.00  0.00    +0.000 A 
ATOM      6  C   UNL     1       0.438  11.909  19.868  0.00  0.00    +0.000 A 
ATOM      7  N   UNL     1       0.909  12.932  20.676  0.00  0.00    +0.000 N 
ATOM      8  N   UNL     1       1.289  10.981  19.354  0.00  0.00    +0.000 NA
ATOM      9  C   UNL     1       0.820  10.027  18.520  0.00  0.00    +0.000 A 
ATOM     10  N   UNL     1      -0.435   9.891  18.094  0.00  0.00    +0.000 NA
ATOM     11  C   UNL     1      -1.267  10.827  18.578  0.00  0.00    +0.000 A 
ATOM     12  H   UNL     1       0.390  13.134  21.520  0.00  0.00    +0.000 HD
ENDROOT
BRANCH   9  13
ATOM     13  C   UNL     1       1.733   9.013  17.978  0.00  0.00    +0.000 C 
ATOM     14  C   UNL     1       2.164   7.902  18.595  0.00  0.00    +0.000 C 
BRANCH  14  15
ATOM     15  C   UNL     1       3.074   6.931  17.961  0.00  0.00    +0.000 A 
ATOM     16  C   UNL     1       4.185   7.391  17.246  0.00  0.00    +0.000 A 
ATOM     17  C   UNL     1       5.042   6.483  16.631  0.00  0.00    +0.000 A 
ATOM     18  C   UNL     1       4.759   5.130  16.727  0.00  0.00    +0.000 A 
ATOM     19  N   UNL     1       3.695   4.638  17.395  0.00  0.00    +0.000 NA
ATOM     20  C   UNL     1       2.879   5.549  17.986  0.00  0.00    +0.000 A 
ENDBRANCH  14  15
ENDBRANCH   9  13
BRANCH   1  21
ATOM     21  C   UNL     1      -3.475  10.236  17.367  0.00  0.00    +0.000 C 
BRANCH  21  23
ATOM     22  C   UNL     1      -2.875  10.197  14.892  0.00  0.00    +0.000 C 
ATOM     23  C   UNL     1      -3.652  10.895  15.999  0.00  0.00    +0.000 C 
ENDBRANCH  21  23
ENDBRANCH   1  21
BRANCH   7  24
ATOM     24  C   UNL     1       2.344  13.192  20.644  0.00  0.00    +0.000 C 
BRANCH  24  25
ATOM     25  C   UNL     1       2.640  14.686  20.820  0.00  0.00    +0.000 C 
BRANCH  25  26
ATOM     26  C   UNL     1       2.745  15.414  19.499  0.00  0.00    +0.000 A 
ATOM     27  C   UNL     1       3.703  15.024  18.553  0.00  0.00    +0.000 A 
ATOM     28  C   UNL     1       3.816  15.694  17.332  0.00  0.00    +0.000 A 
ATOM     29  C   UNL     1       2.964  16.760  17.039  0.00  0.00    +0.000 A 
ATOM     30  C   UNL     1       2.003  17.146  17.969  0.00  0.00    +0.000 A 
ATOM     31 CL   UNL     1       0.954  18.464  17.607  0.00  0.00    +0.000 Cl
ATOM     32  C   UNL     1       1.885  16.481  19.191  0.00  0.00    +0.000 A 
ENDBRANCH  25  26
ENDBRANCH  24  25
ENDBRANCH   7  24
TORSDOF 7
ENDMDL
MODEL 8
REMARK VINA RESULT:      -7.8      2.962      7.362
REMARK  Name = 
REMARK  9 active torsions:
REMARK  status: ('A' for Active; 'I' for Inactive)
REMARK    1  A    between atoms: C_1  and  C_2
REMARK    2  A    between atoms: C_2  and  C_3
REMARK    3  A    between atoms: C_3  and  C_4
REMARK    4  A    between atoms: N_6  and  C_7
REMARK    5  A    between atoms: N_10  and  C_11
REMARK    6  A    between atoms: C_11  and  C_12
REMARK    7  A    between atoms: C_12  and  C_13
REMARK    8  A    between atoms: C_21  and  C_22
REMARK    9  A    between atoms: C_23  and  C_24
REMARK                            x       y       z     vdW  Elec       q    Type
REMARK                         _______ _______ _______ _____ _____    ______ ____
ROOT
ATOM      1  C   UNL     1       6.684   4.540  14.833  0.00  0.00    +0.000 A 
ATOM      2  N   UNL     1       5.837   3.517  14.982  0.00  0.00    +0.000 NA
ATOM      3  N   UNL     1       5.299   3.725  16.212  0.00  0.00    +0.000 N 
ATOM      4  C   UNL     1       4.323   2.778  16.696  0.00  0.00    +0.000 C 
ATOM      5  C   UNL     1       5.761   4.851  16.836  0.00  0.00    +0.000 A 
ATOM      6  C   UNL     1       5.473   5.529  18.024  0.00  0.00    +0.000 A 
ATOM      7  N   UNL     1       4.494   5.111  18.911  0.00  0.00    +0.000 N 
ATOM      8  N   UNL     1       6.152   6.689  18.234  0.00  0.00    +0.000 NA
ATOM      9  C   UNL     1       7.060   7.111  17.328  0.00  0.00    +0.000 A 
ATOM     10  N   UNL     1       7.370   6.514  16.177  0.00  0.00    +0.000 NA
ATOM     11  C   UNL     1       6.676   5.386  15.957  0.00  0.00    +0.000 A 
ATOM     12  H   UNL     1       4.503   4.137  19.189  0.00  0.00    +0.000 HD
ENDROOT
BRANCH   9  13
ATOM     13  C   UNL     1       7.807   8.352  17.560  0.00  0.00    +0.000 C 
ATOM     14  C   UNL     1       8.362   8.758  18.713  0.00  0.00    +0.000 C 
BRANCH  14  15
ATOM     15  C   UNL     1       9.109  10.020  18.846  0.00  0.00    +0.000 A 
ATOM     16  C   UNL     1       9.574  10.417  20.105  0.00  0.00    +0.000 A 
ATOM     17  C   UNL     1      10.268  11.616  20.245  0.00  0.00    +0.000 A 
ATOM     18  C   UNL     1      10.468  12.405  19.123  0.00  0.00    +0.000 A 
ATOM     19  N   UNL     1      10.031  12.070  17.891  0.00  0.00    +0.000 NA
ATOM     20  C   UNL     1       9.359  10.895  17.787  0.00  0.00    +0.000 A 
ENDBRANCH  14  15
ENDBRANCH   9  13
BRANCH   1  21
ATOM     21  C   UNL     1       7.505   4.717  13.600  0.00  0.00    +0.000 C 
BRANCH  21  23
ATOM     22  C   UNL     1       7.051   3.075  11.707  0.00  0.00    +0.000 C 
ATOM     23  C   UNL     1       6.724   4.430  12.317  0.00  0.00    +0.000 C 
ENDBRANCH  21  23
ENDBRANCH   1  21
BRANCH   7  24
ATOM     24  C   UNL     1       3.969   6.108  19.837  0.00  0.00    +0.000 C 
BRANCH  24  25
ATOM     25  C   UNL     1       2.447   6.236  19.709  0.00  0.00    +0.000 C 
BRANCH  25  26
ATOM     26  C   UNL     1       2.009   7.648  19.390  0.00  0.00    +0.000 A 
ATOM     27  C   UNL     1       2.288   8.206  18.135  0.00  0.00    +0.000 A 
ATOM     28  C   UNL     1       1.897   9.512  17.830  0.00  0.00    +0.000 A 
ATOM     29  C   UNL     1       1.214  10.276  18.779  0.00  0.00    +0.000 A 
ATOM     30  C   UNL     1       0.924   9.725  20.024  0.00  0.00    +0.000 A 
ATOM     31 CL   UNL     1       0.085  10.670  21.195  0.00  0.00    +0.000 Cl
ATOM     32  C   UNL     1       1.313   8.420  20.335  0.00  0.00    +0.000 A 
ENDBRANCH  25  26
ENDBRANCH  24  25
ENDBRANCH   7  24
TORSDOF 7
ENDMDL
MODEL 9
REMARK VINA RESULT:      -7.7      4.595      8.119
REMARK  Name = 
REMARK  9 active torsions:
REMARK  status: ('A' for Active; 'I' for Inactive)
REMARK    1  A    between atoms: C_1  and  C_2
REMARK    2  A    between atoms: C_2  and  C_3
REMARK    3  A    between atoms: C_3  and  C_4
REMARK    4  A    between atoms: N_6  and  C_7
REMARK    5  A    between atoms: N_10  and  C_11
REMARK    6  A    between atoms: C_11  and  C_12
REMARK    7  A    between atoms: C_12  and  C_13
REMARK    8  A    between atoms: C_21  and  C_22
REMARK    9  A    between atoms: C_23  and  C_24
REMARK                            x       y       z     vdW  Elec       q    Type
REMARK                         _______ _______ _______ _____ _____    ______ ____
ROOT
ATOM      1  C   UNL     1       2.703   4.033  20.059  0.00  0.00    +0.000 A 
ATOM      2  N   UNL     1       1.925   4.596  20.989  0.00  0.00    +0.000 NA
ATOM      3  N   UNL     1       1.867   5.899  20.610  0.00  0.00    +0.000 N 
ATOM      4  C   UNL     1       1.090   6.808  21.419  0.00  0.00    +0.000 C 
ATOM      5  C   UNL     1       2.563   6.175  19.465  0.00  0.00    +0.000 A 
ATOM      6  C   UNL     1       2.742   7.293  18.645  0.00  0.00    +0.000 A 
ATOM      7  N   UNL     1       2.126   8.510  18.887  0.00  0.00    +0.000 N 
ATOM      8  N   UNL     1       3.495   7.104  17.529  0.00  0.00    +0.000 NA
ATOM      9  C   UNL     1       4.038   5.893  17.279  0.00  0.00    +0.000 A 
ATOM     10  N   UNL     1       3.896   4.792  18.017  0.00  0.00    +0.000 NA
ATOM     11  C   UNL     1       3.127   4.972  19.102  0.00  0.00    +0.000 A 
ATOM     12  H   UNL     1       2.196   8.888  19.823  0.00  0.00    +0.000 HD
ENDROOT
BRANCH   9  13
ATOM     13  C   UNL     1       4.867   5.691  16.085  0.00  0.00    +0.000 C 
ATOM     14  C   UNL     1       5.185   4.522  15.510  0.00  0.00    +0.000 C 
BRANCH  14  15
ATOM     15  C   UNL     1       6.017   4.420  14.298  0.00  0.00    +0.000 A 
ATOM     16  C   UNL     1       7.152   5.230  14.170  0.00  0.00    +0.000 A 
ATOM     17  C   UNL     1       7.936   5.153  13.023  0.00  0.00    +0.000 A 
ATOM     18  C   UNL     1       7.559   4.279  12.015  0.00  0.00    +0.000 A 
ATOM     19  N   UNL     1       6.469   3.486  12.087  0.00  0.00    +0.000 NA
ATOM     20  C   UNL     1       5.726   3.583  13.219  0.00  0.00    +0.000 A 
ENDBRANCH  14  15
ENDBRANCH   9  13
BRANCH   1  21
ATOM     21  C   UNL     1       3.039   2.579  20.080  0.00  0.00    +0.000 C 
BRANCH  21  23
ATOM     22  C   UNL     1       0.884   2.292  18.752  0.00  0.00    +0.000 C 
ATOM     23  C   UNL     1       2.294   1.780  19.010  0.00  0.00    +0.000 C 
ENDBRANCH  21  23
ENDBRANCH   1  21
BRANCH   7  24
ATOM     24  C   UNL     1       2.003   9.426  17.758  0.00  0.00    +0.000 C 
BRANCH  24  25
ATOM     25  C   UNL     1       1.771  10.864  18.234  0.00  0.00    +0.000 C 
BRANCH  25  26
ATOM     26  C   UNL     1       0.309  11.162  18.483  0.00  0.00    +0.000 A 
ATOM     27  C   UNL     1      -0.066  12.322  19.175  0.00  0.00    +0.000 A 
ATOM     28  C   UNL     1      -1.412  12.605  19.419  0.00  0.00    +0.000 A 
ATOM     29  C   UNL     1      -2.402  11.732  18.966  0.00  0.00    +0.000 A 
ATOM     30  C   UNL     1      -2.038  10.584  18.268  0.00  0.00    +0.000 A 
ATOM     31 CL   UNL     1      -3.261   9.505  17.713  0.00  0.00    +0.000 Cl
ATOM     32  C   UNL     1      -0.694  10.295  18.021  0.00  0.00    +0.000 A 
ENDBRANCH  25  26
ENDBRANCH  24  25
ENDBRANCH   7  24
TORSDOF 7
ENDMDL
