MODEL 1
REMARK VINA RESULT:      -8.9      0.000      0.000
REMARK  Name = 
REMARK  6 active torsions:
REMARK  status: ('A' for Active; 'I' for Inactive)
REMARK    1  A    between atoms: C_1  and  C_2
REMARK    2  A    between atoms: C_4  and  C_5
REMARK    3  A    between atoms: C_7  and  C_8
REMARK    4  A    between atoms: C_11  and  C_12
REMARK    5  A    between atoms: C_23  and  C_24
REMARK    6  A    between atoms: C_28  and  C_29
REMARK                            x       y       z     vdW  Elec       q    Type
REMARK                         _______ _______ _______ _____ _____    ______ ____
ROOT
ATOM      1  C   UNL     1       2.742   6.330  18.377  0.00  0.00    +0.000 A 
ATOM      2  N   UNL     1       3.734   6.469  17.449  0.00  0.00    +0.000 NA
ATOM      3  C   UNL     1       4.075   5.254  17.057  0.00  0.00    +0.000 A 
ATOM      4  N   UNL     1       3.352   4.317  17.782  0.00  0.00    +0.000 N 
ATOM      5  C   UNL     1       2.415   4.996  18.542  0.00  0.00    +0.000 A 
ATOM      6  C   UNL     1       1.331   4.363  19.364  0.00  0.00    +0.000 C 
ATOM      7  C   UNL     1       0.958   2.954  18.938  0.00  0.00    +0.000 C 
ATOM      8  O   UNL     1       1.877   1.962  19.383  0.00  0.00    +0.000 OA
ATOM      9  C   UNL     1       3.272   2.147  19.102  0.00  0.00    +0.000 C 
ATOM     10  C   UNL     1       3.575   2.880  17.787  0.00  0.00    +0.000 C 
ENDROOT
BRANCH   1  14
ATOM     11  C   UNL     1       0.964  10.984  18.298  0.00  0.00    +0.000 C 
ATOM     12  C   UNL     1       1.269   9.699  19.007  0.00  0.00    +0.000 A 
ATOM     13  C   UNL     1       1.850   8.634  18.337  0.00  0.00    +0.000 A 
ATOM     14  C   UNL     1       2.139   7.467  19.048  0.00  0.00    +0.000 A 
ATOM     15  C   UNL     1       1.867   7.436  20.415  0.00  0.00    +0.000 A 
ATOM     16  C   UNL     1       1.258   8.530  21.012  0.00  0.00    +0.000 A 
ATOM     17  C   UNL     1       0.908   8.497  22.469  0.00  0.00    +0.000 C 
ATOM     18  N   UNL     1       0.957   9.653  20.326  0.00  0.00    +0.000 NA
ENDBRANCH   1  14
BRANCH   3  19
ATOM     19  C   UNL     1       5.101   5.019  16.028  0.00  0.00    +0.000 A 
ATOM     20  C   UNL     1       6.360   5.612  16.198  0.00  0.00    +0.000 A 
ATOM     21  C   UNL     1       7.348   5.519  15.213  0.00  0.00    +0.000 A 
ATOM     22  C   UNL     1       7.100   4.831  14.015  0.00  0.00    +0.000 A 
ATOM     23  C   UNL     1       5.848   4.225  13.848  0.00  0.00    +0.000 A 
ATOM     24 CL   UNL     1       5.449   3.364  12.404  0.00  0.00    +0.000 Cl
ATOM     25  C   UNL     1       4.856   4.324  14.839  0.00  0.00    +0.000 A 
BRANCH  22  26
ATOM     26  C   UNL     1       8.154   4.795  12.941  0.00  0.00    +0.000 C 
ATOM     27  F   UNL     1       7.632   4.779  11.679  0.00  0.00    +0.000 F 
ATOM     28  F   UNL     1       8.982   5.874  12.973  0.00  0.00    +0.000 F 
ENDBRANCH  22  26
ENDBRANCH   3  19
BRANCH   9  29
ATOM     29  C   UNL     1       4.033   2.714  20.307  0.00  0.00    +0.000 C 
ATOM     30  F   UNL     1       3.313   2.478  21.440  0.00  0.00    +0.000 F 
ENDBRANCH   9  29
TORSDOF 4
ENDMDL
MODEL 2
REMARK VINA RESULT:      -8.9      0.030      1.521
REMARK  Name = 
REMARK  6 active torsions:
REMARK  status: ('A' for Active; 'I' for Inactive)
REMARK    1  A    between atoms: C_1  and  C_2
REMARK    2  A    between atoms: C_4  and  C_5
REMARK    3  A    between atoms: C_7  and  C_8
REMARK    4  A    between atoms: C_11  and  C_12
REMARK    5  A    between atoms: C_23  and  C_24
REMARK    6  A    between atoms: C_28  and  C_29
REMARK                            x       y       z     vdW  Elec       q    Type
REMARK                         _______ _______ _______ _____ _____    ______ ____
ROOT
ATOM      1  C   UNL     1       2.738   6.336  18.371  0.00  0.00    +0.000 A 
ATOM      2  N   UNL     1       3.731   6.473  17.444  0.00  0.00    +0.000 NA
ATOM      3  C   UNL     1       4.073   5.258  17.056  0.00  0.00    +0.000 A 
ATOM      4  N   UNL     1       3.350   4.322  17.783  0.00  0.00    +0.000 N 
ATOM      5  C   UNL     1       2.411   5.002  18.539  0.00  0.00    +0.000 A 
ATOM      6  C   UNL     1       1.328   4.371  19.362  0.00  0.00    +0.000 C 
ATOM      7  C   UNL     1       0.956   2.961  18.940  0.00  0.00    +0.000 C 
ATOM      8  O   UNL     1       1.875   1.970  19.388  0.00  0.00    +0.000 OA
ATOM      9  C   UNL     1       3.270   2.156  19.107  0.00  0.00    +0.000 C 
ATOM     10  C   UNL     1       3.574   2.885  17.791  0.00  0.00    +0.000 C 
ENDROOT
BRANCH   1  14
ATOM     11  C   UNL     1       0.973   8.530  22.482  0.00  0.00    +0.000 C 
ATOM     12  C   UNL     1       1.301   8.536  21.020  0.00  0.00    +0.000 A 
ATOM     13  C   UNL     1       1.872   7.429  20.410  0.00  0.00    +0.000 A 
ATOM     14  C   UNL     1       2.134   7.475  19.040  0.00  0.00    +0.000 A 
ATOM     15  C   UNL     1       1.774   8.620  18.331  0.00  0.00    +0.000 A 
ATOM     16  C   UNL     1       1.232   9.699  19.013  0.00  0.00    +0.000 A 
ATOM     17  C   UNL     1       0.887  10.959  18.278  0.00  0.00    +0.000 C 
ATOM     18  N   UNL     1       0.996   9.669  20.341  0.00  0.00    +0.000 NA
ENDBRANCH   1  14
BRANCH   3  19
ATOM     19  C   UNL     1       5.100   5.020  16.028  0.00  0.00    +0.000 A 
ATOM     20  C   UNL     1       6.363   5.604  16.204  0.00  0.00    +0.000 A 
ATOM     21  C   UNL     1       7.352   5.508  15.221  0.00  0.00    +0.000 A 
ATOM     22  C   UNL     1       7.103   4.829  14.019  0.00  0.00    +0.000 A 
ATOM     23  C   UNL     1       5.847   4.233  13.846  0.00  0.00    +0.000 A 
ATOM     24 CL   UNL     1       5.445   3.383  12.396  0.00  0.00    +0.000 Cl
ATOM     25  C   UNL     1       4.853   4.334  14.834  0.00  0.00    +0.000 A 
BRANCH  22  26
ATOM     26  C   UNL     1       8.159   4.791  12.947  0.00  0.00    +0.000 C 
ATOM     27  F   UNL     1       7.640   4.777  11.684  0.00  0.00    +0.000 F 
ATOM     28  F   UNL     1       8.990   5.868  12.983  0.00  0.00    +0.000 F 
ENDBRANCH  22  26
ENDBRANCH   3  19
BRANCH   9  29
ATOM     29  C   UNL     1       4.030   2.726  20.312  0.00  0.00    +0.000 C 
ATOM     30  F   UNL     1       3.305   2.500  21.444  0.00  0.00    +0.000 F 
ENDBRANCH   9  29
TORSDOF 4
ENDMDL
MODEL 3
REMARK VINA RESULT:      -8.5      4.081      7.761
REMARK  Name = 
REMARK  6 active torsions:
REMARK  status: ('A' for Active; 'I' for Inactive)
REMARK    1  A    between atoms: C_1  and  C_2
REMARK    2  A    between atoms: C_4  and  C_5
REMARK    3  A    between atoms: C_7  and  C_8
REMARK    4  A    between atoms: C_11  and  C_12
REMARK    5  A    between atoms: C_23  and  C_24
REMARK    6  A    between atoms: C_28  and  C_29
REMARK                            x       y       z     vdW  Elec       q    Type
REMARK                         _______ _______ _______ _____ _____    ______ ____
ROOT
ATOM      1  C   UNL     1       4.106   5.403  18.667  0.00  0.00    +0.000 A 
ATOM      2  N   UNL     1       3.580   6.663  18.705  0.00  0.00    +0.000 NA
ATOM      3  C   UNL     1       2.515   6.618  19.486  0.00  0.00    +0.000 A 
ATOM      4  N   UNL     1       2.305   5.310  19.903  0.00  0.00    +0.000 N 
ATOM      5  C   UNL     1       3.383   4.550  19.482  0.00  0.00    +0.000 A 
ATOM      6  C   UNL     1       3.633   3.115  19.840  0.00  0.00    +0.000 C 
ATOM      7  C   UNL     1       2.937   2.651  21.107  0.00  0.00    +0.000 C 
ATOM      8  O   UNL     1       1.554   2.365  20.927  0.00  0.00    +0.000 OA
ATOM      9  C   UNL     1       0.725   3.364  20.315  0.00  0.00    +0.000 C 
ATOM     10  C   UNL     1       1.135   4.815  20.608  0.00  0.00    +0.000 C 
ENDROOT
BRANCH   1  14
ATOM     11  C   UNL     1       8.963   4.346  18.326  0.00  0.00    +0.000 C 
ATOM     12  C   UNL     1       7.610   4.547  17.715  0.00  0.00    +0.000 A 
ATOM     13  C   UNL     1       6.512   4.869  18.498  0.00  0.00    +0.000 A 
ATOM     14  C   UNL     1       5.278   5.072  17.877  0.00  0.00    +0.000 A 
ATOM     15  C   UNL     1       5.209   4.982  16.488  0.00  0.00    +0.000 A 
ATOM     16  C   UNL     1       6.343   4.628  15.772  0.00  0.00    +0.000 A 
ATOM     17  C   UNL     1       6.278   4.474  14.283  0.00  0.00    +0.000 C 
ATOM     18  N   UNL     1       7.534   4.410  16.368  0.00  0.00    +0.000 NA
ENDBRANCH   1  14
BRANCH   3  19
ATOM     19  C   UNL     1       1.710   7.813  19.787  0.00  0.00    +0.000 A 
ATOM     20  C   UNL     1       1.540   8.770  18.776  0.00  0.00    +0.000 A 
ATOM     21  C   UNL     1       0.876   9.976  19.021  0.00  0.00    +0.000 A 
ATOM     22  C   UNL     1       0.368  10.267  20.295  0.00  0.00    +0.000 A 
ATOM     23  C   UNL     1       0.524   9.307  21.304  0.00  0.00    +0.000 A 
ATOM     24 CL   UNL     1      -0.061   9.580  22.906  0.00  0.00    +0.000 Cl
ATOM     25  C   UNL     1       1.194   8.097  21.056  0.00  0.00    +0.000 A 
BRANCH  22  26
ATOM     26  C   UNL     1      -0.287  11.597  20.555  0.00  0.00    +0.000 C 
ATOM     27  F   UNL     1      -0.034  12.519  19.579  0.00  0.00    +0.000 F 
ATOM     28  F   UNL     1      -1.643  11.516  20.629  0.00  0.00    +0.000 F 
ENDBRANCH  22  26
ENDBRANCH   3  19
BRANCH   9  29
ATOM     29  C   UNL     1       0.491   3.085  18.824  0.00  0.00    +0.000 C 
ATOM     30  F   UNL     1       0.787   1.780  18.563  0.00  0.00    +0.000 F 
ENDBRANCH   9  29
TORSDOF 4
ENDMDL
MODEL 4
REMARK VINA RESULT:      -8.5      4.093      7.683
REMARK  Name = 
REMARK  6 active torsions:
REMARK  status: ('A' for Active; 'I' for Inactive)
REMARK    1  A    between atoms: C_1  and  C_2
REMARK    2  A    between atoms: C_4  and  C_5
REMARK    3  A    between atoms: C_7  and  C_8
REMARK    4  A    between atoms: C_11  and  C_12
REMARK    5  A    between atoms: C_23  and  C_24
REMARK    6  A    between atoms: C_28  and  C_29
REMARK                            x       y       z     vdW  Elec       q    Type
REMARK                         _______ _______ _______ _____ _____    ______ ____
ROOT
ATOM      1  C   UNL     1       4.073   5.438  18.708  0.00  0.00    +0.000 A 
ATOM      2  N   UNL     1       3.544   6.695  18.764  0.00  0.00    +0.000 NA
ATOM      3  C   UNL     1       2.489   6.640  19.557  0.00  0.00    +0.000 A 
ATOM      4  N   UNL     1       2.287   5.328  19.963  0.00  0.00    +0.000 N 
ATOM      5  C   UNL     1       3.361   4.575  19.522  0.00  0.00    +0.000 A 
ATOM      6  C   UNL     1       3.620   3.136  19.862  0.00  0.00    +0.000 C 
ATOM      7  C   UNL     1       2.940   2.657  21.132  0.00  0.00    +0.000 C 
ATOM      8  O   UNL     1       1.556   2.370  20.965  0.00  0.00    +0.000 OA
ATOM      9  C   UNL     1       0.717   3.373  20.374  0.00  0.00    +0.000 C 
ATOM     10  C   UNL     1       1.126   4.822  20.678  0.00  0.00    +0.000 C 
ENDROOT
BRANCH   1  14
ATOM     11  C   UNL     1       6.196   4.622  14.274  0.00  0.00    +0.000 C 
ATOM     12  C   UNL     1       6.261   4.742  15.767  0.00  0.00    +0.000 A 
ATOM     13  C   UNL     1       5.130   5.043  16.509  0.00  0.00    +0.000 A 
ATOM     14  C   UNL     1       5.236   5.118  17.900  0.00  0.00    +0.000 A 
ATOM     15  C   UNL     1       6.471   4.846  18.488  0.00  0.00    +0.000 A 
ATOM     16  C   UNL     1       7.565   4.580  17.679  0.00  0.00    +0.000 A 
ATOM     17  C   UNL     1       8.913   4.338  18.289  0.00  0.00    +0.000 C 
ATOM     18  N   UNL     1       7.473   4.527  16.334  0.00  0.00    +0.000 NA
ENDBRANCH   1  14
BRANCH   3  19
ATOM     19  C   UNL     1       1.684   7.829  19.880  0.00  0.00    +0.000 A 
ATOM     20  C   UNL     1       1.508   8.801  18.884  0.00  0.00    +0.000 A 
ATOM     21  C   UNL     1       0.845  10.003  19.150  0.00  0.00    +0.000 A 
ATOM     22  C   UNL     1       0.343  10.275  20.432  0.00  0.00    +0.000 A 
ATOM     23  C   UNL     1       0.507   9.300  21.425  0.00  0.00    +0.000 A 
ATOM     24 CL   UNL     1      -0.070   9.550  23.035  0.00  0.00    +0.000 Cl
ATOM     25  C   UNL     1       1.176   8.095  21.156  0.00  0.00    +0.000 A 
BRANCH  22  26
ATOM     26  C   UNL     1      -0.311  11.601  20.714  0.00  0.00    +0.000 C 
ATOM     27  F   UNL     1      -0.145  12.506  19.706  0.00  0.00    +0.000 F 
ATOM     28  F   UNL     1      -1.657  11.502  20.891  0.00  0.00    +0.000 F 
ENDBRANCH  22  26
ENDBRANCH   3  19
BRANCH   9  29
ATOM     29  C   UNL     1       0.465   3.109  18.884  0.00  0.00    +0.000 C 
ATOM     30  F   UNL     1       0.733   1.800  18.611  0.00  0.00    +0.000 F 
ENDBRANCH   9  29
TORSDOF 4
ENDMDL
MODEL 5
REMARK VINA RESULT:      -8.3      4.168      7.905
REMARK  Name = 
REMARK  6 active torsions:
REMARK  status: ('A' for Active; 'I' for Inactive)
REMARK    1  A    between atoms: C_1  and  C_2
REMARK    2  A    between atoms: C_4  and  C_5
REMARK    3  A    between atoms: C_7  and  C_8
REMARK    4  A    between atoms: C_11  and  C_12
REMARK    5  A    between atoms: C_23  and  C_24
REMARK    6  A    between atoms: C_28  and  C_29
REMARK                            x       y       z     vdW  Elec       q    Type
REMARK                         _______ _______ _______ _____ _____    ______ ____
ROOT
ATOM      1  C   UNL     1       3.908   6.093  18.615  0.00  0.00    +0.000 A 
ATOM      2  N   UNL     1       3.236   7.260  18.847  0.00  0.00    +0.000 NA
ATOM      3  C   UNL     1       2.255   6.984  19.688  0.00  0.00    +0.000 A 
ATOM      4  N   UNL     1       2.243   5.621  19.950  0.00  0.00    +0.000 N 
ATOM      5  C   UNL     1       3.366   5.064  19.364  0.00  0.00    +0.000 A 
ATOM      6  C   UNL     1       3.820   3.642  19.520  0.00  0.00    +0.000 C 
ATOM      7  C   UNL     1       3.296   2.946  20.763  0.00  0.00    +0.000 C 
ATOM      8  O   UNL     1       1.948   2.504  20.644  0.00  0.00    +0.000 OA
ATOM      9  C   UNL     1       0.954   3.449  20.223  0.00  0.00    +0.000 C 
ATOM     10  C   UNL     1       1.206   4.897  20.668  0.00  0.00    +0.000 C 
ENDROOT
BRANCH   1  14
ATOM     11  C   UNL     1       8.350   7.724  17.055  0.00  0.00    +0.000 C 
ATOM     12  C   UNL     1       7.184   6.787  16.970  0.00  0.00    +0.000 A 
ATOM     13  C   UNL     1       6.115   6.894  17.847  0.00  0.00    +0.000 A 
ATOM     14  C   UNL     1       5.040   6.014  17.709  0.00  0.00    +0.000 A 
ATOM     15  C   UNL     1       5.067   5.087  16.668  0.00  0.00    +0.000 A 
ATOM     16  C   UNL     1       6.183   5.020  15.847  0.00  0.00    +0.000 A 
ATOM     17  C   UNL     1       6.255   3.995  14.756  0.00  0.00    +0.000 C 
ATOM     18  N   UNL     1       7.235   5.853  15.988  0.00  0.00    +0.000 NA
ENDBRANCH   1  14
BRANCH   3  19
ATOM     19  C   UNL     1       1.338   8.019  20.193  0.00  0.00    +0.000 A 
ATOM     20  C   UNL     1       0.818   8.947  19.279  0.00  0.00    +0.000 A 
ATOM     21  C   UNL     1       0.026  10.019  19.702  0.00  0.00    +0.000 A 
ATOM     22  C   UNL     1      -0.265  10.200  21.062  0.00  0.00    +0.000 A 
ATOM     23  C   UNL     1       0.242   9.267  21.976  0.00  0.00    +0.000 A 
ATOM     24 CL   UNL     1      -0.056   9.413  23.672  0.00  0.00    +0.000 Cl
ATOM     25  C   UNL     1       1.041   8.193  21.549  0.00  0.00    +0.000 A 
BRANCH  22  26
ATOM     26  C   UNL     1      -1.067  11.395  21.504  0.00  0.00    +0.000 C 
ATOM     27  F   UNL     1      -0.325  12.316  22.187  0.00  0.00    +0.000 F 
ATOM     28  F   UNL     1      -1.618  12.079  20.464  0.00  0.00    +0.000 F 
ENDBRANCH  22  26
ENDBRANCH   3  19
BRANCH   9  29
ATOM     29  C   UNL     1       0.629   3.317  18.729  0.00  0.00    +0.000 C 
ATOM     30  F   UNL     1       0.294   2.023  18.459  0.00  0.00    +0.000 F 
ENDBRANCH   9  29
TORSDOF 4
ENDMDL
MODEL 6
REMARK VINA RESULT:      -8.2      4.152      7.896
REMARK  Name = 
REMARK  6 active torsions:
REMARK  status: ('A' for Active; 'I' for Inactive)
REMARK    1  A    between atoms: C_1  and  C_2
REMARK    2  A    between atoms: C_4  and  C_5
REMARK    3  A    between atoms: C_7  and  C_8
REMARK    4  A    between atoms: C_11  and  C_12
REMARK    5  A    between atoms: C_23  and  C_24
REMARK    6  A    between atoms: C_28  and  C_29
REMARK                            x       y       z     vdW  Elec       q    Type
REMARK                         _______ _______ _______ _____ _____    ______ ____
ROOT
ATOM      1  C   UNL     1       3.918   6.080  18.630  0.00  0.00    +0.000 A 
ATOM      2  N   UNL     1       3.247   7.246  18.866  0.00  0.00    +0.000 NA
ATOM      3  C   UNL     1       2.259   6.966  19.697  0.00  0.00    +0.000 A 
ATOM      4  N   UNL     1       2.243   5.602  19.950  0.00  0.00    +0.000 N 
ATOM      5  C   UNL     1       3.369   5.046  19.367  0.00  0.00    +0.000 A 
ATOM      6  C   UNL     1       3.820   3.623  19.517  0.00  0.00    +0.000 C 
ATOM      7  C   UNL     1       3.286   2.919  20.751  0.00  0.00    +0.000 C 
ATOM      8  O   UNL     1       1.938   2.480  20.620  0.00  0.00    +0.000 OA
ATOM      9  C   UNL     1       0.949   3.429  20.198  0.00  0.00    +0.000 C 
ATOM     10  C   UNL     1       1.200   4.874  20.655  0.00  0.00    +0.000 C 
ENDROOT
BRANCH   1  14
ATOM     11  C   UNL     1       6.289   3.982  14.782  0.00  0.00    +0.000 C 
ATOM     12  C   UNL     1       6.189   5.007  15.871  0.00  0.00    +0.000 A 
ATOM     13  C   UNL     1       5.090   5.048  16.716  0.00  0.00    +0.000 A 
ATOM     14  C   UNL     1       5.056   6.005  17.732  0.00  0.00    +0.000 A 
ATOM     15  C   UNL     1       6.149   6.857  17.880  0.00  0.00    +0.000 A 
ATOM     16  C   UNL     1       7.201   6.777  16.979  0.00  0.00    +0.000 A 
ATOM     17  C   UNL     1       8.361   7.720  17.088  0.00  0.00    +0.000 C 
ATOM     18  N   UNL     1       7.230   5.868  15.982  0.00  0.00    +0.000 NA
ENDBRANCH   1  14
BRANCH   3  19
ATOM     19  C   UNL     1       1.340   7.999  20.203  0.00  0.00    +0.000 A 
ATOM     20  C   UNL     1       0.812   8.922  19.288  0.00  0.00    +0.000 A 
ATOM     21  C   UNL     1       0.017   9.992  19.711  0.00  0.00    +0.000 A 
ATOM     22  C   UNL     1      -0.268  10.177  21.072  0.00  0.00    +0.000 A 
ATOM     23  C   UNL     1       0.248   9.249  21.987  0.00  0.00    +0.000 A 
ATOM     24 CL   UNL     1      -0.042   9.400  23.684  0.00  0.00    +0.000 Cl
ATOM     25  C   UNL     1       1.049   8.177  21.560  0.00  0.00    +0.000 A 
BRANCH  22  26
ATOM     26  C   UNL     1      -1.073  11.370  21.514  0.00  0.00    +0.000 C 
ATOM     27  F   UNL     1      -0.331  12.298  22.187  0.00  0.00    +0.000 F 
ATOM     28  F   UNL     1      -1.634  12.045  20.474  0.00  0.00    +0.000 F 
ENDBRANCH  22  26
ENDBRANCH   3  19
BRANCH   9  29
ATOM     29  C   UNL     1       0.635   3.308  18.701  0.00  0.00    +0.000 C 
ATOM     30  F   UNL     1       1.126   2.124  18.237  0.00  0.00    +0.000 F 
ENDBRANCH   9  29
TORSDOF 4
ENDMDL
MODEL 7
REMARK VINA RESULT:      -7.9      3.796      7.692
REMARK  Name = 
REMARK  6 active torsions:
REMARK  status: ('A' for Active; 'I' for Inactive)
REMARK    1  A    between atoms: C_1  and  C_2
REMARK    2  A    between atoms: C_4  and  C_5
REMARK    3  A    between atoms: C_7  and  C_8
REMARK    4  A    between atoms: C_11  and  C_12
REMARK    5  A    between atoms: C_23  and  C_24
REMARK    6  A    between atoms: C_28  and  C_29
REMARK                            x       y       z     vdW  Elec       q    Type
REMARK                         _______ _______ _______ _____ _____    ______ ____
ROOT
ATOM      1  C   UNL     1       4.063   5.471  18.747  0.00  0.00    +0.000 A 
ATOM      2  N   UNL     1       3.558   6.736  18.848  0.00  0.00    +0.000 NA
ATOM      3  C   UNL     1       2.509   6.675  19.648  0.00  0.00    +0.000 A 
ATOM      4  N   UNL     1       2.287   5.355  20.016  0.00  0.00    +0.000 N 
ATOM      5  C   UNL     1       3.343   4.596  19.542  0.00  0.00    +0.000 A 
ATOM      6  C   UNL     1       3.578   3.144  19.835  0.00  0.00    +0.000 C 
ATOM      7  C   UNL     1       2.902   2.638  21.097  0.00  0.00    +0.000 C 
ATOM      8  O   UNL     1       1.510   2.381  20.934  0.00  0.00    +0.000 OA
ATOM      9  C   UNL     1       0.685   3.417  20.382  0.00  0.00    +0.000 C 
ATOM     10  C   UNL     1       1.124   4.848  20.726  0.00  0.00    +0.000 C 
ENDROOT
BRANCH   1  14
ATOM     11  C   UNL     1       6.117   4.695  14.274  0.00  0.00    +0.000 C 
ATOM     12  C   UNL     1       6.204   4.798  15.767  0.00  0.00    +0.000 A 
ATOM     13  C   UNL     1       5.085   5.096  16.530  0.00  0.00    +0.000 A 
ATOM     14  C   UNL     1       5.213   5.155  17.919  0.00  0.00    +0.000 A 
ATOM     15  C   UNL     1       6.455   4.872  18.485  0.00  0.00    +0.000 A 
ATOM     16  C   UNL     1       7.536   4.610  17.658  0.00  0.00    +0.000 A 
ATOM     17  C   UNL     1       8.892   4.356  18.245  0.00  0.00    +0.000 C 
ATOM     18  N   UNL     1       7.424   4.572  16.313  0.00  0.00    +0.000 NA
ENDBRANCH   1  14
BRANCH   3  19
ATOM     19  C   UNL     1       1.730   7.868  20.016  0.00  0.00    +0.000 A 
ATOM     20  C   UNL     1       1.365   8.034  21.359  0.00  0.00    +0.000 A 
ATOM     21  C   UNL     1       0.538   9.087  21.764  0.00  0.00    +0.000 A 
ATOM     22  C   UNL     1       0.042  10.006  20.828  0.00  0.00    +0.000 A 
ATOM     23  C   UNL     1       0.416   9.851  19.487  0.00  0.00    +0.000 A 
ATOM     24 CL   UNL     1      -0.154  10.929  18.262  0.00  0.00    +0.000 Cl
ATOM     25  C   UNL     1       1.243   8.790  19.083  0.00  0.00    +0.000 A 
BRANCH  22  26
ATOM     26  C   UNL     1      -0.897  11.095  21.274  0.00  0.00    +0.000 C 
ATOM     27  F   UNL     1      -1.301  10.958  22.571  0.00  0.00    +0.000 F 
ATOM     28  F   UNL     1      -0.344  12.337  21.200  0.00  0.00    +0.000 F 
ENDBRANCH  22  26
ENDBRANCH   3  19
BRANCH   9  29
ATOM     29  C   UNL     1       0.415   3.204  18.887  0.00  0.00    +0.000 C 
ATOM     30  F   UNL     1       0.576   1.883  18.589  0.00  0.00    +0.000 F 
ENDBRANCH   9  29
TORSDOF 4
ENDMDL
MODEL 8
REMARK VINA RESULT:      -7.9      3.798      7.813
REMARK  Name = 
REMARK  6 active torsions:
REMARK  status: ('A' for Active; 'I' for Inactive)
REMARK    1  A    between atoms: C_1  and  C_2
REMARK    2  A    between atoms: C_4  and  C_5
REMARK    3  A    between atoms: C_7  and  C_8
REMARK    4  A    between atoms: C_11  and  C_12
REMARK    5  A    between atoms: C_23  and  C_24
REMARK    6  A    between atoms: C_28  and  C_29
REMARK                            x       y       z     vdW  Elec       q    Type
REMARK                         _______ _______ _______ _____ _____    ______ ____
ROOT
ATOM      1  C   UNL     1       4.058   5.486  18.748  0.00  0.00    +0.000 A 
ATOM      2  N   UNL     1       3.552   6.749  18.856  0.00  0.00    +0.000 NA
ATOM      3  C   UNL     1       2.505   6.683  19.660  0.00  0.00    +0.000 A 
ATOM      4  N   UNL     1       2.285   5.361  20.020  0.00  0.00    +0.000 N 
ATOM      5  C   UNL     1       3.340   4.606  19.539  0.00  0.00    +0.000 A 
ATOM      6  C   UNL     1       3.577   3.152  19.824  0.00  0.00    +0.000 C 
ATOM      7  C   UNL     1       2.904   2.639  21.084  0.00  0.00    +0.000 C 
ATOM      8  O   UNL     1       1.513   2.382  20.924  0.00  0.00    +0.000 OA
ATOM      9  C   UNL     1       0.685   3.420  20.380  0.00  0.00    +0.000 C 
ATOM     10  C   UNL     1       1.124   4.850  20.731  0.00  0.00    +0.000 C 
ENDROOT
BRANCH   1  14
ATOM     11  C   UNL     1       8.885   4.362  18.241  0.00  0.00    +0.000 C 
ATOM     12  C   UNL     1       7.523   4.619  17.672  0.00  0.00    +0.000 A 
ATOM     13  C   UNL     1       6.449   4.918  18.495  0.00  0.00    +0.000 A 
ATOM     14  C   UNL     1       5.205   5.175  17.914  0.00  0.00    +0.000 A 
ATOM     15  C   UNL     1       5.104   5.158  16.524  0.00  0.00    +0.000 A 
ATOM     16  C   UNL     1       6.215   4.822  15.765  0.00  0.00    +0.000 A 
ATOM     17  C   UNL     1       6.114   4.745  14.272  0.00  0.00    +0.000 C 
ATOM     18  N   UNL     1       7.415   4.552  16.322  0.00  0.00    +0.000 NA
ENDBRANCH   1  14
BRANCH   3  19
ATOM     19  C   UNL     1       1.726   7.874  20.036  0.00  0.00    +0.000 A 
ATOM     20  C   UNL     1       1.362   8.031  21.381  0.00  0.00    +0.000 A 
ATOM     21  C   UNL     1       0.535   9.081  21.794  0.00  0.00    +0.000 A 
ATOM     22  C   UNL     1       0.038  10.007  20.864  0.00  0.00    +0.000 A 
ATOM     23  C   UNL     1       0.411   9.860  19.522  0.00  0.00    +0.000 A 
ATOM     24 CL   UNL     1      -0.160  10.946  18.305  0.00  0.00    +0.000 Cl
ATOM     25  C   UNL     1       1.238   8.802  19.110  0.00  0.00    +0.000 A 
BRANCH  22  26
ATOM     26  C   UNL     1      -0.901  11.092  21.318  0.00  0.00    +0.000 C 
ATOM     27  F   UNL     1      -1.346  10.917  22.597  0.00  0.00    +0.000 F 
ATOM     28  F   UNL     1      -0.331  12.328  21.302  0.00  0.00    +0.000 F 
ENDBRANCH  22  26
ENDBRANCH   3  19
BRANCH   9  29
ATOM     29  C   UNL     1       0.411   3.215  18.884  0.00  0.00    +0.000 C 
ATOM     30  F   UNL     1       0.517   1.888  18.590  0.00  0.00    +0.000 F 
ENDBRANCH   9  29
TORSDOF 4
ENDMDL
MODEL 9
REMARK VINA RESULT:      -7.8      3.930      7.931
REMARK  Name = 
REMARK  6 active torsions:
REMARK  status: ('A' for Active; 'I' for Inactive)
REMARK    1  A    between atoms: C_1  and  C_2
REMARK    2  A    between atoms: C_4  and  C_5
REMARK    3  A    between atoms: C_7  and  C_8
REMARK    4  A    between atoms: C_11  and  C_12
REMARK    5  A    between atoms: C_23  and  C_24
REMARK    6  A    between atoms: C_28  and  C_29
REMARK                            x       y       z     vdW  Elec       q    Type
REMARK                         _______ _______ _______ _____ _____    ______ ____
ROOT
ATOM      1  C   UNL     1       3.913   6.101  18.663  0.00  0.00    +0.000 A 
ATOM      2  N   UNL     1       3.294   7.287  18.938  0.00  0.00    +0.000 NA
ATOM      3  C   UNL     1       2.334   7.033  19.809  0.00  0.00    +0.000 A 
ATOM      4  N   UNL     1       2.280   5.667  20.049  0.00  0.00    +0.000 N 
ATOM      5  C   UNL     1       3.360   5.079  19.414  0.00  0.00    +0.000 A 
ATOM      6  C   UNL     1       3.766   3.639  19.530  0.00  0.00    +0.000 C 
ATOM      7  C   UNL     1       3.260   2.941  20.780  0.00  0.00    +0.000 C 
ATOM      8  O   UNL     1       1.893   2.551  20.702  0.00  0.00    +0.000 OA
ATOM      9  C   UNL     1       0.921   3.539  20.331  0.00  0.00    +0.000 C 
ATOM     10  C   UNL     1       1.243   4.969  20.791  0.00  0.00    +0.000 C 
ENDROOT
BRANCH   1  14
ATOM     11  C   UNL     1       6.050   3.953  14.707  0.00  0.00    +0.000 C 
ATOM     12  C   UNL     1       6.029   4.974  15.804  0.00  0.00    +0.000 A 
ATOM     13  C   UNL     1       4.969   5.044  16.695  0.00  0.00    +0.000 A 
ATOM     14  C   UNL     1       5.009   5.996  17.716  0.00  0.00    +0.000 A 
ATOM     15  C   UNL     1       6.134   6.812  17.822  0.00  0.00    +0.000 A 
ATOM     16  C   UNL     1       7.143   6.704  16.876  0.00  0.00    +0.000 A 
ATOM     17  C   UNL     1       8.336   7.610  16.940  0.00  0.00    +0.000 C 
ATOM     18  N   UNL     1       7.101   5.801  15.875  0.00  0.00    +0.000 NA
ENDBRANCH   1  14
BRANCH   3  19
ATOM     19  C   UNL     1       1.475   8.092  20.363  0.00  0.00    +0.000 A 
ATOM     20  C   UNL     1       1.397   8.222  21.757  0.00  0.00    +0.000 A 
ATOM     21  C   UNL     1       0.524   9.135  22.356  0.00  0.00    +0.000 A 
ATOM     22  C   UNL     1      -0.311   9.945  21.571  0.00  0.00    +0.000 A 
ATOM     23  C   UNL     1      -0.226   9.828  20.178  0.00  0.00    +0.000 A 
ATOM     24 CL   UNL     1      -1.220  10.778  19.132  0.00  0.00    +0.000 Cl
ATOM     25  C   UNL     1       0.650   8.907  19.580  0.00  0.00    +0.000 A 
BRANCH  22  26
ATOM     26  C   UNL     1      -1.289  10.877  22.236  0.00  0.00    +0.000 C 
ATOM     27  F   UNL     1      -1.599  10.507  23.513  0.00  0.00    +0.000 F 
ATOM     28  F   UNL     1      -0.824  12.152  22.334  0.00  0.00    +0.000 F 
ENDBRANCH  22  26
ENDBRANCH   3  19
BRANCH   9  29
ATOM     29  C   UNL     1       0.540   3.445  18.848  0.00  0.00    +0.000 C 
ATOM     30  F   UNL     1       0.208   2.156  18.554  0.00  0.00    +0.000 F 
ENDBRANCH   9  29
TORSDOF 4
ENDMDL
