MODEL 1
REMARK VINA RESULT:      -8.2      0.000      0.000
REMARK  Name = 
REMARK  10 active torsions:
REMARK  status: ('A' for Active; 'I' for Inactive)
REMARK    1  A    between atoms: C_1  and  C_2
REMARK    2  A    between atoms: C_2  and  C_3
REMARK    3  A    between atoms: C_3  and  C_4
REMARK    4  A    between atoms: C_3  and  C_5
REMARK    5  A    between atoms: C_5  and  C_6
REMARK    6  A    between atoms: C_5  and  N_19
REMARK    7  A    between atoms: N_8  and  N_9
REMARK    8  A    between atoms: C_10  and  C_11
REMARK    9  A    between atoms: C_14  and  O_15
REMARK   10  A    between atoms: O_15  and  C_16
REMARK                            x       y       z     vdW  Elec       q    Type
REMARK                         _______ _______ _______ _____ _____    ______ ____
ROOT
ATOM      1  C   UNL     1       3.833   4.716  18.900  0.00  0.00    +0.000 C 
ENDROOT
BRANCH   1   2
ATOM      2  N   UNL     1       3.083   5.934  19.268  0.00  0.00    +0.000 N 
ATOM      3  C   UNL     1       2.969   7.012  18.431  0.00  0.00    +0.000 C 
ATOM      4  O   UNL     1       3.451   7.168  17.326  0.00  0.00    +0.000 OA
ATOM      5  C   UNL     1       2.083   7.978  19.079  0.00  0.00    +0.000 A 
ATOM      6  C   UNL     1       1.598   9.196  18.644  0.00  0.00    +0.000 A 
ATOM      7  C   UNL     1       0.745   9.892  19.507  0.00  0.00    +0.000 A 
ATOM      8  C   UNL     1       0.418   9.371  20.776  0.00  0.00    +0.000 A 
ATOM      9  C   UNL     1       0.900   8.122  21.180  0.00  0.00    +0.000 A 
ATOM     10  C   UNL     1       1.716   7.440  20.296  0.00  0.00    +0.000 A 
ATOM     11  C   UNL     1       2.284   6.095  20.368  0.00  0.00    +0.000 C 
ATOM     12  O   UNL     1       1.965   5.306  21.232  0.00  0.00    +0.000 OA
ENDBRANCH   1   2
BRANCH   1  13
ATOM     13  C   UNL     1       5.331   5.032  18.699  0.00  0.00    +0.000 C 
ATOM     14  O   UNL     1       6.122   5.144  19.638  0.00  0.00    +0.000 OA
ATOM     15  N   UNL     1       5.667   5.383  17.391  0.00  0.00    +0.000 N 
ATOM     16  H   UNL     1       4.966   5.458  16.665  0.00  0.00    +0.000 HD
BRANCH  15  17
ATOM     17  N   UNL     1       6.955   5.731  17.122  0.00  0.00    +0.000 NA
ATOM     18  C   UNL     1       7.504   5.395  15.997  0.00  0.00    +0.000 C 
BRANCH  18  19
ATOM     19  C   UNL     1       6.905   4.802  14.786  0.00  0.00    +0.000 A 
ATOM     20  C   UNL     1       7.540   4.847  13.543  0.00  0.00    +0.000 A 
ATOM     21  C   UNL     1       6.955   4.210  12.447  0.00  0.00    +0.000 A 
ATOM     22  C   UNL     1       5.768   3.490  12.596  0.00  0.00    +0.000 A 
ATOM     23  C   UNL     1       5.141   3.437  13.841  0.00  0.00    +0.000 A 
ATOM     24  C   UNL     1       5.711   4.088  14.938  0.00  0.00    +0.000 A 
BRANCH  22  25
ATOM     25  O   UNL     1       5.294   2.900  11.457  0.00  0.00    +0.000 OA
ATOM     26  C   UNL     1       3.949   3.226  11.121  0.00  0.00    +0.000 C 
ENDBRANCH  22  25
ENDBRANCH  18  19
ENDBRANCH  15  17
ENDBRANCH   1  13
BRANCH   1  27
ATOM     27  C   UNL     1       3.172   3.836  17.794  0.00  0.00    +0.000 C 
ATOM     28  C   UNL     1       3.650   2.378  17.773  0.00  0.00    +0.000 C 
BRANCH  27  30
ATOM     29  C   UNL     1       0.997   2.739  18.704  0.00  0.00    +0.000 C 
ATOM     30  C   UNL     1       1.618   3.830  17.842  0.00  0.00    +0.000 C 
ENDBRANCH  27  30
ENDBRANCH   1  27
TORSDOF 7
ENDMDL
MODEL 2
REMARK VINA RESULT:      -8.1      1.174      1.420
REMARK  Name = 
REMARK  10 active torsions:
REMARK  status: ('A' for Active; 'I' for Inactive)
REMARK    1  A    between atoms: C_1  and  C_2
REMARK    2  A    between atoms: C_2  and  C_3
REMARK    3  A    between atoms: C_3  and  C_4
REMARK    4  A    between atoms: C_3  and  C_5
REMARK    5  A    between atoms: C_5  and  C_6
REMARK    6  A    between atoms: C_5  and  N_19
REMARK    7  A    between atoms: N_8  and  N_9
REMARK    8  A    between atoms: C_10  and  C_11
REMARK    9  A    between atoms: C_14  and  O_15
REMARK   10  A    between atoms: O_15  and  C_16
REMARK                            x       y       z     vdW  Elec       q    Type
REMARK                         _______ _______ _______ _____ _____    ______ ____
ROOT
ATOM      1  C   UNL     1       3.183   4.014  19.267  0.00  0.00    +0.000 C 
ENDROOT
BRANCH   1   2
ATOM      2  N   UNL     1       2.813   5.443  19.228  0.00  0.00    +0.000 N 
ATOM      3  C   UNL     1       2.999   6.225  18.118  0.00  0.00    +0.000 C 
ATOM      4  O   UNL     1       3.494   5.919  17.050  0.00  0.00    +0.000 OA
ATOM      5  C   UNL     1       2.430   7.540  18.408  0.00  0.00    +0.000 A 
ATOM      6  C   UNL     1       2.305   8.666  17.618  0.00  0.00    +0.000 A 
ATOM      7  C   UNL     1       1.694   9.786  18.191  0.00  0.00    +0.000 A 
ATOM      8  C   UNL     1       1.247   9.762  19.528  0.00  0.00    +0.000 A 
ATOM      9  C   UNL     1       1.360   8.599  20.296  0.00  0.00    +0.000 A 
ATOM     10  C   UNL     1       1.940   7.496  19.697  0.00  0.00    +0.000 A 
ATOM     11  C   UNL     1       2.104   6.126  20.180  0.00  0.00    +0.000 C 
ATOM     12  O   UNL     1       1.584   5.736  21.205  0.00  0.00    +0.000 OA
ENDBRANCH   1   2
BRANCH   1  13
ATOM     13  C   UNL     1       4.716   3.844  19.318  0.00  0.00    +0.000 C 
ATOM     14  O   UNL     1       5.265   2.918  19.919  0.00  0.00    +0.000 OA
ATOM     15  N   UNL     1       5.427   4.931  18.809  0.00  0.00    +0.000 N 
ATOM     16  H   UNL     1       4.956   5.765  18.479  0.00  0.00    +0.000 HD
BRANCH  15  17
ATOM     17  N   UNL     1       6.786   4.901  18.859  0.00  0.00    +0.000 NA
ATOM     18  C   UNL     1       7.476   4.647  17.791  0.00  0.00    +0.000 C 
BRANCH  18  19
ATOM     19  C   UNL     1       7.046   4.536  16.384  0.00  0.00    +0.000 A 
ATOM     20  C   UNL     1       7.653   5.265  15.360  0.00  0.00    +0.000 A 
ATOM     21  C   UNL     1       7.247   5.068  14.038  0.00  0.00    +0.000 A 
ATOM     22  C   UNL     1       6.273   4.115  13.731  0.00  0.00    +0.000 A 
ATOM     23  C   UNL     1       5.676   3.379  14.755  0.00  0.00    +0.000 A 
ATOM     24  C   UNL     1       6.064   3.585  16.081  0.00  0.00    +0.000 A 
BRANCH  22  25
ATOM     25  O   UNL     1       5.963   4.003  12.404  0.00  0.00    +0.000 OA
ATOM     26  C   UNL     1       5.449   2.736  12.008  0.00  0.00    +0.000 C 
ENDBRANCH  22  25
ENDBRANCH  18  19
ENDBRANCH  15  17
ENDBRANCH   1  13
BRANCH   1  27
ATOM     27  C   UNL     1       2.435   3.104  18.243  0.00  0.00    +0.000 C 
ATOM     28  C   UNL     1       3.304   2.007  17.615  0.00  0.00    +0.000 C 
BRANCH  27  30
ATOM     29  C   UNL     1       0.957   2.590  20.320  0.00  0.00    +0.000 C 
ATOM     30  C   UNL     1       1.157   2.431  18.819  0.00  0.00    +0.000 C 
ENDBRANCH  27  30
ENDBRANCH   1  27
TORSDOF 7
ENDMDL
MODEL 3
REMARK VINA RESULT:      -7.4      5.083      9.552
REMARK  Name = 
REMARK  10 active torsions:
REMARK  status: ('A' for Active; 'I' for Inactive)
REMARK    1  A    between atoms: C_1  and  C_2
REMARK    2  A    between atoms: C_2  and  C_3
REMARK    3  A    between atoms: C_3  and  C_4
REMARK    4  A    between atoms: C_3  and  C_5
REMARK    5  A    between atoms: C_5  and  C_6
REMARK    6  A    between atoms: C_5  and  N_19
REMARK    7  A    between atoms: N_8  and  N_9
REMARK    8  A    between atoms: C_10  and  C_11
REMARK    9  A    between atoms: C_14  and  O_15
REMARK   10  A    between atoms: O_15  and  C_16
REMARK                            x       y       z     vdW  Elec       q    Type
REMARK                         _______ _______ _______ _____ _____    ______ ____
ROOT
ATOM      1  C   UNL     1       0.356  10.865  19.569  0.00  0.00    +0.000 C 
ENDROOT
BRANCH   1   2
ATOM      2  N   UNL     1       1.061   9.587  19.350  0.00  0.00    +0.000 N 
ATOM      3  C   UNL     1       1.873   9.366  18.269  0.00  0.00    +0.000 C 
ATOM      4  O   UNL     1       2.121  10.114  17.343  0.00  0.00    +0.000 OA
ATOM      5  C   UNL     1       2.473   8.044  18.435  0.00  0.00    +0.000 A 
ATOM      6  C   UNL     1       3.400   7.368  17.665  0.00  0.00    +0.000 A 
ATOM      7  C   UNL     1       3.791   6.097  18.102  0.00  0.00    +0.000 A 
ATOM      8  C   UNL     1       3.239   5.532  19.270  0.00  0.00    +0.000 A 
ATOM      9  C   UNL     1       2.324   6.251  20.046  0.00  0.00    +0.000 A 
ATOM     10  C   UNL     1       1.976   7.515  19.609  0.00  0.00    +0.000 A 
ATOM     11  C   UNL     1       1.148   8.545  20.235  0.00  0.00    +0.000 C 
ATOM     12  O   UNL     1       0.742   8.442  21.373  0.00  0.00    +0.000 OA
ENDBRANCH   1   2
BRANCH   1  13
ATOM     13  C   UNL     1       0.974  11.640  20.753  0.00  0.00    +0.000 C 
ATOM     14  O   UNL     1       0.571  11.520  21.912  0.00  0.00    +0.000 OA
ATOM     15  N   UNL     1       1.877  12.633  20.373  0.00  0.00    +0.000 N 
ATOM     16  H   UNL     1       2.063  12.836  19.399  0.00  0.00    +0.000 HD
BRANCH  15  17
ATOM     17  N   UNL     1       2.437  13.408  21.342  0.00  0.00    +0.000 NA
ATOM     18  C   UNL     1       2.808  14.622  21.077  0.00  0.00    +0.000 C 
BRANCH  18  19
ATOM     19  C   UNL     1       2.575  15.448  19.878  0.00  0.00    +0.000 A 
ATOM     20  C   UNL     1       1.511  16.348  19.788  0.00  0.00    +0.000 A 
ATOM     21  C   UNL     1       1.380  17.151  18.654  0.00  0.00    +0.000 A 
ATOM     22  C   UNL     1       2.331  17.095  17.633  0.00  0.00    +0.000 A 
ATOM     23  C   UNL     1       3.400  16.205  17.729  0.00  0.00    +0.000 A 
ATOM     24  C   UNL     1       3.527  15.384  18.853  0.00  0.00    +0.000 A 
BRANCH  22  25
ATOM     25  O   UNL     1       2.105  17.934  16.577  0.00  0.00    +0.000 OA
ATOM     26  C   UNL     1       0.842  18.591  16.585  0.00  0.00    +0.000 C 
ENDBRANCH  22  25
ENDBRANCH  18  19
ENDBRANCH  15  17
ENDBRANCH   1  13
BRANCH   1  27
ATOM     27  C   UNL     1      -1.202  10.777  19.558  0.00  0.00    +0.000 C 
ATOM     28  C   UNL     1      -1.916  12.115  19.791  0.00  0.00    +0.000 C 
BRANCH  27  30
ATOM     29  C   UNL     1      -2.240  11.134  17.200  0.00  0.00    +0.000 C 
ATOM     30  C   UNL     1      -1.785  10.144  18.263  0.00  0.00    +0.000 C 
ENDBRANCH  27  30
ENDBRANCH   1  27
TORSDOF 7
ENDMDL
MODEL 4
REMARK VINA RESULT:      -7.4      0.294      1.000
REMARK  Name = 
REMARK  10 active torsions:
REMARK  status: ('A' for Active; 'I' for Inactive)
REMARK    1  A    between atoms: C_1  and  C_2
REMARK    2  A    between atoms: C_2  and  C_3
REMARK    3  A    between atoms: C_3  and  C_4
REMARK    4  A    between atoms: C_3  and  C_5
REMARK    5  A    between atoms: C_5  and  C_6
REMARK    6  A    between atoms: C_5  and  N_19
REMARK    7  A    between atoms: N_8  and  N_9
REMARK    8  A    between atoms: C_10  and  C_11
REMARK    9  A    between atoms: C_14  and  O_15
REMARK   10  A    between atoms: O_15  and  C_16
REMARK                            x       y       z     vdW  Elec       q    Type
REMARK                         _______ _______ _______ _____ _____    ______ ____
ROOT
ATOM      1  C   UNL     1       4.004   4.694  18.953  0.00  0.00    +0.000 C 
ENDROOT
BRANCH   1   2
ATOM      2  N   UNL     1       3.209   5.886  19.308  0.00  0.00    +0.000 N 
ATOM      3  C   UNL     1       3.050   6.949  18.457  0.00  0.00    +0.000 C 
ATOM      4  O   UNL     1       3.523   7.109  17.349  0.00  0.00    +0.000 OA
ATOM      5  C   UNL     1       2.130   7.887  19.097  0.00  0.00    +0.000 A 
ATOM      6  C   UNL     1       1.596   9.080  18.647  0.00  0.00    +0.000 A 
ATOM      7  C   UNL     1       0.720   9.754  19.504  0.00  0.00    +0.000 A 
ATOM      8  C   UNL     1       0.417   9.237  20.781  0.00  0.00    +0.000 A 
ATOM      9  C   UNL     1       0.949   8.013  21.199  0.00  0.00    +0.000 A 
ATOM     10  C   UNL     1       1.788   7.352  20.322  0.00  0.00    +0.000 A 
ATOM     11  C   UNL     1       2.407   6.031  20.409  0.00  0.00    +0.000 C 
ATOM     12  O   UNL     1       2.122   5.241  21.285  0.00  0.00    +0.000 OA
ENDBRANCH   1   2
BRANCH   1  13
ATOM     13  C   UNL     1       5.479   5.072  18.696  0.00  0.00    +0.000 C 
ATOM     14  O   UNL     1       6.295   5.234  19.606  0.00  0.00    +0.000 OA
ATOM     15  N   UNL     1       5.755   5.418  17.373  0.00  0.00    +0.000 N 
ATOM     16  H   UNL     1       5.027   5.451  16.671  0.00  0.00    +0.000 HD
BRANCH  15  17
ATOM     17  N   UNL     1       7.016   5.818  17.055  0.00  0.00    +0.000 NA
ATOM     18  C   UNL     1       7.566   5.435  15.945  0.00  0.00    +0.000 C 
BRANCH  18  19
ATOM     19  C   UNL     1       6.984   4.724  14.791  0.00  0.00    +0.000 A 
ATOM     20  C   UNL     1       5.790   4.005  14.883  0.00  0.00    +0.000 A 
ATOM     21  C   UNL     1       5.254   3.409  13.740  0.00  0.00    +0.000 A 
ATOM     22  C   UNL     1       5.877   3.567  12.500  0.00  0.00    +0.000 A 
ATOM     23  C   UNL     1       7.063   4.295  12.408  0.00  0.00    +0.000 A 
ATOM     24  C   UNL     1       7.615   4.879  13.551  0.00  0.00    +0.000 A 
BRANCH  22  25
ATOM     25  O   UNL     1       5.257   2.947  11.451  0.00  0.00    +0.000 OA
ATOM     26  C   UNL     1       3.886   3.286  11.272  0.00  0.00    +0.000 C 
ENDBRANCH  22  25
ENDBRANCH  18  19
ENDBRANCH  15  17
ENDBRANCH   1  13
BRANCH   1  27
ATOM     27  C   UNL     1       3.353   3.750  17.895  0.00  0.00    +0.000 C 
ATOM     28  C   UNL     1       4.025   2.377  17.770  0.00  0.00    +0.000 C 
BRANCH  27  30
ATOM     29  C   UNL     1       0.913   4.376  17.250  0.00  0.00    +0.000 C 
ATOM     30  C   UNL     1       1.831   3.520  18.112  0.00  0.00    +0.000 C 
ENDBRANCH  27  30
ENDBRANCH   1  27
TORSDOF 7
ENDMDL
MODEL 5
REMARK VINA RESULT:      -7.3      5.073      9.660
REMARK  Name = 
REMARK  10 active torsions:
REMARK  status: ('A' for Active; 'I' for Inactive)
REMARK    1  A    between atoms: C_1  and  C_2
REMARK    2  A    between atoms: C_2  and  C_3
REMARK    3  A    between atoms: C_3  and  C_4
REMARK    4  A    between atoms: C_3  and  C_5
REMARK    5  A    between atoms: C_5  and  C_6
REMARK    6  A    between atoms: C_5  and  N_19
REMARK    7  A    between atoms: N_8  and  N_9
REMARK    8  A    between atoms: C_10  and  C_11
REMARK    9  A    between atoms: C_14  and  O_15
REMARK   10  A    between atoms: O_15  and  C_16
REMARK                            x       y       z     vdW  Elec       q    Type
REMARK                         _______ _______ _______ _____ _____    ______ ____
ROOT
ATOM      1  C   UNL     1       0.501  10.825  19.551  0.00  0.00    +0.000 C 
ENDROOT
BRANCH   1   2
ATOM      2  N   UNL     1       1.242   9.554  19.427  0.00  0.00    +0.000 N 
ATOM      3  C   UNL     1       1.132   8.543  20.346  0.00  0.00    +0.000 C 
ATOM      4  O   UNL     1       0.478   8.517  21.370  0.00  0.00    +0.000 OA
ATOM      5  C   UNL     1       1.921   7.416  19.851  0.00  0.00    +0.000 A 
ATOM      6  C   UNL     1       2.101   6.144  20.361  0.00  0.00    +0.000 A 
ATOM      7  C   UNL     1       2.922   5.273  19.636  0.00  0.00    +0.000 A 
ATOM      8  C   UNL     1       3.552   5.695  18.447  0.00  0.00    +0.000 A 
ATOM      9  C   UNL     1       3.329   6.978  17.939  0.00  0.00    +0.000 A 
ATOM     10  C   UNL     1       2.490   7.809  18.657  0.00  0.00    +0.000 A 
ATOM     11  C   UNL     1       1.976   9.142  18.347  0.00  0.00    +0.000 C 
ATOM     12  O   UNL     1       2.142   9.662  17.264  0.00  0.00    +0.000 OA
ENDBRANCH   1   2
BRANCH   1  13
ATOM     13  C   UNL     1       1.004  11.641  20.761  0.00  0.00    +0.000 C 
ATOM     14  O   UNL     1       0.525  11.524  21.891  0.00  0.00    +0.000 OA
ATOM     15  N   UNL     1       1.894  12.662  20.427  0.00  0.00    +0.000 N 
ATOM     16  H   UNL     1       2.140  12.858  19.464  0.00  0.00    +0.000 HD
BRANCH  15  17
ATOM     17  N   UNL     1       2.354  13.474  21.418  0.00  0.00    +0.000 NA
ATOM     18  C   UNL     1       2.683  14.701  21.161  0.00  0.00    +0.000 C 
BRANCH  18  19
ATOM     19  C   UNL     1       2.487  15.503  19.938  0.00  0.00    +0.000 A 
ATOM     20  C   UNL     1       1.433  16.408  19.802  0.00  0.00    +0.000 A 
ATOM     21  C   UNL     1       1.337  17.188  18.648  0.00  0.00    +0.000 A 
ATOM     22  C   UNL     1       2.313  17.102  17.653  0.00  0.00    +0.000 A 
ATOM     23  C   UNL     1       3.372  16.206  17.795  0.00  0.00    +0.000 A 
ATOM     24  C   UNL     1       3.464  15.409  18.940  0.00  0.00    +0.000 A 
BRANCH  22  25
ATOM     25  O   UNL     1       2.120  17.919  16.574  0.00  0.00    +0.000 OA
ATOM     26  C   UNL     1       0.816  18.481  16.464  0.00  0.00    +0.000 C 
ENDBRANCH  22  25
ENDBRANCH  18  19
ENDBRANCH  15  17
ENDBRANCH   1  13
BRANCH   1  27
ATOM     27  C   UNL     1      -1.049  10.708  19.411  0.00  0.00    +0.000 C 
ATOM     28  C   UNL     1      -1.799  12.043  19.517  0.00  0.00    +0.000 C 
BRANCH  27  30
ATOM     29  C   UNL     1      -2.972  10.208  17.733  0.00  0.00    +0.000 C 
ATOM     30  C   UNL     1      -1.510  10.004  18.103  0.00  0.00    +0.000 C 
ENDBRANCH  27  30
ENDBRANCH   1  27
TORSDOF 7
ENDMDL
MODEL 6
REMARK VINA RESULT:      -7.3      5.033     10.796
REMARK  Name = 
REMARK  10 active torsions:
REMARK  status: ('A' for Active; 'I' for Inactive)
REMARK    1  A    between atoms: C_1  and  C_2
REMARK    2  A    between atoms: C_2  and  C_3
REMARK    3  A    between atoms: C_3  and  C_4
REMARK    4  A    between atoms: C_3  and  C_5
REMARK    5  A    between atoms: C_5  and  C_6
REMARK    6  A    between atoms: C_5  and  N_19
REMARK    7  A    between atoms: N_8  and  N_9
REMARK    8  A    between atoms: C_10  and  C_11
REMARK    9  A    between atoms: C_14  and  O_15
REMARK   10  A    between atoms: O_15  and  C_16
REMARK                            x       y       z     vdW  Elec       q    Type
REMARK                         _______ _______ _______ _____ _____    ______ ____
ROOT
ATOM      1  C   UNL     1       0.246  10.971  19.423  0.00  0.00    +0.000 C 
ENDROOT
BRANCH   1   2
ATOM      2  N   UNL     1       0.897   9.647  19.389  0.00  0.00    +0.000 N 
ATOM      3  C   UNL     1       1.723   9.255  18.369  0.00  0.00    +0.000 C 
ATOM      4  O   UNL     1       2.027   9.867  17.363  0.00  0.00    +0.000 OA
ATOM      5  C   UNL     1       2.259   7.941  18.719  0.00  0.00    +0.000 A 
ATOM      6  C   UNL     1       3.172   7.133  18.069  0.00  0.00    +0.000 A 
ATOM      7  C   UNL     1       3.495   5.914  18.675  0.00  0.00    +0.000 A 
ATOM      8  C   UNL     1       2.890   5.527  19.889  0.00  0.00    +0.000 A 
ATOM      9  C   UNL     1       1.991   6.377  20.540  0.00  0.00    +0.000 A 
ATOM     10  C   UNL     1       1.711   7.589  19.936  0.00  0.00    +0.000 A 
ATOM     11  C   UNL     1       0.917   8.724  20.401  0.00  0.00    +0.000 C 
ATOM     12  O   UNL     1       0.479   8.785  21.531  0.00  0.00    +0.000 OA
ENDBRANCH   1   2
BRANCH   1  13
ATOM     13  C   UNL     1       0.490  11.671  20.778  0.00  0.00    +0.000 C 
ATOM     14  O   UNL     1       1.612  12.003  21.165  0.00  0.00    +0.000 OA
ATOM     15  N   UNL     1      -0.630  11.705  21.609  0.00  0.00    +0.000 N 
ATOM     16  H   UNL     1      -1.502  11.266  21.343  0.00  0.00    +0.000 HD
BRANCH  15  17
ATOM     17  N   UNL     1      -0.503  12.254  22.848  0.00  0.00    +0.000 NA
ATOM     18  C   UNL     1      -1.510  12.847  23.409  0.00  0.00    +0.000 C 
BRANCH  18  19
ATOM     19  C   UNL     1      -2.927  12.907  23.002  0.00  0.00    +0.000 A 
ATOM     20  C   UNL     1      -3.319  12.871  21.663  0.00  0.00    +0.000 A 
ATOM     21  C   UNL     1      -4.678  12.864  21.342  0.00  0.00    +0.000 A 
ATOM     22  C   UNL     1      -5.643  12.842  22.351  0.00  0.00    +0.000 A 
ATOM     23  C   UNL     1      -5.250  12.866  23.688  0.00  0.00    +0.000 A 
ATOM     24  C   UNL     1      -3.892  12.893  24.016  0.00  0.00    +0.000 A 
BRANCH  22  25
ATOM     25  O   UNL     1      -6.941  12.826  21.918  0.00  0.00    +0.000 OA
ATOM     26  C   UNL     1      -7.862  12.182  22.792  0.00  0.00    +0.000 C 
ENDBRANCH  22  25
ENDBRANCH  18  19
ENDBRANCH  15  17
ENDBRANCH   1  13
BRANCH   1  27
ATOM     27  C   UNL     1      -1.224  11.004  18.899  0.00  0.00    +0.000 C 
ATOM     28  C   UNL     1      -1.586  12.263  18.102  0.00  0.00    +0.000 C 
BRANCH  27  30
ATOM     29  C   UNL     1      -2.203  10.080  16.675  0.00  0.00    +0.000 C 
ATOM     30  C   UNL     1      -1.612   9.766  18.042  0.00  0.00    +0.000 C 
ENDBRANCH  27  30
ENDBRANCH   1  27
TORSDOF 7
ENDMDL
MODEL 7
REMARK VINA RESULT:      -7.3      2.940      5.340
REMARK  Name = 
REMARK  10 active torsions:
REMARK  status: ('A' for Active; 'I' for Inactive)
REMARK    1  A    between atoms: C_1  and  C_2
REMARK    2  A    between atoms: C_2  and  C_3
REMARK    3  A    between atoms: C_3  and  C_4
REMARK    4  A    between atoms: C_3  and  C_5
REMARK    5  A    between atoms: C_5  and  C_6
REMARK    6  A    between atoms: C_5  and  N_19
REMARK    7  A    between atoms: N_8  and  N_9
REMARK    8  A    between atoms: C_10  and  C_11
REMARK    9  A    between atoms: C_14  and  O_15
REMARK   10  A    between atoms: O_15  and  C_16
REMARK                            x       y       z     vdW  Elec       q    Type
REMARK                         _______ _______ _______ _____ _____    ______ ____
ROOT
ATOM      1  C   UNL     1       3.800   6.271  17.838  0.00  0.00    +0.000 C 
ENDROOT
BRANCH   1   2
ATOM      2  N   UNL     1       2.913   7.147  18.627  0.00  0.00    +0.000 N 
ATOM      3  C   UNL     1       2.349   8.285  18.112  0.00  0.00    +0.000 C 
ATOM      4  O   UNL     1       2.488   8.765  17.004  0.00  0.00    +0.000 OA
ATOM      5  C   UNL     1       1.462   8.836  19.135  0.00  0.00    +0.000 A 
ATOM      6  C   UNL     1       0.620   9.931  19.109  0.00  0.00    +0.000 A 
ATOM      7  C   UNL     1      -0.121  10.198  20.265  0.00  0.00    +0.000 A 
ATOM      8  C   UNL     1       0.010   9.387  21.411  0.00  0.00    +0.000 A 
ATOM      9  C   UNL     1       0.848   8.268  21.401  0.00  0.00    +0.000 A 
ATOM     10  C   UNL     1       1.547   8.008  20.236  0.00  0.00    +0.000 A 
ATOM     11  C   UNL     1       2.403   6.882  19.870  0.00  0.00    +0.000 C 
ATOM     12  O   UNL     1       2.501   5.892  20.566  0.00  0.00    +0.000 OA
ENDBRANCH   1   2
BRANCH   1  13
ATOM     13  C   UNL     1       3.086   4.952  17.469  0.00  0.00    +0.000 C 
ATOM     14  O   UNL     1       3.499   4.192  16.590  0.00  0.00    +0.000 OA
ATOM     15  N   UNL     1       1.833   4.799  18.063  0.00  0.00    +0.000 N 
ATOM     16  H   UNL     1       1.431   5.522  18.647  0.00  0.00    +0.000 HD
BRANCH  15  17
ATOM     17  N   UNL     1       1.100   3.694  17.759  0.00  0.00    +0.000 NA
ATOM     18  C   UNL     1       1.474   2.524  18.174  0.00  0.00    +0.000 C 
BRANCH  18  19
ATOM     19  C   UNL     1       2.535   2.147  19.126  0.00  0.00    +0.000 A 
ATOM     20  C   UNL     1       3.718   1.528  18.717  0.00  0.00    +0.000 A 
ATOM     21  C   UNL     1       4.715   1.256  19.655  0.00  0.00    +0.000 A 
ATOM     22  C   UNL     1       4.557   1.641  20.988  0.00  0.00    +0.000 A 
ATOM     23  C   UNL     1       3.380   2.269  21.394  0.00  0.00    +0.000 A 
ATOM     24  C   UNL     1       2.370   2.528  20.463  0.00  0.00    +0.000 A 
BRANCH  22  25
ATOM     25  O   UNL     1       5.602   1.330  21.814  0.00  0.00    +0.000 OA
ATOM     26  C   UNL     1       5.955  -0.048  21.852  0.00  0.00    +0.000 C 
ENDBRANCH  22  25
ENDBRANCH  18  19
ENDBRANCH  15  17
ENDBRANCH   1  13
BRANCH   1  27
ATOM     27  C   UNL     1       5.253   6.122  18.389  0.00  0.00    +0.000 C 
ATOM     28  C   UNL     1       5.471   4.892  19.280  0.00  0.00    +0.000 C 
BRANCH  27  30
ATOM     29  C   UNL     1       7.400   5.023  17.418  0.00  0.00    +0.000 C 
ATOM     30  C   UNL     1       6.345   6.113  17.283  0.00  0.00    +0.000 C 
ENDBRANCH  27  30
ENDBRANCH   1  27
TORSDOF 7
ENDMDL
MODEL 8
REMARK VINA RESULT:      -7.2      5.052      9.775
REMARK  Name = 
REMARK  10 active torsions:
REMARK  status: ('A' for Active; 'I' for Inactive)
REMARK    1  A    between atoms: C_1  and  C_2
REMARK    2  A    between atoms: C_2  and  C_3
REMARK    3  A    between atoms: C_3  and  C_4
REMARK    4  A    between atoms: C_3  and  C_5
REMARK    5  A    between atoms: C_5  and  C_6
REMARK    6  A    between atoms: C_5  and  N_19
REMARK    7  A    between atoms: N_8  and  N_9
REMARK    8  A    between atoms: C_10  and  C_11
REMARK    9  A    between atoms: C_14  and  O_15
REMARK   10  A    between atoms: O_15  and  C_16
REMARK                            x       y       z     vdW  Elec       q    Type
REMARK                         _______ _______ _______ _____ _____    ______ ____
ROOT
ATOM      1  C   UNL     1       0.474  10.798  19.335  0.00  0.00    +0.000 C 
ENDROOT
BRANCH   1   2
ATOM      2  N   UNL     1       1.110   9.466  19.289  0.00  0.00    +0.000 N 
ATOM      3  C   UNL     1       1.958   9.087  18.282  0.00  0.00    +0.000 C 
ATOM      4  O   UNL     1       2.296   9.717  17.298  0.00  0.00    +0.000 OA
ATOM      5  C   UNL     1       2.468   7.759  18.617  0.00  0.00    +0.000 A 
ATOM      6  C   UNL     1       3.389   6.954  17.973  0.00  0.00    +0.000 A 
ATOM      7  C   UNL     1       3.680   5.718  18.560  0.00  0.00    +0.000 A 
ATOM      8  C   UNL     1       3.038   5.312  19.748  0.00  0.00    +0.000 A 
ATOM      9  C   UNL     1       2.132   6.158  20.394  0.00  0.00    +0.000 A 
ATOM     10  C   UNL     1       1.884   7.387  19.810  0.00  0.00    +0.000 A 
ATOM     11  C   UNL     1       1.090   8.521  20.280  0.00  0.00    +0.000 C 
ATOM     12  O   UNL     1       0.623   8.563  21.399  0.00  0.00    +0.000 OA
ENDBRANCH   1   2
BRANCH   1  13
ATOM     13  C   UNL     1       0.991  11.614  20.539  0.00  0.00    +0.000 C 
ATOM     14  O   UNL     1       0.460  11.572  21.651  0.00  0.00    +0.000 OA
ATOM     15  N   UNL     1       1.970  12.553  20.211  0.00  0.00    +0.000 N 
ATOM     16  H   UNL     1       2.268  12.696  19.255  0.00  0.00    +0.000 HD
BRANCH  15  17
ATOM     17  N   UNL     1       2.452  13.360  21.195  0.00  0.00    +0.000 NA
ATOM     18  C   UNL     1       2.356  14.648  21.092  0.00  0.00    +0.000 C 
BRANCH  18  19
ATOM     19  C   UNL     1       1.621  15.473  20.114  0.00  0.00    +0.000 A 
ATOM     20  C   UNL     1       0.254  15.730  20.234  0.00  0.00    +0.000 A 
ATOM     21  C   UNL     1      -0.374  16.572  19.314  0.00  0.00    +0.000 A 
ATOM     22  C   UNL     1       0.366  17.195  18.307  0.00  0.00    +0.000 A 
ATOM     23  C   UNL     1       1.733  16.947  18.195  0.00  0.00    +0.000 A 
ATOM     24  C   UNL     1       2.364  16.090  19.101  0.00  0.00    +0.000 A 
BRANCH  22  25
ATOM     25  O   UNL     1      -0.352  18.005  17.471  0.00  0.00    +0.000 OA
ATOM     26  C   UNL     1       0.351  18.463  16.320  0.00  0.00    +0.000 C 
ENDBRANCH  22  25
ENDBRANCH  18  19
ENDBRANCH  15  17
ENDBRANCH   1  13
BRANCH   1  27
ATOM     27  C   UNL     1      -1.073  10.805  19.126  0.00  0.00    +0.000 C 
ATOM     28  C   UNL     1      -1.730  12.181  19.293  0.00  0.00    +0.000 C 
BRANCH  27  30
ATOM     29  C   UNL     1      -2.992   9.829  17.668  0.00  0.00    +0.000 C 
ATOM     30  C   UNL     1      -1.524  10.222  17.757  0.00  0.00    +0.000 C 
ENDBRANCH  27  30
ENDBRANCH   1  27
TORSDOF 7
ENDMDL
MODEL 9
REMARK VINA RESULT:      -7.1      3.016      5.681
REMARK  Name = 
REMARK  10 active torsions:
REMARK  status: ('A' for Active; 'I' for Inactive)
REMARK    1  A    between atoms: C_1  and  C_2
REMARK    2  A    between atoms: C_2  and  C_3
REMARK    3  A    between atoms: C_3  and  C_4
REMARK    4  A    between atoms: C_3  and  C_5
REMARK    5  A    between atoms: C_5  and  C_6
REMARK    6  A    between atoms: C_5  and  N_19
REMARK    7  A    between atoms: N_8  and  N_9
REMARK    8  A    between atoms: C_10  and  C_11
REMARK    9  A    between atoms: C_14  and  O_15
REMARK   10  A    between atoms: O_15  and  C_16
REMARK                            x       y       z     vdW  Elec       q    Type
REMARK                         _______ _______ _______ _____ _____    ______ ____
ROOT
ATOM      1  C   UNL     1       3.651   6.302  17.700  0.00  0.00    +0.000 C 
ENDROOT
BRANCH   1   2
ATOM      2  N   UNL     1       2.735   7.156  18.481  0.00  0.00    +0.000 N 
ATOM      3  C   UNL     1       2.419   6.898  19.789  0.00  0.00    +0.000 C 
ATOM      4  O   UNL     1       2.782   5.972  20.488  0.00  0.00    +0.000 OA
ATOM      5  C   UNL     1       1.577   7.996  20.261  0.00  0.00    +0.000 A 
ATOM      6  C   UNL     1       1.038   8.252  21.507  0.00  0.00    +0.000 A 
ATOM      7  C   UNL     1       0.270   9.414  21.646  0.00  0.00    +0.000 A 
ATOM      8  C   UNL     1       0.047  10.269  20.548  0.00  0.00    +0.000 A 
ATOM      9  C   UNL     1       0.629  10.001  19.305  0.00  0.00    +0.000 A 
ATOM     10  C   UNL     1       1.407   8.863  19.201  0.00  0.00    +0.000 A 
ATOM     11  C   UNL     1       2.226   8.368  18.096  0.00  0.00    +0.000 C 
ATOM     12  O   UNL     1       2.435   9.029  17.100  0.00  0.00    +0.000 OA
ENDBRANCH   1   2
BRANCH   1  13
ATOM     13  C   UNL     1       3.013   4.924  17.417  0.00  0.00    +0.000 C 
ATOM     14  O   UNL     1       3.468   4.136  16.585  0.00  0.00    +0.000 OA
ATOM     15  N   UNL     1       1.773   4.736  18.027  0.00  0.00    +0.000 N 
ATOM     16  H   UNL     1       1.331   5.470  18.567  0.00  0.00    +0.000 HD
BRANCH  15  17
ATOM     17  N   UNL     1       1.104   3.574  17.796  0.00  0.00    +0.000 NA
ATOM     18  C   UNL     1       1.554   2.453  18.268  0.00  0.00    +0.000 C 
BRANCH  18  19
ATOM     19  C   UNL     1       2.650   2.194  19.220  0.00  0.00    +0.000 A 
ATOM     20  C   UNL     1       2.552   2.516  20.575  0.00  0.00    +0.000 A 
ATOM     21  C   UNL     1       3.597   2.185  21.440  0.00  0.00    +0.000 A 
ATOM     22  C   UNL     1       4.714   1.493  20.969  0.00  0.00    +0.000 A 
ATOM     23  C   UNL     1       4.806   1.162  19.617  0.00  0.00    +0.000 A 
ATOM     24  C   UNL     1       3.772   1.506  18.742  0.00  0.00    +0.000 A 
BRANCH  22  25
ATOM     25  O   UNL     1       5.669   1.215  21.908  0.00  0.00    +0.000 OA
ATOM     26  C   UNL     1       6.108  -0.139  21.942  0.00  0.00    +0.000 C 
ENDBRANCH  22  25
ENDBRANCH  18  19
ENDBRANCH  15  17
ENDBRANCH   1  13
BRANCH   1  27
ATOM     27  C   UNL     1       5.128   6.273  18.204  0.00  0.00    +0.000 C 
ATOM     28  C   UNL     1       5.540   4.964  18.888  0.00  0.00    +0.000 C 
BRANCH  27  30
ATOM     29  C   UNL     1       7.508   7.125  17.594  0.00  0.00    +0.000 C 
ATOM     30  C   UNL     1       6.174   6.585  17.097  0.00  0.00    +0.000 C 
ENDBRANCH  27  30
ENDBRANCH   1  27
TORSDOF 7
ENDMDL
