MODEL 1
REMARK VINA RESULT:      -8.0      0.000      0.000
REMARK  Name = 
REMARK  9 active torsions:
REMARK  status: ('A' for Active; 'I' for Inactive)
REMARK    1  A    between atoms: C_1  and  C_2
REMARK    2  A    between atoms: C_2  and  O_3
REMARK    3  A    between atoms: O_3  and  C_4
REMARK    4  A    between atoms: C_6  and  C_7
REMARK    5  A    between atoms: C_7  and  N_8
REMARK    6  A    between atoms: C_17  and  O_18
REMARK    7  A    between atoms: O_18  and  C_19
REMARK    8  A    between atoms: C_19  and  C_20
REMARK    9  A    between atoms: C_23  and  N_24
REMARK                            x       y       z     vdW  Elec       q    Type
REMARK                         _______ _______ _______ _____ _____    ______ ____
ROOT
ATOM      1  C   UNL     1       2.270   4.948  20.048  0.00  0.00    +0.000 A 
ATOM      2  C   UNL     1       1.564   5.878  20.825  0.00  0.00    +0.000 A 
ATOM      3  C   UNL     1       1.567   7.238  20.517  0.00  0.00    +0.000 A 
ATOM      4  C   UNL     1       2.255   7.657  19.377  0.00  0.00    +0.000 A 
ATOM      5  C   UNL     1       2.962   6.742  18.577  0.00  0.00    +0.000 A 
ATOM      6 CL   UNL     1       3.841   7.459  17.266  0.00  0.00    +0.000 Cl
ATOM      7  C   UNL     1       2.974   5.375  18.896  0.00  0.00    +0.000 A 
ENDROOT
BRANCH   1   8
ATOM      8  O   UNL     1       2.352   3.615  20.383  0.00  0.00    +0.000 OA
BRANCH   8  10
ATOM      9  C   UNL     1       0.714   2.364  19.050  0.00  0.00    +0.000 C 
ATOM     10  C   UNL     1       1.138   2.859  20.427  0.00  0.00    +0.000 C 
ENDBRANCH   8  10
ENDBRANCH   1   8
BRANCH   3  11
ATOM     11  C   UNL     1       0.828   8.218  21.400  0.00  0.00    +0.000 C 
BRANCH  11  12
ATOM     12  N   UNL     1       0.749   9.495  20.730  0.00  0.00    +0.000 N 
ATOM     13  C   UNL     1       0.151  10.527  21.347  0.00  0.00    +0.000 A 
ATOM     14  N   UNL     1       0.057  10.624  22.712  0.00  0.00    +0.000 NA
ATOM     15  N   UNL     1      -0.593  11.748  22.968  0.00  0.00    +0.000 NA
ATOM     16  N   UNL     1      -0.854  12.264  21.762  0.00  0.00    +0.000 N 
ATOM     17  N   UNL     1      -0.429  11.547  20.712  0.00  0.00    +0.000 NA
ATOM     18  H   UNL     1       0.570   9.445  19.735  0.00  0.00    +0.000 HD
ATOM     19  H   UNL     1      -1.355  13.141  21.652  0.00  0.00    +0.000 HD
ENDBRANCH  11  12
ENDBRANCH   3  11
BRANCH   7  20
ATOM     20  O   UNL     1       3.646   4.371  18.228  0.00  0.00    +0.000 OA
BRANCH  20  21
ATOM     21  C   UNL     1       5.073   4.358  18.289  0.00  0.00    +0.000 C 
BRANCH  21  22
ATOM     22  C   UNL     1       5.692   4.449  16.906  0.00  0.00    +0.000 A 
ATOM     23  C   UNL     1       4.913   4.302  15.749  0.00  0.00    +0.000 A 
ATOM     24  C   UNL     1       5.480   4.457  14.481  0.00  0.00    +0.000 A 
ATOM     25  C   UNL     1       6.840   4.771  14.367  0.00  0.00    +0.000 A 
ATOM     26  C   UNL     1       7.629   4.940  15.508  0.00  0.00    +0.000 A 
ATOM     27  C   UNL     1       7.052   4.781  16.772  0.00  0.00    +0.000 A 
BRANCH  25  28
ATOM     28  N   UNL     1       7.435   4.934  13.035  0.00  0.00    +0.000 N 
ATOM     29  O   UNL     1       8.269   5.838  12.876  0.00  0.00    +0.000 OA
ATOM     30  O   UNL     1       7.075   4.149  12.143  0.00  0.00    +0.000 OA
ENDBRANCH  25  28
ENDBRANCH  21  22
ENDBRANCH  20  21
ENDBRANCH   7  20
TORSDOF 8
ENDMDL
MODEL 2
REMARK VINA RESULT:      -7.9      4.106      8.987
REMARK  Name = 
REMARK  9 active torsions:
REMARK  status: ('A' for Active; 'I' for Inactive)
REMARK    1  A    between atoms: C_1  and  C_2
REMARK    2  A    between atoms: C_2  and  O_3
REMARK    3  A    between atoms: O_3  and  C_4
REMARK    4  A    between atoms: C_6  and  C_7
REMARK    5  A    between atoms: C_7  and  N_8
REMARK    6  A    between atoms: C_17  and  O_18
REMARK    7  A    between atoms: O_18  and  C_19
REMARK    8  A    between atoms: C_19  and  C_20
REMARK    9  A    between atoms: C_23  and  N_24
REMARK                            x       y       z     vdW  Elec       q    Type
REMARK                         _______ _______ _______ _____ _____    ______ ____
ROOT
ATOM      1  C   UNL     1       2.431   5.574  19.883  0.00  0.00    +0.000 A 
ATOM      2  C   UNL     1       3.378   4.919  19.083  0.00  0.00    +0.000 A 
ATOM      3  C   UNL     1       3.949   5.539  17.972  0.00  0.00    +0.000 A 
ATOM      4  C   UNL     1       3.591   6.860  17.694  0.00  0.00    +0.000 A 
ATOM      5  C   UNL     1       2.651   7.540  18.487  0.00  0.00    +0.000 A 
ATOM      6 CL   UNL     1       2.254   9.132  17.927  0.00  0.00    +0.000 Cl
ATOM      7  C   UNL     1       2.064   6.912  19.596  0.00  0.00    +0.000 A 
ENDROOT
BRANCH   1   8
ATOM      8  O   UNL     1       1.791   4.953  20.932  0.00  0.00    +0.000 OA
BRANCH   8  10
ATOM      9  C   UNL     1       1.640   2.609  21.645  0.00  0.00    +0.000 C 
ATOM     10  C   UNL     1       1.167   3.689  20.681  0.00  0.00    +0.000 C 
ENDBRANCH   8  10
ENDBRANCH   1   8
BRANCH   3  11
ATOM     11  C   UNL     1       4.937   4.788  17.108  0.00  0.00    +0.000 C 
BRANCH  11  12
ATOM     12  N   UNL     1       6.152   5.559  16.995  0.00  0.00    +0.000 N 
ATOM     13  C   UNL     1       6.935   5.719  18.075  0.00  0.00    +0.000 A 
ATOM     14  N   UNL     1       6.953   4.828  19.117  0.00  0.00    +0.000 NA
ATOM     15  N   UNL     1       7.820   5.297  20.001  0.00  0.00    +0.000 NA
ATOM     16  N   UNL     1       8.273   6.430  19.454  0.00  0.00    +0.000 N 
ATOM     17  N   UNL     1       7.753   6.756  18.261  0.00  0.00    +0.000 NA
ATOM     18  H   UNL     1       6.084   6.380  16.406  0.00  0.00    +0.000 HD
ATOM     19  H   UNL     1       8.962   7.013  19.921  0.00  0.00    +0.000 HD
ENDBRANCH  11  12
ENDBRANCH   3  11
BRANCH   7  20
ATOM     20  O   UNL     1       1.107   7.439  20.440  0.00  0.00    +0.000 OA
BRANCH  20  21
ATOM     21  C   UNL     1       1.526   8.374  21.435  0.00  0.00    +0.000 C 
BRANCH  21  22
ATOM     22  C   UNL     1       0.464   9.427  21.695  0.00  0.00    +0.000 A 
ATOM     23  C   UNL     1      -0.060   9.631  22.980  0.00  0.00    +0.000 A 
ATOM     24  C   UNL     1      -0.985  10.649  23.221  0.00  0.00    +0.000 A 
ATOM     25  C   UNL     1      -1.387  11.480  22.168  0.00  0.00    +0.000 A 
ATOM     26  C   UNL     1      -0.864  11.304  20.884  0.00  0.00    +0.000 A 
ATOM     27  C   UNL     1       0.061  10.281  20.653  0.00  0.00    +0.000 A 
BRANCH  25  28
ATOM     28  N   UNL     1      -2.360  12.550  22.422  0.00  0.00    +0.000 N 
ATOM     29  O   UNL     1      -2.091  13.386  23.298  0.00  0.00    +0.000 OA
ATOM     30  O   UNL     1      -3.396  12.562  21.737  0.00  0.00    +0.000 OA
ENDBRANCH  25  28
ENDBRANCH  21  22
ENDBRANCH  20  21
ENDBRANCH   7  20
TORSDOF 8
ENDMDL
MODEL 3
REMARK VINA RESULT:      -7.8      4.110      9.059
REMARK  Name = 
REMARK  9 active torsions:
REMARK  status: ('A' for Active; 'I' for Inactive)
REMARK    1  A    between atoms: C_1  and  C_2
REMARK    2  A    between atoms: C_2  and  O_3
REMARK    3  A    between atoms: O_3  and  C_4
REMARK    4  A    between atoms: C_6  and  C_7
REMARK    5  A    between atoms: C_7  and  N_8
REMARK    6  A    between atoms: C_17  and  O_18
REMARK    7  A    between atoms: O_18  and  C_19
REMARK    8  A    between atoms: C_19  and  C_20
REMARK    9  A    between atoms: C_23  and  N_24
REMARK                            x       y       z     vdW  Elec       q    Type
REMARK                         _______ _______ _______ _____ _____    ______ ____
ROOT
ATOM      1  C   UNL     1       2.536   5.844  20.014  0.00  0.00    +0.000 A 
ATOM      2  C   UNL     1       3.459   5.238  19.149  0.00  0.00    +0.000 A 
ATOM      3  C   UNL     1       3.882   5.864  17.978  0.00  0.00    +0.000 A 
ATOM      4  C   UNL     1       3.400   7.145  17.700  0.00  0.00    +0.000 A 
ATOM      5  C   UNL     1       2.482   7.777  18.557  0.00  0.00    +0.000 A 
ATOM      6 CL   UNL     1       1.917   9.317  17.996  0.00  0.00    +0.000 Cl
ATOM      7  C   UNL     1       2.043   7.141  19.728  0.00  0.00    +0.000 A 
ENDROOT
BRANCH   1   8
ATOM      8  O   UNL     1       2.038   5.209  21.130  0.00  0.00    +0.000 OA
BRANCH   8  10
ATOM      9  C   UNL     1       1.034   3.034  20.596  0.00  0.00    +0.000 C 
ATOM     10  C   UNL     1       2.200   3.790  21.220  0.00  0.00    +0.000 C 
ENDBRANCH   8  10
ENDBRANCH   1   8
BRANCH   3  11
ATOM     11  C   UNL     1       4.847   5.163  17.048  0.00  0.00    +0.000 C 
BRANCH  11  12
ATOM     12  N   UNL     1       6.044   5.960  16.916  0.00  0.00    +0.000 N 
ATOM     13  C   UNL     1       6.936   5.982  17.920  0.00  0.00    +0.000 A 
ATOM     14  N   UNL     1       7.064   4.957  18.822  0.00  0.00    +0.000 NA
ATOM     15  N   UNL     1       8.019   5.313  19.667  0.00  0.00    +0.000 NA
ATOM     16  N   UNL     1       8.412   6.517  19.237  0.00  0.00    +0.000 N 
ATOM     17  N   UNL     1       7.769   6.995  18.161  0.00  0.00    +0.000 NA
ATOM     18  H   UNL     1       5.914   6.853  16.456  0.00  0.00    +0.000 HD
ATOM     19  H   UNL     1       9.146   7.040  19.705  0.00  0.00    +0.000 HD
ENDBRANCH  11  12
ENDBRANCH   3  11
BRANCH   7  20
ATOM     20  O   UNL     1       1.125   7.621  20.641  0.00  0.00    +0.000 OA
BRANCH  20  21
ATOM     21  C   UNL     1       1.556   8.610  21.576  0.00  0.00    +0.000 C 
BRANCH  21  22
ATOM     22  C   UNL     1       0.495   9.674  21.792  0.00  0.00    +0.000 A 
ATOM     23  C   UNL     1       0.105  10.535  20.756  0.00  0.00    +0.000 A 
ATOM     24  C   UNL     1      -0.921  11.463  20.946  0.00  0.00    +0.000 A 
ATOM     25  C   UNL     1      -1.572  11.529  22.184  0.00  0.00    +0.000 A 
ATOM     26  C   UNL     1      -1.210  10.668  23.224  0.00  0.00    +0.000 A 
ATOM     27  C   UNL     1      -0.182   9.743  23.024  0.00  0.00    +0.000 A 
BRANCH  25  28
ATOM     28  N   UNL     1      -2.650  12.505  22.383  0.00  0.00    +0.000 N 
ATOM     29  O   UNL     1      -3.048  12.706  23.541  0.00  0.00    +0.000 OA
ATOM     30  O   UNL     1      -3.098  13.083  21.380  0.00  0.00    +0.000 OA
ENDBRANCH  25  28
ENDBRANCH  21  22
ENDBRANCH  20  21
ENDBRANCH   7  20
TORSDOF 8
ENDMDL
MODEL 4
REMARK VINA RESULT:      -7.6      0.725      1.230
REMARK  Name = 
REMARK  9 active torsions:
REMARK  status: ('A' for Active; 'I' for Inactive)
REMARK    1  A    between atoms: C_1  and  C_2
REMARK    2  A    between atoms: C_2  and  O_3
REMARK    3  A    between atoms: O_3  and  C_4
REMARK    4  A    between atoms: C_6  and  C_7
REMARK    5  A    between atoms: C_7  and  N_8
REMARK    6  A    between atoms: C_17  and  O_18
REMARK    7  A    between atoms: O_18  and  C_19
REMARK    8  A    between atoms: C_19  and  C_20
REMARK    9  A    between atoms: C_23  and  N_24
REMARK                            x       y       z     vdW  Elec       q    Type
REMARK                         _______ _______ _______ _____ _____    ______ ____
ROOT
ATOM      1  C   UNL     1       1.895   4.685  19.481  0.00  0.00    +0.000 A 
ATOM      2  C   UNL     1       1.358   5.592  20.407  0.00  0.00    +0.000 A 
ATOM      3  C   UNL     1       1.666   6.950  20.359  0.00  0.00    +0.000 A 
ATOM      4  C   UNL     1       2.494   7.407  19.331  0.00  0.00    +0.000 A 
ATOM      5  C   UNL     1       3.036   6.518  18.386  0.00  0.00    +0.000 A 
ATOM      6 CL   UNL     1       4.122   7.249  17.250  0.00  0.00    +0.000 Cl
ATOM      7  C   UNL     1       2.740   5.147  18.443  0.00  0.00    +0.000 A 
ENDROOT
BRANCH   1   8
ATOM      8  O   UNL     1       1.674   3.328  19.561  0.00  0.00    +0.000 OA
BRANCH   8  10
ATOM      9  C   UNL     1       1.876   2.702  21.926  0.00  0.00    +0.000 C 
ATOM     10  C   UNL     1       2.436   2.580  20.515  0.00  0.00    +0.000 C 
ENDBRANCH   8  10
ENDBRANCH   1   8
BRANCH   3  11
ATOM     11  C   UNL     1       1.101   7.894  21.397  0.00  0.00    +0.000 C 
BRANCH  11  12
ATOM     12  N   UNL     1       0.800   9.161  20.775  0.00  0.00    +0.000 N 
ATOM     13  C   UNL     1       0.157  10.105  21.479  0.00  0.00    +0.000 A 
ATOM     14  N   UNL     1       0.202  10.172  22.848  0.00  0.00    +0.000 NA
ATOM     15  N   UNL     1      -0.543  11.207  23.203  0.00  0.00    +0.000 NA
ATOM     16  N   UNL     1      -0.994  11.704  22.046  0.00  0.00    +0.000 N 
ATOM     17  N   UNL     1      -0.605  11.057  20.937  0.00  0.00    +0.000 NA
ATOM     18  H   UNL     1       0.520   9.103  19.803  0.00  0.00    +0.000 HD
ATOM     19  H   UNL     1      -1.603  12.516  22.013  0.00  0.00    +0.000 HD
ENDBRANCH  11  12
ENDBRANCH   3  11
BRANCH   7  20
ATOM     20  O   UNL     1       3.222   4.157  17.611  0.00  0.00    +0.000 OA
BRANCH  20  21
ATOM     21  C   UNL     1       4.587   3.760  17.755  0.00  0.00    +0.000 C 
BRANCH  21  22
ATOM     22  C   UNL     1       5.418   4.172  16.554  0.00  0.00    +0.000 A 
ATOM     23  C   UNL     1       6.789   4.445  16.677  0.00  0.00    +0.000 A 
ATOM     24  C   UNL     1       7.559   4.755  15.553  0.00  0.00    +0.000 A 
ATOM     25  C   UNL     1       6.956   4.786  14.290  0.00  0.00    +0.000 A 
ATOM     26  C   UNL     1       5.595   4.501  14.144  0.00  0.00    +0.000 A 
ATOM     27  C   UNL     1       4.833   4.192  15.275  0.00  0.00    +0.000 A 
BRANCH  25  28
ATOM     28  N   UNL     1       7.765   5.113  13.110  0.00  0.00    +0.000 N 
ATOM     29  O   UNL     1       8.647   5.977  13.229  0.00  0.00    +0.000 OA
ATOM     30  O   UNL     1       7.527   4.497  12.058  0.00  0.00    +0.000 OA
ENDBRANCH  25  28
ENDBRANCH  21  22
ENDBRANCH  20  21
ENDBRANCH   7  20
TORSDOF 8
ENDMDL
MODEL 5
REMARK VINA RESULT:      -7.6      3.392      9.409
REMARK  Name = 
REMARK  9 active torsions:
REMARK  status: ('A' for Active; 'I' for Inactive)
REMARK    1  A    between atoms: C_1  and  C_2
REMARK    2  A    between atoms: C_2  and  O_3
REMARK    3  A    between atoms: O_3  and  C_4
REMARK    4  A    between atoms: C_6  and  C_7
REMARK    5  A    between atoms: C_7  and  N_8
REMARK    6  A    between atoms: C_17  and  O_18
REMARK    7  A    between atoms: O_18  and  C_19
REMARK    8  A    between atoms: C_19  and  C_20
REMARK    9  A    between atoms: C_23  and  N_24
REMARK                            x       y       z     vdW  Elec       q    Type
REMARK                         _______ _______ _______ _____ _____    ______ ____
ROOT
ATOM      1  C   UNL     1       2.531   5.536  20.136  0.00  0.00    +0.000 A 
ATOM      2  C   UNL     1       3.512   4.846  19.408  0.00  0.00    +0.000 A 
ATOM      3  C   UNL     1       4.078   5.385  18.254  0.00  0.00    +0.000 A 
ATOM      4  C   UNL     1       3.680   6.663  17.855  0.00  0.00    +0.000 A 
ATOM      5  C   UNL     1       2.705   7.378  18.574  0.00  0.00    +0.000 A 
ATOM      6 CL   UNL     1       2.264   8.900  17.871  0.00  0.00    +0.000 Cl
ATOM      7  C   UNL     1       2.123   6.829  19.727  0.00  0.00    +0.000 A 
ENDROOT
BRANCH   1   8
ATOM      8  O   UNL     1       1.897   4.987  21.228  0.00  0.00    +0.000 OA
BRANCH   8  10
ATOM      9  C   UNL     1       1.346   2.598  21.352  0.00  0.00    +0.000 C 
ATOM     10  C   UNL     1       2.338   3.705  21.684  0.00  0.00    +0.000 C 
ENDBRANCH   8  10
ENDBRANCH   1   8
BRANCH   3  11
ATOM     11  C   UNL     1       5.104   4.597  17.471  0.00  0.00    +0.000 C 
BRANCH  11  12
ATOM     12  N   UNL     1       6.015   5.511  16.825  0.00  0.00    +0.000 N 
ATOM     13  C   UNL     1       6.476   5.225  15.597  0.00  0.00    +0.000 A 
ATOM     14  N   UNL     1       5.795   4.426  14.715  0.00  0.00    +0.000 NA
ATOM     15  N   UNL     1       6.535   4.352  13.620  0.00  0.00    +0.000 NA
ATOM     16  N   UNL     1       7.610   5.100  13.894  0.00  0.00    +0.000 N 
ATOM     17  N   UNL     1       7.640   5.662  15.112  0.00  0.00    +0.000 NA
ATOM     18  H   UNL     1       6.700   5.936  17.438  0.00  0.00    +0.000 HD
ATOM     19  H   UNL     1       8.361   5.225  13.222  0.00  0.00    +0.000 HD
ENDBRANCH  11  12
ENDBRANCH   3  11
BRANCH   7  20
ATOM     20  O   UNL     1       1.137   7.395  20.510  0.00  0.00    +0.000 OA
BRANCH  20  21
ATOM     21  C   UNL     1       1.529   8.320  21.526  0.00  0.00    +0.000 C 
BRANCH  21  22
ATOM     22  C   UNL     1       0.496   9.418  21.709  0.00  0.00    +0.000 A 
ATOM     23  C   UNL     1      -0.077   9.675  22.963  0.00  0.00    +0.000 A 
ATOM     24  C   UNL     1      -0.973  10.733  23.135  0.00  0.00    +0.000 A 
ATOM     25  C   UNL     1      -1.296  11.549  22.044  0.00  0.00    +0.000 A 
ATOM     26  C   UNL     1      -0.722  11.320  20.791  0.00  0.00    +0.000 A 
ATOM     27  C   UNL     1       0.173  10.258  20.629  0.00  0.00    +0.000 A 
BRANCH  25  28
ATOM     28  N   UNL     1      -2.238  12.660  22.225  0.00  0.00    +0.000 N 
ATOM     29  O   UNL     1      -3.358  12.565  21.702  0.00  0.00    +0.000 OA
ATOM     30  O   UNL     1      -1.862  13.631  22.902  0.00  0.00    +0.000 OA
ENDBRANCH  25  28
ENDBRANCH  21  22
ENDBRANCH  20  21
ENDBRANCH   7  20
TORSDOF 8
ENDMDL
MODEL 6
REMARK VINA RESULT:      -7.6      3.252      9.062
REMARK  Name = 
REMARK  9 active torsions:
REMARK  status: ('A' for Active; 'I' for Inactive)
REMARK    1  A    between atoms: C_1  and  C_2
REMARK    2  A    between atoms: C_2  and  O_3
REMARK    3  A    between atoms: O_3  and  C_4
REMARK    4  A    between atoms: C_6  and  C_7
REMARK    5  A    between atoms: C_7  and  N_8
REMARK    6  A    between atoms: C_17  and  O_18
REMARK    7  A    between atoms: O_18  and  C_19
REMARK    8  A    between atoms: C_19  and  C_20
REMARK    9  A    between atoms: C_23  and  N_24
REMARK                            x       y       z     vdW  Elec       q    Type
REMARK                         _______ _______ _______ _____ _____    ______ ____
ROOT
ATOM      1  C   UNL     1       2.956   5.262  20.217  0.00  0.00    +0.000 A 
ATOM      2  C   UNL     1       4.078   4.614  19.681  0.00  0.00    +0.000 A 
ATOM      3  C   UNL     1       4.729   5.099  18.548  0.00  0.00    +0.000 A 
ATOM      4  C   UNL     1       4.267   6.287  17.976  0.00  0.00    +0.000 A 
ATOM      5  C   UNL     1       3.149   6.960  18.502  0.00  0.00    +0.000 A 
ATOM      6 CL   UNL     1       2.659   8.355  17.598  0.00  0.00    +0.000 Cl
ATOM      7  C   UNL     1       2.483   6.463  19.632  0.00  0.00    +0.000 A 
ENDROOT
BRANCH   1   8
ATOM      8  O   UNL     1       2.245   4.754  21.282  0.00  0.00    +0.000 OA
BRANCH   8  10
ATOM      9  C   UNL     1       0.839   3.108  20.125  0.00  0.00    +0.000 C 
ATOM     10  C   UNL     1       1.853   3.379  21.229  0.00  0.00    +0.000 C 
ENDBRANCH   8  10
ENDBRANCH   1   8
BRANCH   3  11
ATOM     11  C   UNL     1       5.911   4.353  17.973  0.00  0.00    +0.000 C 
BRANCH  11  12
ATOM     12  N   UNL     1       5.586   3.899  16.642  0.00  0.00    +0.000 N 
ATOM     13  C   UNL     1       6.252   4.406  15.592  0.00  0.00    +0.000 A 
ATOM     14  N   UNL     1       7.517   4.924  15.693  0.00  0.00    +0.000 NA
ATOM     15  N   UNL     1       7.857   5.336  14.482  0.00  0.00    +0.000 NA
ATOM     16  N   UNL     1       6.793   5.050  13.723  0.00  0.00    +0.000 N 
ATOM     17  N   UNL     1       5.756   4.481  14.355  0.00  0.00    +0.000 NA
ATOM     18  H   UNL     1       4.600   3.742  16.473  0.00  0.00    +0.000 HD
ATOM     19  H   UNL     1       6.771   5.263  12.730  0.00  0.00    +0.000 HD
ENDBRANCH  11  12
ENDBRANCH   3  11
BRANCH   7  20
ATOM     20  O   UNL     1       1.360   6.993  20.236  0.00  0.00    +0.000 OA
BRANCH  20  21
ATOM     21  C   UNL     1       1.542   7.860  21.356  0.00  0.00    +0.000 C 
BRANCH  21  22
ATOM     22  C   UNL     1       0.591   9.042  21.306  0.00  0.00    +0.000 A 
ATOM     23  C   UNL     1       0.090   9.623  22.480  0.00  0.00    +0.000 A 
ATOM     24  C   UNL     1      -0.728  10.754  22.425  0.00  0.00    +0.000 A 
ATOM     25  C   UNL     1      -1.045  11.317  21.183  0.00  0.00    +0.000 A 
ATOM     26  C   UNL     1      -0.542  10.764  20.002  0.00  0.00    +0.000 A 
ATOM     27  C   UNL     1       0.276   9.631  20.068  0.00  0.00    +0.000 A 
BRANCH  25  28
ATOM     28  N   UNL     1      -1.905  12.505  21.126  0.00  0.00    +0.000 N 
ATOM     29  O   UNL     1      -2.266  12.910  20.010  0.00  0.00    +0.000 OA
ATOM     30  O   UNL     1      -2.232  13.034  22.200  0.00  0.00    +0.000 OA
ENDBRANCH  25  28
ENDBRANCH  21  22
ENDBRANCH  20  21
ENDBRANCH   7  20
TORSDOF 8
ENDMDL
MODEL 7
REMARK VINA RESULT:      -7.5      1.461      1.759
REMARK  Name = 
REMARK  9 active torsions:
REMARK  status: ('A' for Active; 'I' for Inactive)
REMARK    1  A    between atoms: C_1  and  C_2
REMARK    2  A    between atoms: C_2  and  O_3
REMARK    3  A    between atoms: O_3  and  C_4
REMARK    4  A    between atoms: C_6  and  C_7
REMARK    5  A    between atoms: C_7  and  N_8
REMARK    6  A    between atoms: C_17  and  O_18
REMARK    7  A    between atoms: O_18  and  C_19
REMARK    8  A    between atoms: C_19  and  C_20
REMARK    9  A    between atoms: C_23  and  N_24
REMARK                            x       y       z     vdW  Elec       q    Type
REMARK                         _______ _______ _______ _____ _____    ______ ____
ROOT
ATOM      1  C   UNL     1       2.143   6.081  20.349  0.00  0.00    +0.000 A 
ATOM      2  C   UNL     1       1.474   7.223  20.812  0.00  0.00    +0.000 A 
ATOM      3  C   UNL     1       1.474   8.413  20.085  0.00  0.00    +0.000 A 
ATOM      4  C   UNL     1       2.121   8.434  18.848  0.00  0.00    +0.000 A 
ATOM      5  C   UNL     1       2.790   7.298  18.358  0.00  0.00    +0.000 A 
ATOM      6 CL   UNL     1       3.623   7.544  16.858  0.00  0.00    +0.000 Cl
ATOM      7  C   UNL     1       2.805   6.105  19.096  0.00  0.00    +0.000 A 
ENDROOT
BRANCH   1   8
ATOM      8  O   UNL     1       2.230   4.923  21.089  0.00  0.00    +0.000 OA
BRANCH   8  10
ATOM      9  C   UNL     1       1.559   2.623  21.626  0.00  0.00    +0.000 C 
ATOM     10  C   UNL     1       1.267   3.894  20.839  0.00  0.00    +0.000 C 
ENDBRANCH   8  10
ENDBRANCH   1   8
BRANCH   3  11
ATOM     11  C   UNL     1       0.776   9.637  20.633  0.00  0.00    +0.000 C 
BRANCH  11  12
ATOM     12  N   UNL     1      -0.437   9.868  19.887  0.00  0.00    +0.000 N 
ATOM     13  C   UNL     1      -0.661  11.077  19.348  0.00  0.00    +0.000 A 
ATOM     14  N   UNL     1       0.351  11.942  19.018  0.00  0.00    +0.000 NA
ATOM     15  N   UNL     1      -0.224  13.029  18.527  0.00  0.00    +0.000 NA
ATOM     16  N   UNL     1      -1.535  12.767  18.586  0.00  0.00    +0.000 N 
ATOM     17  N   UNL     1      -1.873  11.574  19.098  0.00  0.00    +0.000 NA
ATOM     18  H   UNL     1      -1.264   9.422  20.267  0.00  0.00    +0.000 HD
ATOM     19  H   UNL     1      -2.230  13.438  18.270  0.00  0.00    +0.000 HD
ENDBRANCH  11  12
ENDBRANCH   3  11
BRANCH   7  20
ATOM     20  O   UNL     1       3.445   4.928  18.762  0.00  0.00    +0.000 OA
BRANCH  20  21
ATOM     21  C   UNL     1       4.867   4.876  18.878  0.00  0.00    +0.000 C 
BRANCH  21  22
ATOM     22  C   UNL     1       5.537   4.826  17.517  0.00  0.00    +0.000 A 
ATOM     23  C   UNL     1       4.986   4.085  16.461  0.00  0.00    +0.000 A 
ATOM     24  C   UNL     1       5.572   4.102  15.193  0.00  0.00    +0.000 A 
ATOM     25  C   UNL     1       6.719   4.875  14.974  0.00  0.00    +0.000 A 
ATOM     26  C   UNL     1       7.274   5.634  16.008  0.00  0.00    +0.000 A 
ATOM     27  C   UNL     1       6.679   5.610  17.273  0.00  0.00    +0.000 A 
BRANCH  25  28
ATOM     28  N   UNL     1       7.335   4.893  13.641  0.00  0.00    +0.000 N 
ATOM     29  O   UNL     1       8.258   5.696  13.436  0.00  0.00    +0.000 OA
ATOM     30  O   UNL     1       6.903   4.094  12.795  0.00  0.00    +0.000 OA
ENDBRANCH  25  28
ENDBRANCH  21  22
ENDBRANCH  20  21
ENDBRANCH   7  20
TORSDOF 8
ENDMDL
MODEL 8
REMARK VINA RESULT:      -7.5      0.502      1.076
REMARK  Name = 
REMARK  9 active torsions:
REMARK  status: ('A' for Active; 'I' for Inactive)
REMARK    1  A    between atoms: C_1  and  C_2
REMARK    2  A    between atoms: C_2  and  O_3
REMARK    3  A    between atoms: O_3  and  C_4
REMARK    4  A    between atoms: C_6  and  C_7
REMARK    5  A    between atoms: C_7  and  N_8
REMARK    6  A    between atoms: C_17  and  O_18
REMARK    7  A    between atoms: O_18  and  C_19
REMARK    8  A    between atoms: C_19  and  C_20
REMARK    9  A    between atoms: C_23  and  N_24
REMARK                            x       y       z     vdW  Elec       q    Type
REMARK                         _______ _______ _______ _____ _____    ______ ____
ROOT
ATOM      1  C   UNL     1       2.345   4.777  20.056  0.00  0.00    +0.000 A 
ATOM      2  C   UNL     1       1.648   5.692  20.858  0.00  0.00    +0.000 A 
ATOM      3  C   UNL     1       1.635   7.055  20.565  0.00  0.00    +0.000 A 
ATOM      4  C   UNL     1       2.298   7.493  19.417  0.00  0.00    +0.000 A 
ATOM      5  C   UNL     1       2.995   6.593  18.592  0.00  0.00    +0.000 A 
ATOM      6 CL   UNL     1       3.843   7.332  17.273  0.00  0.00    +0.000 Cl
ATOM      7  C   UNL     1       3.023   5.223  18.895  0.00  0.00    +0.000 A 
ENDROOT
BRANCH   1   8
ATOM      8  O   UNL     1       2.444   3.440  20.373  0.00  0.00    +0.000 OA
BRANCH   8  10
ATOM      9  C   UNL     1       0.716   2.465  18.928  0.00  0.00    +0.000 C 
ATOM     10  C   UNL     1       1.249   2.654  20.343  0.00  0.00    +0.000 C 
ENDBRANCH   8  10
ENDBRANCH   1   8
BRANCH   3  11
ATOM     11  C   UNL     1       0.907   8.020  21.474  0.00  0.00    +0.000 C 
BRANCH  11  12
ATOM     12  N   UNL     1       1.448   9.346  21.292  0.00  0.00    +0.000 N 
ATOM     13  C   UNL     1       0.611  10.391  21.191  0.00  0.00    +0.000 A 
ATOM     14  N   UNL     1      -0.649  10.390  21.733  0.00  0.00    +0.000 NA
ATOM     15  N   UNL     1      -1.190  11.562  21.439  0.00  0.00    +0.000 NA
ATOM     16  N   UNL     1      -0.242  12.200  20.744  0.00  0.00    +0.000 N 
ATOM     17  N   UNL     1       0.898  11.522  20.544  0.00  0.00    +0.000 NA
ATOM     18  H   UNL     1       2.254   9.398  20.681  0.00  0.00    +0.000 HD
ATOM     19  H   UNL     1      -0.384  13.138  20.381  0.00  0.00    +0.000 HD
ENDBRANCH  11  12
ENDBRANCH   3  11
BRANCH   7  20
ATOM     20  O   UNL     1       3.689   4.231  18.202  0.00  0.00    +0.000 OA
BRANCH  20  21
ATOM     21  C   UNL     1       5.116   4.216  18.252  0.00  0.00    +0.000 C 
BRANCH  21  22
ATOM     22  C   UNL     1       5.725   4.468  16.884  0.00  0.00    +0.000 A 
ATOM     23  C   UNL     1       7.044   4.925  16.747  0.00  0.00    +0.000 A 
ATOM     24  C   UNL     1       7.617   5.086  15.483  0.00  0.00    +0.000 A 
ATOM     25  C   UNL     1       6.867   4.780  14.341  0.00  0.00    +0.000 A 
ATOM     26  C   UNL     1       5.557   4.307  14.456  0.00  0.00    +0.000 A 
ATOM     27  C   UNL     1       4.992   4.150  15.726  0.00  0.00    +0.000 A 
BRANCH  25  28
ATOM     28  N   UNL     1       7.469   4.950  13.013  0.00  0.00    +0.000 N 
ATOM     29  O   UNL     1       8.341   5.821  12.876  0.00  0.00    +0.000 OA
ATOM     30  O   UNL     1       7.077   4.204  12.101  0.00  0.00    +0.000 OA
ENDBRANCH  25  28
ENDBRANCH  21  22
ENDBRANCH  20  21
ENDBRANCH   7  20
TORSDOF 8
ENDMDL
MODEL 9
REMARK VINA RESULT:      -7.4      0.740      1.218
REMARK  Name = 
REMARK  9 active torsions:
REMARK  status: ('A' for Active; 'I' for Inactive)
REMARK    1  A    between atoms: C_1  and  C_2
REMARK    2  A    between atoms: C_2  and  O_3
REMARK    3  A    between atoms: O_3  and  C_4
REMARK    4  A    between atoms: C_6  and  C_7
REMARK    5  A    between atoms: C_7  and  N_8
REMARK    6  A    between atoms: C_17  and  O_18
REMARK    7  A    between atoms: O_18  and  C_19
REMARK    8  A    between atoms: C_19  and  C_20
REMARK    9  A    between atoms: C_23  and  N_24
REMARK                            x       y       z     vdW  Elec       q    Type
REMARK                         _______ _______ _______ _____ _____    ______ ____
ROOT
ATOM      1  C   UNL     1       2.447   5.755  19.923  0.00  0.00    +0.000 A 
ATOM      2  C   UNL     1       1.799   6.928  20.337  0.00  0.00    +0.000 A 
ATOM      3  C   UNL     1       1.866   8.102  19.588  0.00  0.00    +0.000 A 
ATOM      4  C   UNL     1       2.561   8.075  18.376  0.00  0.00    +0.000 A 
ATOM      5  C   UNL     1       3.211   6.908  17.936  0.00  0.00    +0.000 A 
ATOM      6 CL   UNL     1       4.108   7.095  16.465  0.00  0.00    +0.000 Cl
ATOM      7  C   UNL     1       3.157   5.731  18.698  0.00  0.00    +0.000 A 
ENDROOT
BRANCH   1   8
ATOM      8  O   UNL     1       2.467   4.611  20.689  0.00  0.00    +0.000 OA
BRANCH   8  10
ATOM      9  C   UNL     1       0.992   2.882  19.761  0.00  0.00    +0.000 C 
ATOM     10  C   UNL     1       1.236   3.902  20.866  0.00  0.00    +0.000 C 
ENDBRANCH   8  10
ENDBRANCH   1   8
BRANCH   3  11
ATOM     11  C   UNL     1       1.189   9.359  20.084  0.00  0.00    +0.000 C 
BRANCH  11  12
ATOM     12  N   UNL     1       0.626   9.113  21.389  0.00  0.00    +0.000 N 
ATOM     13  C   UNL     1      -0.155  10.046  21.958  0.00  0.00    +0.000 A 
ATOM     14  N   UNL     1      -0.860  10.969  21.229  0.00  0.00    +0.000 NA
ATOM     15  N   UNL     1      -1.505  11.728  22.101  0.00  0.00    +0.000 NA
ATOM     16  N   UNL     1      -1.160  11.231  23.294  0.00  0.00    +0.000 N 
ATOM     17  N   UNL     1      -0.313  10.190  23.275  0.00  0.00    +0.000 NA
ATOM     18  H   UNL     1       1.241   8.634  22.037  0.00  0.00    +0.000 HD
ATOM     19  H   UNL     1      -1.512  11.626  24.162  0.00  0.00    +0.000 HD
ENDBRANCH  11  12
ENDBRANCH   3  11
BRANCH   7  20
ATOM     20  O   UNL     1       3.770   4.527  18.413  0.00  0.00    +0.000 OA
BRANCH  20  21
ATOM     21  C   UNL     1       5.197   4.472  18.445  0.00  0.00    +0.000 C 
BRANCH  21  22
ATOM     22  C   UNL     1       5.788   4.505  17.047  0.00  0.00    +0.000 A 
ATOM     23  C   UNL     1       5.107   3.948  15.955  0.00  0.00    +0.000 A 
ATOM     24  C   UNL     1       5.628   4.045  14.662  0.00  0.00    +0.000 A 
ATOM     25  C   UNL     1       6.841   4.714  14.455  0.00  0.00    +0.000 A 
ATOM     26  C   UNL     1       7.527   5.290  15.528  0.00  0.00    +0.000 A 
ATOM     27  C   UNL     1       6.997   5.187  16.818  0.00  0.00    +0.000 A 
BRANCH  25  28
ATOM     28  N   UNL     1       7.388   4.816  13.097  0.00  0.00    +0.000 N 
ATOM     29  O   UNL     1       6.998   3.999  12.249  0.00  0.00    +0.000 OA
ATOM     30  O   UNL     1       8.206   5.722  12.871  0.00  0.00    +0.000 OA
ENDBRANCH  25  28
ENDBRANCH  21  22
ENDBRANCH  20  21
ENDBRANCH   7  20
TORSDOF 8
ENDMDL
