MODEL 1
REMARK VINA RESULT:      -8.0      0.000      0.000
REMARK  Name = 
REMARK  3 active torsions:
REMARK  status: ('A' for Active; 'I' for Inactive)
REMARK    1  A    between atoms: C_7  and  N_8
REMARK    2  A    between atoms: N_8  and  C_9
REMARK    3  A    between atoms: C_13  and  N_14
REMARK                            x       y       z     vdW  Elec       q    Type
REMARK                         _______ _______ _______ _____ _____    ______ ____
ROOT
ATOM      1  O   UNL     1      -1.005  12.880  18.929  0.00  0.00    +0.000 OA
ATOM      2  C   UNL     1      -0.374  11.887  19.287  0.00  0.00    +0.000 C 
ATOM      3  C   UNL     1      -0.192  11.516  20.740  0.00  0.00    +0.000 C 
ATOM      4  C   UNL     1      -0.150  10.008  20.930  0.00  0.00    +0.000 C 
ATOM      5  C   UNL     1       0.829   9.378  19.979  0.00  0.00    +0.000 A 
ATOM      6  C   UNL     1       1.485   8.175  20.285  0.00  0.00    +0.000 A 
ATOM      7  C   UNL     1       2.310   7.553  19.338  0.00  0.00    +0.000 A 
ATOM      8  C   UNL     1       2.468   8.162  18.083  0.00  0.00    +0.000 A 
ATOM      9  C   UNL     1       1.808   9.348  17.763  0.00  0.00    +0.000 A 
ATOM     10  C   UNL     1       0.995   9.950  18.712  0.00  0.00    +0.000 A 
ATOM     11  N   UNL     1       0.309  11.121  18.381  0.00  0.00    +0.000 N 
ATOM     12  H   UNL     1       0.300  11.450  17.424  0.00  0.00    +0.000 HD
ENDROOT
BRANCH   7  13
ATOM     13  N   UNL     1       2.990   6.365  19.667  0.00  0.00    +0.000 N 
ATOM     14  H   UNL     1       3.160   6.214  20.655  0.00  0.00    +0.000 HD
BRANCH  13  15
ATOM     15  C   UNL     1       3.609   5.436  18.812  0.00  0.00    +0.000 A 
ATOM     16  C   UNL     1       2.830   4.528  18.083  0.00  0.00    +0.000 A 
ATOM     17  C   UNL     1       3.420   3.661  17.155  0.00  0.00    +0.000 A 
ATOM     18  C   UNL     1       4.799   3.693  16.944  0.00  0.00    +0.000 A 
ATOM     19  C   UNL     1       5.583   4.589  17.678  0.00  0.00    +0.000 A 
ATOM     20  C   UNL     1       4.994   5.453  18.606  0.00  0.00    +0.000 A 
BRANCH  19  21
ATOM     21  N   UNL     1       7.033   4.642  17.463  0.00  0.00    +0.000 N 
ATOM     22  O   UNL     1       7.769   4.512  18.450  0.00  0.00    +0.000 OA
ATOM     23  O   UNL     1       7.441   4.812  16.302  0.00  0.00    +0.000 OA
ENDBRANCH  19  21
ENDBRANCH  13  15
ENDBRANCH   7  13
TORSDOF 3
ENDMDL
MODEL 2
REMARK VINA RESULT:      -7.8      4.909      6.703
REMARK  Name = 
REMARK  3 active torsions:
REMARK  status: ('A' for Active; 'I' for Inactive)
REMARK    1  A    between atoms: C_7  and  N_8
REMARK    2  A    between atoms: N_8  and  C_9
REMARK    3  A    between atoms: C_13  and  N_14
REMARK                            x       y       z     vdW  Elec       q    Type
REMARK                         _______ _______ _______ _____ _____    ______ ____
ROOT
ATOM      1  O   UNL     1       0.473   3.638  20.280  0.00  0.00    +0.000 OA
ATOM      2  C   UNL     1       1.489   3.549  19.595  0.00  0.00    +0.000 C 
ATOM      3  C   UNL     1       2.056   2.224  19.144  0.00  0.00    +0.000 C 
ATOM      4  C   UNL     1       2.707   2.331  17.774  0.00  0.00    +0.000 C 
ATOM      5  C   UNL     1       3.666   3.488  17.729  0.00  0.00    +0.000 A 
ATOM      6  C   UNL     1       4.778   3.493  16.872  0.00  0.00    +0.000 A 
ATOM      7  C   UNL     1       5.595   4.626  16.770  0.00  0.00    +0.000 A 
ATOM      8  C   UNL     1       5.280   5.751  17.549  0.00  0.00    +0.000 A 
ATOM      9  C   UNL     1       4.169   5.764  18.392  0.00  0.00    +0.000 A 
ATOM     10  C   UNL     1       3.371   4.632  18.480  0.00  0.00    +0.000 A 
ATOM     11  N   UNL     1       2.241   4.655  19.301  0.00  0.00    +0.000 N 
ATOM     12  H   UNL     1       1.935   5.525  19.719  0.00  0.00    +0.000 HD
ENDROOT
BRANCH   7  13
ATOM     13  N   UNL     1       6.726   4.608  15.933  0.00  0.00    +0.000 N 
ATOM     14  H   UNL     1       7.618   4.752  16.393  0.00  0.00    +0.000 HD
BRANCH  13  15
ATOM     15  C   UNL     1       6.785   4.577  14.528  0.00  0.00    +0.000 A 
ATOM     16  C   UNL     1       7.724   5.363  13.847  0.00  0.00    +0.000 A 
ATOM     17  C   UNL     1       7.863   5.272  12.458  0.00  0.00    +0.000 A 
ATOM     18  C   UNL     1       7.064   4.390  11.729  0.00  0.00    +0.000 A 
ATOM     19  C   UNL     1       6.116   3.611  12.402  0.00  0.00    +0.000 A 
ATOM     20  C   UNL     1       5.976   3.703  13.789  0.00  0.00    +0.000 A 
BRANCH  19  21
ATOM     21  N   UNL     1       5.273   2.672  11.654  0.00  0.00    +0.000 N 
ATOM     22  O   UNL     1       5.751   1.567  11.368  0.00  0.00    +0.000 OA
ATOM     23  O   UNL     1       4.125   3.039  11.351  0.00  0.00    +0.000 OA
ENDBRANCH  19  21
ENDBRANCH  13  15
ENDBRANCH   7  13
TORSDOF 3
ENDMDL
MODEL 3
REMARK VINA RESULT:      -7.7      1.816      2.355
REMARK  Name = 
REMARK  3 active torsions:
REMARK  status: ('A' for Active; 'I' for Inactive)
REMARK    1  A    between atoms: C_7  and  N_8
REMARK    2  A    between atoms: N_8  and  C_9
REMARK    3  A    between atoms: C_13  and  N_14
REMARK                            x       y       z     vdW  Elec       q    Type
REMARK                         _______ _______ _______ _____ _____    ______ ____
ROOT
ATOM      1  O   UNL     1      -0.227  11.659  20.814  0.00  0.00    +0.000 OA
ATOM      2  C   UNL     1       0.422  10.629  20.642  0.00  0.00    +0.000 C 
ATOM      3  C   UNL     1       0.864   9.743  21.783  0.00  0.00    +0.000 C 
ATOM      4  C   UNL     1       0.885   8.277  21.376  0.00  0.00    +0.000 C 
ATOM      5  C   UNL     1       1.639   8.092  20.089  0.00  0.00    +0.000 A 
ATOM      6  C   UNL     1       2.296   6.889  19.786  0.00  0.00    +0.000 A 
ATOM      7  C   UNL     1       2.900   6.702  18.535  0.00  0.00    +0.000 A 
ATOM      8  C   UNL     1       2.838   7.747  17.599  0.00  0.00    +0.000 A 
ATOM      9  C   UNL     1       2.174   8.939  17.883  0.00  0.00    +0.000 A 
ATOM     10  C   UNL     1       1.582   9.107  19.126  0.00  0.00    +0.000 A 
ATOM     11  N   UNL     1       0.891  10.289  19.401  0.00  0.00    +0.000 N 
ATOM     12  H   UNL     1       0.711  10.955  18.660  0.00  0.00    +0.000 HD
ENDROOT
BRANCH   7  13
ATOM     13  N   UNL     1       3.585   5.505  18.253  0.00  0.00    +0.000 N 
ATOM     14  H   UNL     1       3.094   4.650  18.490  0.00  0.00    +0.000 HD
BRANCH  13  15
ATOM     15  C   UNL     1       4.916   5.326  17.838  0.00  0.00    +0.000 A 
ATOM     16  C   UNL     1       5.944   5.253  18.787  0.00  0.00    +0.000 A 
ATOM     17  C   UNL     1       7.260   4.977  18.400  0.00  0.00    +0.000 A 
ATOM     18  C   UNL     1       7.566   4.772  17.054  0.00  0.00    +0.000 A 
ATOM     19  C   UNL     1       6.547   4.857  16.100  0.00  0.00    +0.000 A 
ATOM     20  C   UNL     1       5.233   5.133  16.487  0.00  0.00    +0.000 A 
BRANCH  19  21
ATOM     21  N   UNL     1       6.849   4.635  14.681  0.00  0.00    +0.000 N 
ATOM     22  O   UNL     1       6.174   3.796  14.071  0.00  0.00    +0.000 OA
ATOM     23  O   UNL     1       7.764   5.304  14.172  0.00  0.00    +0.000 OA
ENDBRANCH  19  21
ENDBRANCH  13  15
ENDBRANCH   7  13
TORSDOF 3
ENDMDL
MODEL 4
REMARK VINA RESULT:      -7.6      5.124      6.664
REMARK  Name = 
REMARK  3 active torsions:
REMARK  status: ('A' for Active; 'I' for Inactive)
REMARK    1  A    between atoms: C_7  and  N_8
REMARK    2  A    between atoms: N_8  and  C_9
REMARK    3  A    between atoms: C_13  and  N_14
REMARK                            x       y       z     vdW  Elec       q    Type
REMARK                         _______ _______ _______ _____ _____    ______ ____
ROOT
ATOM      1  O   UNL     1       0.924   4.041  20.420  0.00  0.00    +0.000 OA
ATOM      2  C   UNL     1       1.801   3.973  19.561  0.00  0.00    +0.000 C 
ATOM      3  C   UNL     1       1.628   3.190  18.280  0.00  0.00    +0.000 C 
ATOM      4  C   UNL     1       2.359   3.848  17.121  0.00  0.00    +0.000 C 
ATOM      5  C   UNL     1       3.782   4.161  17.496  0.00  0.00    +0.000 A 
ATOM      6  C   UNL     1       4.803   4.217  16.534  0.00  0.00    +0.000 A 
ATOM      7  C   UNL     1       6.097   4.616  16.893  0.00  0.00    +0.000 A 
ATOM      8  C   UNL     1       6.349   4.949  18.233  0.00  0.00    +0.000 A 
ATOM      9  C   UNL     1       5.338   4.912  19.193  0.00  0.00    +0.000 A 
ATOM     10  C   UNL     1       4.062   4.515  18.821  0.00  0.00    +0.000 A 
ATOM     11  N   UNL     1       3.043   4.507  19.776  0.00  0.00    +0.000 N 
ATOM     12  H   UNL     1       3.201   4.912  20.690  0.00  0.00    +0.000 HD
ENDROOT
BRANCH   7  13
ATOM     13  N   UNL     1       7.122   4.637  15.928  0.00  0.00    +0.000 N 
ATOM     14  H   UNL     1       8.058   4.801  16.282  0.00  0.00    +0.000 HD
BRANCH  13  15
ATOM     15  C   UNL     1       7.015   4.621  14.526  0.00  0.00    +0.000 A 
ATOM     16  C   UNL     1       7.832   5.454  13.751  0.00  0.00    +0.000 A 
ATOM     17  C   UNL     1       7.810   5.382  12.353  0.00  0.00    +0.000 A 
ATOM     18  C   UNL     1       6.968   4.472  11.712  0.00  0.00    +0.000 A 
ATOM     19  C   UNL     1       6.141   3.646  12.480  0.00  0.00    +0.000 A 
ATOM     20  C   UNL     1       6.163   3.719  13.875  0.00  0.00    +0.000 A 
BRANCH  19  21
ATOM     21  N   UNL     1       5.256   2.678  11.823  0.00  0.00    +0.000 N 
ATOM     22  O   UNL     1       4.086   3.017  11.608  0.00  0.00    +0.000 OA
ATOM     23  O   UNL     1       5.733   1.571  11.517  0.00  0.00    +0.000 OA
ENDBRANCH  19  21
ENDBRANCH  13  15
ENDBRANCH   7  13
TORSDOF 3
ENDMDL
MODEL 5
REMARK VINA RESULT:      -7.6      4.562      6.398
REMARK  Name = 
REMARK  3 active torsions:
REMARK  status: ('A' for Active; 'I' for Inactive)
REMARK    1  A    between atoms: C_7  and  N_8
REMARK    2  A    between atoms: N_8  and  C_9
REMARK    3  A    between atoms: C_13  and  N_14
REMARK                            x       y       z     vdW  Elec       q    Type
REMARK                         _______ _______ _______ _____ _____    ______ ____
ROOT
ATOM      1  O   UNL     1       0.856   4.731  20.730  0.00  0.00    +0.000 OA
ATOM      2  C   UNL     1       1.883   4.548  20.080  0.00  0.00    +0.000 C 
ATOM      3  C   UNL     1       2.809   3.381  20.330  0.00  0.00    +0.000 C 
ATOM      4  C   UNL     1       3.459   2.898  19.043  0.00  0.00    +0.000 C 
ATOM      5  C   UNL     1       4.065   4.048  18.287  0.00  0.00    +0.000 A 
ATOM      6  C   UNL     1       5.164   3.872  17.433  0.00  0.00    +0.000 A 
ATOM      7  C   UNL     1       5.642   4.937  16.658  0.00  0.00    +0.000 A 
ATOM      8  C   UNL     1       5.001   6.181  16.762  0.00  0.00    +0.000 A 
ATOM      9  C   UNL     1       3.898   6.363  17.594  0.00  0.00    +0.000 A 
ATOM     10  C   UNL     1       3.438   5.298  18.354  0.00  0.00    +0.000 A 
ATOM     11  N   UNL     1       2.314   5.471  19.166  0.00  0.00    +0.000 N 
ATOM     12  H   UNL     1       1.765   6.319  19.097  0.00  0.00    +0.000 HD
ENDROOT
BRANCH   7  13
ATOM     13  N   UNL     1       6.767   4.758  15.830  0.00  0.00    +0.000 N 
ATOM     14  H   UNL     1       7.668   4.822  16.291  0.00  0.00    +0.000 HD
BRANCH  13  15
ATOM     15  C   UNL     1       6.826   4.661  14.429  0.00  0.00    +0.000 A 
ATOM     16  C   UNL     1       7.767   5.412  13.713  0.00  0.00    +0.000 A 
ATOM     17  C   UNL     1       7.906   5.256  12.328  0.00  0.00    +0.000 A 
ATOM     18  C   UNL     1       7.104   4.344  11.642  0.00  0.00    +0.000 A 
ATOM     19  C   UNL     1       6.154   3.600  12.350  0.00  0.00    +0.000 A 
ATOM     20  C   UNL     1       6.014   3.757  13.731  0.00  0.00    +0.000 A 
BRANCH  19  21
ATOM     21  N   UNL     1       5.308   2.630  11.646  0.00  0.00    +0.000 N 
ATOM     22  O   UNL     1       4.152   2.970  11.361  0.00  0.00    +0.000 OA
ATOM     23  O   UNL     1       5.800   1.522  11.372  0.00  0.00    +0.000 OA
ENDBRANCH  19  21
ENDBRANCH  13  15
ENDBRANCH   7  13
TORSDOF 3
ENDMDL
MODEL 6
REMARK VINA RESULT:      -7.6      3.383      5.309
REMARK  Name = 
REMARK  3 active torsions:
REMARK  status: ('A' for Active; 'I' for Inactive)
REMARK    1  A    between atoms: C_7  and  N_8
REMARK    2  A    between atoms: N_8  and  C_9
REMARK    3  A    between atoms: C_13  and  N_14
REMARK                            x       y       z     vdW  Elec       q    Type
REMARK                         _______ _______ _______ _____ _____    ______ ____
ROOT
ATOM      1  O   UNL     1       1.321   8.284  20.770  0.00  0.00    +0.000 OA
ATOM      2  C   UNL     1       1.958   7.678  19.911  0.00  0.00    +0.000 C 
ATOM      3  C   UNL     1       1.935   8.067  18.451  0.00  0.00    +0.000 C 
ATOM      4  C   UNL     1       3.273   7.799  17.780  0.00  0.00    +0.000 C 
ATOM      5  C   UNL     1       3.740   6.398  18.064  0.00  0.00    +0.000 A 
ATOM      6  C   UNL     1       4.573   5.703  17.173  0.00  0.00    +0.000 A 
ATOM      7  C   UNL     1       5.082   4.442  17.510  0.00  0.00    +0.000 A 
ATOM      8  C   UNL     1       4.734   3.889  18.752  0.00  0.00    +0.000 A 
ATOM      9  C   UNL     1       3.921   4.577  19.652  0.00  0.00    +0.000 A 
ATOM     10  C   UNL     1       3.426   5.825  19.302  0.00  0.00    +0.000 A 
ATOM     11  N   UNL     1       2.636   6.528  20.215  0.00  0.00    +0.000 N 
ATOM     12  H   UNL     1       2.538   6.192  21.165  0.00  0.00    +0.000 HD
ENDROOT
BRANCH   7  13
ATOM     13  N   UNL     1       5.889   3.739  16.595  0.00  0.00    +0.000 N 
ATOM     14  H   UNL     1       6.416   2.962  16.978  0.00  0.00    +0.000 HD
BRANCH  13  15
ATOM     15  C   UNL     1       6.192   4.057  15.259  0.00  0.00    +0.000 A 
ATOM     16  C   UNL     1       7.209   4.976  14.970  0.00  0.00    +0.000 A 
ATOM     17  C   UNL     1       7.591   5.231  13.648  0.00  0.00    +0.000 A 
ATOM     18  C   UNL     1       6.958   4.568  12.595  0.00  0.00    +0.000 A 
ATOM     19  C   UNL     1       5.933   3.658  12.877  0.00  0.00    +0.000 A 
ATOM     20  C   UNL     1       5.552   3.405  14.197  0.00  0.00    +0.000 A 
BRANCH  19  21
ATOM     21  N   UNL     1       5.263   2.946  11.784  0.00  0.00    +0.000 N 
ATOM     22  O   UNL     1       5.744   1.867  11.416  0.00  0.00    +0.000 OA
ATOM     23  O   UNL     1       4.248   3.465  11.289  0.00  0.00    +0.000 OA
ENDBRANCH  19  21
ENDBRANCH  13  15
ENDBRANCH   7  13
TORSDOF 3
ENDMDL
MODEL 7
REMARK VINA RESULT:      -7.4      1.785      2.253
REMARK  Name = 
REMARK  3 active torsions:
REMARK  status: ('A' for Active; 'I' for Inactive)
REMARK    1  A    between atoms: C_7  and  N_8
REMARK    2  A    between atoms: N_8  and  C_9
REMARK    3  A    between atoms: C_13  and  N_14
REMARK                            x       y       z     vdW  Elec       q    Type
REMARK                         _______ _______ _______ _____ _____    ______ ____
ROOT
ATOM      1  O   UNL     1      -0.902  11.109  23.352  0.00  0.00    +0.000 OA
ATOM      2  C   UNL     1      -0.455  10.662  22.298  0.00  0.00    +0.000 C 
ATOM      3  C   UNL     1      -0.809  11.243  20.950  0.00  0.00    +0.000 C 
ATOM      4  C   UNL     1       0.354  11.144  19.975  0.00  0.00    +0.000 C 
ATOM      5  C   UNL     1       0.907   9.746  19.946  0.00  0.00    +0.000 A 
ATOM      6  C   UNL     1       1.541   9.227  18.807  0.00  0.00    +0.000 A 
ATOM      7  C   UNL     1       2.143   7.962  18.841  0.00  0.00    +0.000 A 
ATOM      8  C   UNL     1       2.092   7.227  20.036  0.00  0.00    +0.000 A 
ATOM      9  C   UNL     1       1.480   7.740  21.178  0.00  0.00    +0.000 A 
ATOM     10  C   UNL     1       0.888   8.994  21.127  0.00  0.00    +0.000 A 
ATOM     11  N   UNL     1       0.302   9.521  22.280  0.00  0.00    +0.000 N 
ATOM     12  H   UNL     1       0.425   9.055  23.170  0.00  0.00    +0.000 HD
ENDROOT
BRANCH   7  13
ATOM     13  N   UNL     1       2.746   7.436  17.682  0.00  0.00    +0.000 N 
ATOM     14  H   UNL     1       2.442   7.841  16.804  0.00  0.00    +0.000 HD
BRANCH  13  15
ATOM     15  C   UNL     1       3.593   6.321  17.555  0.00  0.00    +0.000 A 
ATOM     16  C   UNL     1       3.066   5.026  17.645  0.00  0.00    +0.000 A 
ATOM     17  C   UNL     1       3.875   3.905  17.425  0.00  0.00    +0.000 A 
ATOM     18  C   UNL     1       5.225   4.067  17.111  0.00  0.00    +0.000 A 
ATOM     19  C   UNL     1       5.760   5.357  17.032  0.00  0.00    +0.000 A 
ATOM     20  C   UNL     1       4.952   6.475  17.254  0.00  0.00    +0.000 A 
BRANCH  19  21
ATOM     21  N   UNL     1       7.175   5.545  16.695  0.00  0.00    +0.000 N 
ATOM     22  O   UNL     1       7.591   6.704  16.571  0.00  0.00    +0.000 OA
ATOM     23  O   UNL     1       7.879   4.530  16.557  0.00  0.00    +0.000 OA
ENDBRANCH  19  21
ENDBRANCH  13  15
ENDBRANCH   7  13
TORSDOF 3
ENDMDL
MODEL 8
REMARK VINA RESULT:      -7.4      1.788      2.146
REMARK  Name = 
REMARK  3 active torsions:
REMARK  status: ('A' for Active; 'I' for Inactive)
REMARK    1  A    between atoms: C_7  and  N_8
REMARK    2  A    between atoms: N_8  and  C_9
REMARK    3  A    between atoms: C_13  and  N_14
REMARK                            x       y       z     vdW  Elec       q    Type
REMARK                         _______ _______ _______ _____ _____    ______ ____
ROOT
ATOM      1  O   UNL     1       0.070  11.596  21.852  0.00  0.00    +0.000 OA
ATOM      2  C   UNL     1       0.611  10.580  21.420  0.00  0.00    +0.000 C 
ATOM      3  C   UNL     1       1.204   9.524  22.322  0.00  0.00    +0.000 C 
ATOM      4  C   UNL     1       1.057   8.133  21.726  0.00  0.00    +0.000 C 
ATOM      5  C   UNL     1       1.544   8.109  20.303  0.00  0.00    +0.000 A 
ATOM      6  C   UNL     1       2.057   6.940  19.718  0.00  0.00    +0.000 A 
ATOM      7  C   UNL     1       2.403   6.916  18.361  0.00  0.00    +0.000 A 
ATOM      8  C   UNL     1       2.231   8.086  17.604  0.00  0.00    +0.000 A 
ATOM      9  C   UNL     1       1.707   9.247  18.171  0.00  0.00    +0.000 A 
ATOM     10  C   UNL     1       1.370   9.253  19.516  0.00  0.00    +0.000 A 
ATOM     11  N   UNL     1       0.816  10.407  20.077  0.00  0.00    +0.000 N 
ATOM     12  H   UNL     1       0.542  11.179  19.482  0.00  0.00    +0.000 HD
ENDROOT
BRANCH   7  13
ATOM     13  N   UNL     1       2.948   5.749  17.792  0.00  0.00    +0.000 N 
ATOM     14  H   UNL     1       2.321   4.956  17.727  0.00  0.00    +0.000 HD
BRANCH  13  15
ATOM     15  C   UNL     1       4.284   5.476  17.447  0.00  0.00    +0.000 A 
ATOM     16  C   UNL     1       4.587   4.378  16.632  0.00  0.00    +0.000 A 
ATOM     17  C   UNL     1       5.897   4.146  16.198  0.00  0.00    +0.000 A 
ATOM     18  C   UNL     1       6.924   5.013  16.575  0.00  0.00    +0.000 A 
ATOM     19  C   UNL     1       6.630   6.104  17.400  0.00  0.00    +0.000 A 
ATOM     20  C   UNL     1       5.322   6.334  17.833  0.00  0.00    +0.000 A 
BRANCH  19  21
ATOM     21  N   UNL     1       7.694   7.031  17.799  0.00  0.00    +0.000 N 
ATOM     22  O   UNL     1       8.314   6.785  18.841  0.00  0.00    +0.000 OA
ATOM     23  O   UNL     1       7.917   8.009  17.066  0.00  0.00    +0.000 OA
ENDBRANCH  19  21
ENDBRANCH  13  15
ENDBRANCH   7  13
TORSDOF 3
ENDMDL
MODEL 9
REMARK VINA RESULT:      -7.4      1.745      2.707
REMARK  Name = 
REMARK  3 active torsions:
REMARK  status: ('A' for Active; 'I' for Inactive)
REMARK    1  A    between atoms: C_7  and  N_8
REMARK    2  A    between atoms: N_8  and  C_9
REMARK    3  A    between atoms: C_13  and  N_14
REMARK                            x       y       z     vdW  Elec       q    Type
REMARK                         _______ _______ _______ _____ _____    ______ ____
ROOT
ATOM      1  O   UNL     1      -0.450  11.576  19.924  0.00  0.00    +0.000 OA
ATOM      2  C   UNL     1       0.175  10.607  19.498  0.00  0.00    +0.000 C 
ATOM      3  C   UNL     1       0.491  10.420  18.033  0.00  0.00    +0.000 C 
ATOM      4  C   UNL     1       1.831   9.729  17.833  0.00  0.00    +0.000 C 
ATOM      5  C   UNL     1       1.919   8.485  18.674  0.00  0.00    +0.000 A 
ATOM      6  C   UNL     1       2.718   7.395  18.296  0.00  0.00    +0.000 A 
ATOM      7  C   UNL     1       2.868   6.292  19.148  0.00  0.00    +0.000 A 
ATOM      8  C   UNL     1       2.198   6.303  20.381  0.00  0.00    +0.000 A 
ATOM      9  C   UNL     1       1.415   7.387  20.774  0.00  0.00    +0.000 A 
ATOM     10  C   UNL     1       1.277   8.470  19.918  0.00  0.00    +0.000 A 
ATOM     11  N   UNL     1       0.518   9.570  20.324  0.00  0.00    +0.000 N 
ATOM     12  H   UNL     1       0.186   9.633  21.278  0.00  0.00    +0.000 HD
ENDROOT
BRANCH   7  13
ATOM     13  N   UNL     1       3.644   5.189  18.744  0.00  0.00    +0.000 N 
ATOM     14  H   UNL     1       3.258   4.277  18.958  0.00  0.00    +0.000 HD
BRANCH  13  15
ATOM     15  C   UNL     1       4.953   5.170  18.229  0.00  0.00    +0.000 A 
ATOM     16  C   UNL     1       6.049   5.255  19.097  0.00  0.00    +0.000 A 
ATOM     17  C   UNL     1       7.358   5.139  18.614  0.00  0.00    +0.000 A 
ATOM     18  C   UNL     1       7.586   4.938  17.251  0.00  0.00    +0.000 A 
ATOM     19  C   UNL     1       6.495   4.865  16.378  0.00  0.00    +0.000 A 
ATOM     20  C   UNL     1       5.190   4.982  16.862  0.00  0.00    +0.000 A 
BRANCH  19  21
ATOM     21  N   UNL     1       6.716   4.645  14.945  0.00  0.00    +0.000 N 
ATOM     22  O   UNL     1       5.933   3.897  14.347  0.00  0.00    +0.000 OA
ATOM     23  O   UNL     1       7.677   5.225  14.410  0.00  0.00    +0.000 OA
ENDBRANCH  19  21
ENDBRANCH  13  15
ENDBRANCH   7  13
TORSDOF 3
ENDMDL
