MODEL 1
REMARK VINA RESULT:      -7.4      0.000      0.000
REMARK  Name = 
REMARK  7 active torsions:
REMARK  status: ('A' for Active; 'I' for Inactive)
REMARK    1  A    between atoms: C_1  and  C_2
REMARK    2  A    between atoms: C_2  and  C_3
REMARK    3  A    between atoms: C_16  and  C_17
REMARK    4  A    between atoms: C_22  and  C_23
REMARK    5  A    between atoms: C_23  and  C_24
REMARK    6  A    between atoms: C_23  and  C_25
REMARK    7  A    between atoms: C_23  and  C_26
REMARK                            x       y       z     vdW  Elec       q    Type
REMARK                         _______ _______ _______ _____ _____    ______ ____
ROOT
ATOM      1  C   UNL     1      -4.642  14.387  23.493  0.00  0.00    +0.000 C 
ATOM      2  O   UNL     1      -5.176  15.394  23.956  0.00  0.00    +0.000 OA
ATOM      3  N   UNL     1      -3.447  14.441  22.790  0.00  0.00    +0.000 N 
ATOM      4  C   UNL     1      -2.726  15.715  22.652  0.00  0.00    +0.000 C 
ATOM      5  C   UNL     1      -1.209  15.558  22.915  0.00  0.00    +0.000 C 
ATOM      6  N   UNL     1      -0.628  14.376  22.236  0.00  0.00    +0.000 N 
ATOM      7  C   UNL     1       0.673  14.489  21.789  0.00  0.00    +0.000 C 
ATOM      8  O   UNL     1       1.340  15.473  22.118  0.00  0.00    +0.000 OA
ATOM      9  N   UNL     1       1.231  13.524  20.965  0.00  0.00    +0.000 N 
ATOM     10  C   UNL     1       2.657  13.669  20.601  0.00  0.00    +0.000 C 
ATOM     11  C   UNL     1       2.890  13.751  19.091  0.00  0.00    +0.000 C 
ATOM     12  C   UNL     1       2.203  12.615  18.343  0.00  0.00    +0.000 C 
ATOM     13  C   UNL     1       0.729  12.576  18.714  0.00  0.00    +0.000 C 
ATOM     14  C   UNL     1       0.534  12.450  20.231  0.00  0.00    +0.000 C 
ATOM     15  C   UNL     1      -1.382  13.158  22.556  0.00  0.00    +0.000 C 
ATOM     16  C   UNL     1      -2.831  13.315  22.086  0.00  0.00    +0.000 C 
ENDROOT
BRANCH  14  17
ATOM     17  C   UNL     1       0.933  11.035  20.727  0.00  0.00    +0.000 C 
ATOM     18  O   UNL     1       1.016  10.806  21.935  0.00  0.00    +0.000 OA
ATOM     19  N   UNL     1       1.312  10.145  19.736  0.00  0.00    +0.000 N 
ATOM     20  C   UNL     1       1.517   8.793  19.956  0.00  0.00    +0.000 A 
ATOM     21  C   UNL     1       2.107   7.890  19.034  0.00  0.00    +0.000 A 
ATOM     22  C   UNL     1       2.102   6.667  19.673  0.00  0.00    +0.000 A 
ATOM     23  O   UNL     1       1.507   6.825  20.887  0.00  0.00    +0.000 OA
ATOM     24  N   UNL     1       1.150   8.140  21.062  0.00  0.00    +0.000 NA
ATOM     25  H   UNL     1       1.402  10.489  18.787  0.00  0.00    +0.000 HD
BRANCH  22  26
ATOM     26  C   UNL     1       2.613   5.290  19.330  0.00  0.00    +0.000 C 
ATOM     27  C   UNL     1       2.149   4.291  20.405  0.00  0.00    +0.000 C 
ATOM     28  C   UNL     1       2.089   4.806  17.962  0.00  0.00    +0.000 C 
ATOM     29  C   UNL     1       4.151   5.303  19.277  0.00  0.00    +0.000 C 
ENDBRANCH  22  26
ENDBRANCH  14  17
BRANCH   1  31
ATOM     30  C   UNL     1      -4.687  12.291  24.925  0.00  0.00    +0.000 C 
ATOM     31  C   UNL     1      -5.233  13.001  23.699  0.00  0.00    +0.000 C 
ENDBRANCH   1  31
TORSDOF 3
ENDMDL
MODEL 2
REMARK VINA RESULT:      -7.3      2.797      5.977
REMARK  Name = 
REMARK  7 active torsions:
REMARK  status: ('A' for Active; 'I' for Inactive)
REMARK    1  A    between atoms: C_1  and  C_2
REMARK    2  A    between atoms: C_2  and  C_3
REMARK    3  A    between atoms: C_16  and  C_17
REMARK    4  A    between atoms: C_22  and  C_23
REMARK    5  A    between atoms: C_23  and  C_24
REMARK    6  A    between atoms: C_23  and  C_25
REMARK    7  A    between atoms: C_23  and  C_26
REMARK                            x       y       z     vdW  Elec       q    Type
REMARK                         _______ _______ _______ _____ _____    ______ ____
ROOT
ATOM      1  C   UNL     1       5.596  16.313  18.912  0.00  0.00    +0.000 C 
ATOM      2  O   UNL     1       5.894  17.498  18.771  0.00  0.00    +0.000 OA
ATOM      3  N   UNL     1       4.307  15.908  19.228  0.00  0.00    +0.000 N 
ATOM      4  C   UNL     1       3.220  16.896  19.316  0.00  0.00    +0.000 C 
ATOM      5  C   UNL     1       1.938  16.419  18.594  0.00  0.00    +0.000 C 
ATOM      6  N   UNL     1       1.597  15.010  18.902  0.00  0.00    +0.000 N 
ATOM      7  C   UNL     1       0.255  14.689  18.951  0.00  0.00    +0.000 C 
ATOM      8  O   UNL     1      -0.577  15.517  18.575  0.00  0.00    +0.000 OA
ATOM      9  N   UNL     1      -0.168  13.459  19.433  0.00  0.00    +0.000 N 
ATOM     10  C   UNL     1      -1.614  13.155  19.371  0.00  0.00    +0.000 C 
ATOM     11  C   UNL     1      -2.226  12.847  20.739  0.00  0.00    +0.000 C 
ATOM     12  C   UNL     1      -1.431  11.790  21.497  0.00  0.00    +0.000 C 
ATOM     13  C   UNL     1       0.028  12.208  21.581  0.00  0.00    +0.000 C 
ATOM     14  C   UNL     1       0.620  12.466  20.189  0.00  0.00    +0.000 C 
ATOM     15  C   UNL     1       2.741  14.122  18.660  0.00  0.00    +0.000 C 
ATOM     16  C   UNL     1       3.909  14.537  19.556  0.00  0.00    +0.000 C 
ENDROOT
BRANCH  14  17
ATOM     17  C   UNL     1       0.807  11.137  19.409  0.00  0.00    +0.000 C 
ATOM     18  O   UNL     1       0.483  11.068  18.222  0.00  0.00    +0.000 OA
ATOM     19  N   UNL     1       1.208  10.054  20.173  0.00  0.00    +0.000 N 
ATOM     20  C   UNL     1       1.609   8.842  19.635  0.00  0.00    +0.000 A 
ATOM     21  C   UNL     1       1.822   7.647  20.369  0.00  0.00    +0.000 A 
ATOM     22  C   UNL     1       2.211   6.712  19.432  0.00  0.00    +0.000 A 
ATOM     23  O   UNL     1       2.266   7.326  18.219  0.00  0.00    +0.000 OA
ATOM     24  N   UNL     1       1.890   8.641  18.345  0.00  0.00    +0.000 NA
ATOM     25  H   UNL     1       1.256  10.165  21.179  0.00  0.00    +0.000 HD
BRANCH  22  26
ATOM     26  C   UNL     1       2.538   5.240  19.477  0.00  0.00    +0.000 C 
ATOM     27  C   UNL     1       2.079   4.656  20.825  0.00  0.00    +0.000 C 
ATOM     28  C   UNL     1       1.834   4.460  18.347  0.00  0.00    +0.000 C 
ATOM     29  C   UNL     1       4.056   5.039  19.325  0.00  0.00    +0.000 C 
ENDBRANCH  22  26
ENDBRANCH  14  17
BRANCH   1  31
ATOM     30  C   UNL     1       7.808  15.626  17.873  0.00  0.00    +0.000 C 
ATOM     31  C   UNL     1       6.613  15.201  18.706  0.00  0.00    +0.000 C 
ENDBRANCH   1  31
TORSDOF 3
ENDMDL
MODEL 3
REMARK VINA RESULT:      -7.3      2.694      3.154
REMARK  Name = 
REMARK  7 active torsions:
REMARK  status: ('A' for Active; 'I' for Inactive)
REMARK    1  A    between atoms: C_1  and  C_2
REMARK    2  A    between atoms: C_2  and  C_3
REMARK    3  A    between atoms: C_16  and  C_17
REMARK    4  A    between atoms: C_22  and  C_23
REMARK    5  A    between atoms: C_23  and  C_24
REMARK    6  A    between atoms: C_23  and  C_25
REMARK    7  A    between atoms: C_23  and  C_26
REMARK                            x       y       z     vdW  Elec       q    Type
REMARK                         _______ _______ _______ _____ _____    ______ ____
ROOT
ATOM      1  C   UNL     1      -6.561  11.757  19.278  0.00  0.00    +0.000 C 
ATOM      2  O   UNL     1      -7.651  12.302  19.447  0.00  0.00    +0.000 OA
ATOM      3  N   UNL     1      -5.362  12.435  19.447  0.00  0.00    +0.000 N 
ATOM      4  C   UNL     1      -5.357  13.825  19.927  0.00  0.00    +0.000 C 
ATOM      5  C   UNL     1      -4.293  14.058  21.026  0.00  0.00    +0.000 C 
ATOM      6  N   UNL     1      -2.982  13.454  20.693  0.00  0.00    +0.000 N 
ATOM      7  C   UNL     1      -1.856  14.121  21.135  0.00  0.00    +0.000 C 
ATOM      8  O   UNL     1      -1.984  15.066  21.916  0.00  0.00    +0.000 OA
ATOM      9  N   UNL     1      -0.592  13.754  20.700  0.00  0.00    +0.000 N 
ATOM     10  C   UNL     1       0.570  14.457  21.287  0.00  0.00    +0.000 C 
ATOM     11  C   UNL     1       1.440  15.161  20.243  0.00  0.00    +0.000 C 
ATOM     12  C   UNL     1       1.828  14.231  19.100  0.00  0.00    +0.000 C 
ATOM     13  C   UNL     1       0.578  13.604  18.503  0.00  0.00    +0.000 C 
ATOM     14  C   UNL     1      -0.247  12.870  19.569  0.00  0.00    +0.000 C 
ATOM     15  C   UNL     1      -3.125  12.035  20.343  0.00  0.00    +0.000 C 
ATOM     16  C   UNL     1      -4.037  11.900  19.122  0.00  0.00    +0.000 C 
ENDROOT
BRANCH  14  17
ATOM     17  C   UNL     1       0.466  11.570  20.027  0.00  0.00    +0.000 C 
ATOM     18  O   UNL     1       0.717  11.392  21.220  0.00  0.00    +0.000 OA
ATOM     19  N   UNL     1       0.904  10.744  19.005  0.00  0.00    +0.000 N 
ATOM     20  C   UNL     1       1.387   9.462  19.208  0.00  0.00    +0.000 A 
ATOM     21  C   UNL     1       2.039   8.665  18.233  0.00  0.00    +0.000 A 
ATOM     22  C   UNL     1       2.336   7.480  18.874  0.00  0.00    +0.000 A 
ATOM     23  O   UNL     1       1.851   7.553  20.144  0.00  0.00    +0.000 OA
ATOM     24  N   UNL     1       1.269   8.780  20.351  0.00  0.00    +0.000 NA
ATOM     25  H   UNL     1       0.827  11.075  18.051  0.00  0.00    +0.000 HD
BRANCH  22  26
ATOM     26  C   UNL     1       3.064   6.217  18.484  0.00  0.00    +0.000 C 
ATOM     27  C   UNL     1       4.180   6.561  17.482  0.00  0.00    +0.000 C 
ATOM     28  C   UNL     1       3.706   5.524  19.704  0.00  0.00    +0.000 C 
ATOM     29  C   UNL     1       2.081   5.229  17.833  0.00  0.00    +0.000 C 
ENDBRANCH  22  26
ENDBRANCH  14  17
BRANCH   1  31
ATOM     30  C   UNL     1      -7.235   9.376  19.844  0.00  0.00    +0.000 C 
ATOM     31  C   UNL     1      -6.450  10.284  18.916  0.00  0.00    +0.000 C 
ENDBRANCH   1  31
TORSDOF 3
ENDMDL
MODEL 4
REMARK VINA RESULT:      -7.1      1.689      1.858
REMARK  Name = 
REMARK  7 active torsions:
REMARK  status: ('A' for Active; 'I' for Inactive)
REMARK    1  A    between atoms: C_1  and  C_2
REMARK    2  A    between atoms: C_2  and  C_3
REMARK    3  A    between atoms: C_16  and  C_17
REMARK    4  A    between atoms: C_22  and  C_23
REMARK    5  A    between atoms: C_23  and  C_24
REMARK    6  A    between atoms: C_23  and  C_25
REMARK    7  A    between atoms: C_23  and  C_26
REMARK                            x       y       z     vdW  Elec       q    Type
REMARK                         _______ _______ _______ _____ _____    ______ ____
ROOT
ATOM      1  C   UNL     1      -5.980  13.161  21.059  0.00  0.00    +0.000 C 
ATOM      2  O   UNL     1      -6.857  13.960  21.384  0.00  0.00    +0.000 OA
ATOM      3  N   UNL     1      -4.668  13.554  20.835  0.00  0.00    +0.000 N 
ATOM      4  C   UNL     1      -4.261  14.947  21.071  0.00  0.00    +0.000 C 
ATOM      5  C   UNL     1      -2.924  15.041  21.844  0.00  0.00    +0.000 C 
ATOM      6  N   UNL     1      -1.892  14.116  21.320  0.00  0.00    +0.000 N 
ATOM      7  C   UNL     1      -0.581  14.545  21.378  0.00  0.00    +0.000 C 
ATOM      8  O   UNL     1      -0.310  15.572  22.005  0.00  0.00    +0.000 OA
ATOM      9  N   UNL     1       0.428  13.849  20.728  0.00  0.00    +0.000 N 
ATOM     10  C   UNL     1       1.818  14.319  20.911  0.00  0.00    +0.000 C 
ATOM     11  C   UNL     1       2.509  14.686  19.596  0.00  0.00    +0.000 C 
ATOM     12  C   UNL     1       2.393  13.576  18.559  0.00  0.00    +0.000 C 
ATOM     13  C   UNL     1       0.932  13.197  18.375  0.00  0.00    +0.000 C 
ATOM     14  C   UNL     1       0.284  12.794  19.706  0.00  0.00    +0.000 C 
ATOM     15  C   UNL     1      -2.401  12.741  21.245  0.00  0.00    +0.000 C 
ATOM     16  C   UNL     1      -3.608  12.693  20.305  0.00  0.00    +0.000 C 
ENDROOT
BRANCH  14  17
ATOM     17  C   UNL     1       0.816  11.420  20.191  0.00  0.00    +0.000 C 
ATOM     18  O   UNL     1       0.994  11.217  21.394  0.00  0.00    +0.000 OA
ATOM     19  N   UNL     1       1.195  10.545  19.187  0.00  0.00    +0.000 N 
ATOM     20  C   UNL     1       1.513   9.214  19.408  0.00  0.00    +0.000 A 
ATOM     21  C   UNL     1       2.107   8.343  18.459  0.00  0.00    +0.000 A 
ATOM     22  C   UNL     1       2.232   7.133  19.110  0.00  0.00    +0.000 A 
ATOM     23  O   UNL     1       1.707   7.266  20.358  0.00  0.00    +0.000 OA
ATOM     24  N   UNL     1       1.267   8.555  20.543  0.00  0.00    +0.000 NA
ATOM     25  H   UNL     1       1.198  10.879  18.231  0.00  0.00    +0.000 HD
BRANCH  22  26
ATOM     26  C   UNL     1       2.820   5.791  18.749  0.00  0.00    +0.000 C 
ATOM     27  C   UNL     1       3.120   5.002  20.036  0.00  0.00    +0.000 C 
ATOM     28  C   UNL     1       1.856   4.954  17.884  0.00  0.00    +0.000 C 
ATOM     29  C   UNL     1       4.125   5.989  17.958  0.00  0.00    +0.000 C 
ENDBRANCH  22  26
ENDBRANCH  14  17
BRANCH   1  31
ATOM     30  C   UNL     1      -7.716  11.363  20.614  0.00  0.00    +0.000 C 
ATOM     31  C   UNL     1      -6.263  11.672  20.922  0.00  0.00    +0.000 C 
ENDBRANCH   1  31
TORSDOF 3
ENDMDL
MODEL 5
REMARK VINA RESULT:      -7.1      2.202      2.569
REMARK  Name = 
REMARK  7 active torsions:
REMARK  status: ('A' for Active; 'I' for Inactive)
REMARK    1  A    between atoms: C_1  and  C_2
REMARK    2  A    between atoms: C_2  and  C_3
REMARK    3  A    between atoms: C_16  and  C_17
REMARK    4  A    between atoms: C_22  and  C_23
REMARK    5  A    between atoms: C_23  and  C_24
REMARK    6  A    between atoms: C_23  and  C_25
REMARK    7  A    between atoms: C_23  and  C_26
REMARK                            x       y       z     vdW  Elec       q    Type
REMARK                         _______ _______ _______ _____ _____    ______ ____
ROOT
ATOM      1  C   UNL     1      -6.433  12.555  19.838  0.00  0.00    +0.000 C 
ATOM      2  O   UNL     1      -7.420  13.278  19.972  0.00  0.00    +0.000 OA
ATOM      3  N   UNL     1      -5.139  13.053  19.896  0.00  0.00    +0.000 N 
ATOM      4  C   UNL     1      -4.904  14.470  20.214  0.00  0.00    +0.000 C 
ATOM      5  C   UNL     1      -3.770  14.655  21.251  0.00  0.00    +0.000 C 
ATOM      6  N   UNL     1      -2.581  13.822  20.955  0.00  0.00    +0.000 N 
ATOM      7  C   UNL     1      -1.349  14.351  21.288  0.00  0.00    +0.000 C 
ATOM      8  O   UNL     1      -1.299  15.384  21.959  0.00  0.00    +0.000 OA
ATOM      9  N   UNL     1      -0.175  13.748  20.864  0.00  0.00    +0.000 N 
ATOM     10  C   UNL     1       1.104  14.322  21.336  0.00  0.00    +0.000 C 
ATOM     11  C   UNL     1       2.024  14.765  20.196  0.00  0.00    +0.000 C 
ATOM     12  C   UNL     1       2.217  13.667  19.157  0.00  0.00    +0.000 C 
ATOM     13  C   UNL     1       0.863  13.179  18.669  0.00  0.00    +0.000 C 
ATOM     14  C   UNL     1      -0.016  12.703  19.834  0.00  0.00    +0.000 C 
ATOM     15  C   UNL     1      -2.951  12.413  20.773  0.00  0.00    +0.000 C 
ATOM     16  C   UNL     1      -3.926  12.288  19.600  0.00  0.00    +0.000 C 
ENDROOT
BRANCH  14  17
ATOM     17  C   UNL     1       0.511  11.366  20.419  0.00  0.00    +0.000 C 
ATOM     18  O   UNL     1       0.624  11.228  21.638  0.00  0.00    +0.000 OA
ATOM     19  N   UNL     1       0.961  10.448  19.484  0.00  0.00    +0.000 N 
ATOM     20  C   UNL     1       1.288   9.138  19.792  0.00  0.00    +0.000 A 
ATOM     21  C   UNL     1       1.948   8.230  18.924  0.00  0.00    +0.000 A 
ATOM     22  C   UNL     1       2.058   7.058  19.644  0.00  0.00    +0.000 A 
ATOM     23  O   UNL     1       1.461   7.245  20.852  0.00  0.00    +0.000 OA
ATOM     24  N   UNL     1       0.989   8.532  20.944  0.00  0.00    +0.000 NA
ATOM     25  H   UNL     1       1.012  10.733  18.513  0.00  0.00    +0.000 HD
BRANCH  22  26
ATOM     26  C   UNL     1       2.688   5.711  19.386  0.00  0.00    +0.000 C 
ATOM     27  C   UNL     1       2.205   5.174  18.027  0.00  0.00    +0.000 C 
ATOM     28  C   UNL     1       4.228   5.793  19.354  0.00  0.00    +0.000 C 
ATOM     29  C   UNL     1       2.283   4.726  20.496  0.00  0.00    +0.000 C 
ENDBRANCH  22  26
ENDBRANCH  14  17
BRANCH   1  31
ATOM     30  C   UNL     1      -7.581  10.411  20.568  0.00  0.00    +0.000 C 
ATOM     31  C   UNL     1      -6.561  11.052  19.644  0.00  0.00    +0.000 C 
ENDBRANCH   1  31
TORSDOF 3
ENDMDL
MODEL 6
REMARK VINA RESULT:      -7.1      3.752      5.966
REMARK  Name = 
REMARK  7 active torsions:
REMARK  status: ('A' for Active; 'I' for Inactive)
REMARK    1  A    between atoms: C_1  and  C_2
REMARK    2  A    between atoms: C_2  and  C_3
REMARK    3  A    between atoms: C_16  and  C_17
REMARK    4  A    between atoms: C_22  and  C_23
REMARK    5  A    between atoms: C_23  and  C_24
REMARK    6  A    between atoms: C_23  and  C_25
REMARK    7  A    between atoms: C_23  and  C_26
REMARK                            x       y       z     vdW  Elec       q    Type
REMARK                         _______ _______ _______ _____ _____    ______ ____
ROOT
ATOM      1  C   UNL     1       4.814  16.324  19.175  0.00  0.00    +0.000 C 
ATOM      2  O   UNL     1       4.724  17.549  19.228  0.00  0.00    +0.000 OA
ATOM      3  N   UNL     1       3.713  15.494  19.332  0.00  0.00    +0.000 N 
ATOM      4  C   UNL     1       2.367  16.069  19.482  0.00  0.00    +0.000 C 
ATOM      5  C   UNL     1       1.321  15.340  18.606  0.00  0.00    +0.000 C 
ATOM      6  N   UNL     1       1.437  13.865  18.681  0.00  0.00    +0.000 N 
ATOM      7  C   UNL     1       0.266  13.140  18.585  0.00  0.00    +0.000 C 
ATOM      8  O   UNL     1      -0.777  13.719  18.272  0.00  0.00    +0.000 OA
ATOM      9  N   UNL     1       0.244  11.780  18.852  0.00  0.00    +0.000 N 
ATOM     10  C   UNL     1      -1.028  11.056  18.640  0.00  0.00    +0.000 C 
ATOM     11  C   UNL     1      -1.544  10.359  19.900  0.00  0.00    +0.000 C 
ATOM     12  C   UNL     1      -0.474   9.493  20.554  0.00  0.00    +0.000 C 
ATOM     13  C   UNL     1       0.774  10.323  20.805  0.00  0.00    +0.000 C 
ATOM     14  C   UNL     1       1.288  10.971  19.512  0.00  0.00    +0.000 C 
ATOM     15  C   UNL     1       2.809  13.426  18.398  0.00  0.00    +0.000 C 
ATOM     16  C   UNL     1       3.764  14.034  19.430  0.00  0.00    +0.000 C 
ENDROOT
BRANCH  14  17
ATOM     17  C   UNL     1       1.905   9.909  18.564  0.00  0.00    +0.000 C 
ATOM     18  O   UNL     1       2.207  10.215  17.409  0.00  0.00    +0.000 OA
ATOM     19  N   UNL     1       1.943   8.619  19.066  0.00  0.00    +0.000 N 
ATOM     20  C   UNL     1       2.623   7.578  18.456  0.00  0.00    +0.000 A 
ATOM     21  C   UNL     1       2.517   6.208  18.809  0.00  0.00    +0.000 A 
ATOM     22  C   UNL     1       3.365   5.546  17.946  0.00  0.00    +0.000 A 
ATOM     23  O   UNL     1       3.971   6.472  17.154  0.00  0.00    +0.000 OA
ATOM     24  N   UNL     1       3.508   7.727  17.467  0.00  0.00    +0.000 NA
ATOM     25  H   UNL     1       1.488   8.433  19.952  0.00  0.00    +0.000 HD
BRANCH  22  26
ATOM     26  C   UNL     1       3.711   4.098  17.703  0.00  0.00    +0.000 C 
ATOM     27  C   UNL     1       4.327   3.499  18.980  0.00  0.00    +0.000 C 
ATOM     28  C   UNL     1       2.468   3.264  17.330  0.00  0.00    +0.000 C 
ATOM     29  C   UNL     1       4.725   3.990  16.550  0.00  0.00    +0.000 C 
ENDBRANCH  22  26
ENDBRANCH  14  17
BRANCH   1  31
ATOM     30  C   UNL     1       7.323  16.576  18.874  0.00  0.00    +0.000 C 
ATOM     31  C   UNL     1       6.136  15.629  18.885  0.00  0.00    +0.000 C 
ENDBRANCH   1  31
TORSDOF 3
ENDMDL
MODEL 7
REMARK VINA RESULT:      -7.0      2.574      5.632
REMARK  Name = 
REMARK  7 active torsions:
REMARK  status: ('A' for Active; 'I' for Inactive)
REMARK    1  A    between atoms: C_1  and  C_2
REMARK    2  A    between atoms: C_2  and  C_3
REMARK    3  A    between atoms: C_16  and  C_17
REMARK    4  A    between atoms: C_22  and  C_23
REMARK    5  A    between atoms: C_23  and  C_24
REMARK    6  A    between atoms: C_23  and  C_25
REMARK    7  A    between atoms: C_23  and  C_26
REMARK                            x       y       z     vdW  Elec       q    Type
REMARK                         _______ _______ _______ _____ _____    ______ ____
ROOT
ATOM      1  C   UNL     1       4.982  16.071  19.389  0.00  0.00    +0.000 C 
ATOM      2  O   UNL     1       5.207  17.075  18.714  0.00  0.00    +0.000 OA
ATOM      3  N   UNL     1       3.700  15.574  19.572  0.00  0.00    +0.000 N 
ATOM      4  C   UNL     1       2.559  16.193  18.880  0.00  0.00    +0.000 C 
ATOM      5  C   UNL     1       1.615  15.140  18.253  0.00  0.00    +0.000 C 
ATOM      6  N   UNL     1       1.318  14.017  19.173  0.00  0.00    +0.000 N 
ATOM      7  C   UNL     1       0.062  13.451  19.083  0.00  0.00    +0.000 C 
ATOM      8  O   UNL     1      -0.678  13.774  18.151  0.00  0.00    +0.000 OA
ATOM      9  N   UNL     1      -0.383  12.544  20.032  0.00  0.00    +0.000 N 
ATOM     10  C   UNL     1      -1.704  11.914  19.818  0.00  0.00    +0.000 C 
ATOM     11  C   UNL     1      -2.685  12.166  20.965  0.00  0.00    +0.000 C 
ATOM     12  C   UNL     1      -2.081  11.825  22.322  0.00  0.00    +0.000 C 
ATOM     13  C   UNL     1      -0.764  12.564  22.496  0.00  0.00    +0.000 C 
ATOM     14  C   UNL     1       0.211  12.254  21.352  0.00  0.00    +0.000 C 
ATOM     15  C   UNL     1       2.553  13.422  19.700  0.00  0.00    +0.000 C 
ATOM     16  C   UNL     1       3.339  14.480  20.477  0.00  0.00    +0.000 C 
ENDROOT
BRANCH  14  17
ATOM     17  C   UNL     1       0.747  10.802  21.457  0.00  0.00    +0.000 C 
ATOM     18  O   UNL     1       0.894  10.277  22.563  0.00  0.00    +0.000 OA
ATOM     19  N   UNL     1       1.166  10.238  20.263  0.00  0.00    +0.000 N 
ATOM     20  C   UNL     1       1.494   8.900  20.120  0.00  0.00    +0.000 A 
ATOM     21  C   UNL     1       2.125   8.325  18.987  0.00  0.00    +0.000 A 
ATOM     22  C   UNL     1       2.248   6.984  19.284  0.00  0.00    +0.000 A 
ATOM     23  O   UNL     1       1.687   6.767  20.505  0.00  0.00    +0.000 OA
ATOM     24  N   UNL     1       1.225   7.952  21.022  0.00  0.00    +0.000 NA
ATOM     25  H   UNL     1       1.191  10.823  19.436  0.00  0.00    +0.000 HD
BRANCH  22  26
ATOM     26  C   UNL     1       2.864   5.796  18.587  0.00  0.00    +0.000 C 
ATOM     27  C   UNL     1       3.595   4.920  19.620  0.00  0.00    +0.000 C 
ATOM     28  C   UNL     1       1.800   4.927  17.884  0.00  0.00    +0.000 C 
ATOM     29  C   UNL     1       3.868   6.277  17.525  0.00  0.00    +0.000 C 
ENDBRANCH  22  26
ENDBRANCH  14  17
BRANCH   1  31
ATOM     30  C   UNL     1       7.155  14.802  19.045  0.00  0.00    +0.000 C 
ATOM     31  C   UNL     1       6.105  15.273  20.035  0.00  0.00    +0.000 C 
ENDBRANCH   1  31
TORSDOF 3
ENDMDL
MODEL 8
REMARK VINA RESULT:      -6.7      3.345      6.640
REMARK  Name = 
REMARK  7 active torsions:
REMARK  status: ('A' for Active; 'I' for Inactive)
REMARK    1  A    between atoms: C_1  and  C_2
REMARK    2  A    between atoms: C_2  and  C_3
REMARK    3  A    between atoms: C_16  and  C_17
REMARK    4  A    between atoms: C_22  and  C_23
REMARK    5  A    between atoms: C_23  and  C_24
REMARK    6  A    between atoms: C_23  and  C_25
REMARK    7  A    between atoms: C_23  and  C_26
REMARK                            x       y       z     vdW  Elec       q    Type
REMARK                         _______ _______ _______ _____ _____    ______ ____
ROOT
ATOM      1  C   UNL     1      -6.350  12.842  18.714  0.00  0.00    +0.000 C 
ATOM      2  O   UNL     1      -7.238  12.550  17.913  0.00  0.00    +0.000 OA
ATOM      3  N   UNL     1      -5.219  12.057  18.881  0.00  0.00    +0.000 N 
ATOM      4  C   UNL     1      -5.001  10.879  18.028  0.00  0.00    +0.000 C 
ATOM      5  C   UNL     1      -3.547  10.800  17.503  0.00  0.00    +0.000 C 
ATOM      6  N   UNL     1      -2.541  11.064  18.558  0.00  0.00    +0.000 N 
ATOM      7  C   UNL     1      -1.346  10.379  18.468  0.00  0.00    +0.000 C 
ATOM      8  O   UNL     1      -1.100   9.728  17.450  0.00  0.00    +0.000 OA
ATOM      9  N   UNL     1      -0.432  10.398  19.510  0.00  0.00    +0.000 N 
ATOM     10  C   UNL     1       0.863   9.714  19.304  0.00  0.00    +0.000 C 
ATOM     11  C   UNL     1       1.134   8.612  20.330  0.00  0.00    +0.000 C 
ATOM     12  C   UNL     1       0.947   9.102  21.760  0.00  0.00    +0.000 C 
ATOM     13  C   UNL     1      -0.430   9.727  21.912  0.00  0.00    +0.000 C 
ATOM     14  C   UNL     1      -0.651  10.856  20.896  0.00  0.00    +0.000 C 
ATOM     15  C   UNL     1      -2.820  12.329  19.251  0.00  0.00    +0.000 C 
ATOM     16  C   UNL     1      -4.198  12.256  19.913  0.00  0.00    +0.000 C 
ENDROOT
BRANCH  14  17
ATOM     17  C   UNL     1       0.205  12.100  21.253  0.00  0.00    +0.000 C 
ATOM     18  O   UNL     1       0.009  12.700  22.312  0.00  0.00    +0.000 OA
ATOM     19  N   UNL     1       1.059  12.537  20.255  0.00  0.00    +0.000 N 
ATOM     20  C   UNL     1       2.032  13.504  20.447  0.00  0.00    +0.000 A 
ATOM     21  C   UNL     1       2.780  14.133  19.418  0.00  0.00    +0.000 A 
ATOM     22  C   UNL     1       3.622  15.011  20.069  0.00  0.00    +0.000 A 
ATOM     23  O   UNL     1       3.415  14.883  21.408  0.00  0.00    +0.000 OA
ATOM     24  N   UNL     1       2.430  13.954  21.640  0.00  0.00    +0.000 NA
ATOM     25  H   UNL     1       1.003  12.096  19.345  0.00  0.00    +0.000 HD
BRANCH  22  26
ATOM     26  C   UNL     1       4.636  16.036  19.622  0.00  0.00    +0.000 C 
ATOM     27  C   UNL     1       4.484  17.309  20.473  0.00  0.00    +0.000 C 
ATOM     28  C   UNL     1       6.081  15.520  19.779  0.00  0.00    +0.000 C 
ATOM     29  C   UNL     1       4.408  16.383  18.141  0.00  0.00    +0.000 C 
ENDBRANCH  22  26
ENDBRANCH  14  17
BRANCH   1  31
ATOM     30  C   UNL     1      -7.596  14.158  20.492  0.00  0.00    +0.000 C 
ATOM     31  C   UNL     1      -6.410  14.113  19.547  0.00  0.00    +0.000 C 
ENDBRANCH   1  31
TORSDOF 3
ENDMDL
MODEL 9
REMARK VINA RESULT:      -6.6      3.584      5.490
REMARK  Name = 
REMARK  7 active torsions:
REMARK  status: ('A' for Active; 'I' for Inactive)
REMARK    1  A    between atoms: C_1  and  C_2
REMARK    2  A    between atoms: C_2  and  C_3
REMARK    3  A    between atoms: C_16  and  C_17
REMARK    4  A    between atoms: C_22  and  C_23
REMARK    5  A    between atoms: C_23  and  C_24
REMARK    6  A    between atoms: C_23  and  C_25
REMARK    7  A    between atoms: C_23  and  C_26
REMARK                            x       y       z     vdW  Elec       q    Type
REMARK                         _______ _______ _______ _____ _____    ______ ____
ROOT
ATOM      1  C   UNL     1       4.681  15.829  21.603  0.00  0.00    +0.000 C 
ATOM      2  O   UNL     1       4.725  17.022  21.899  0.00  0.00    +0.000 OA
ATOM      3  N   UNL     1       3.510  15.214  21.183  0.00  0.00    +0.000 N 
ATOM      4  C   UNL     1       2.285  16.004  20.991  0.00  0.00    +0.000 C 
ATOM      5  C   UNL     1       1.562  15.649  19.670  0.00  0.00    +0.000 C 
ATOM      6  N   UNL     1       1.465  14.188  19.444  0.00  0.00    +0.000 N 
ATOM      7  C   UNL     1       0.337  13.730  18.793  0.00  0.00    +0.000 C 
ATOM      8  O   UNL     1      -0.436  14.544  18.283  0.00  0.00    +0.000 OA
ATOM      9  N   UNL     1       0.055  12.375  18.720  0.00  0.00    +0.000 N 
ATOM     10  C   UNL     1      -1.123  11.957  17.929  0.00  0.00    +0.000 C 
ATOM     11  C   UNL     1      -2.151  11.171  18.746  0.00  0.00    +0.000 C 
ATOM     12  C   UNL     1      -1.514  10.018  19.511  0.00  0.00    +0.000 C 
ATOM     13  C   UNL     1      -0.360  10.536  20.353  0.00  0.00    +0.000 C 
ATOM     14  C   UNL     1       0.672  11.281  19.496  0.00  0.00    +0.000 C 
ATOM     15  C   UNL     1       2.781  13.546  19.555  0.00  0.00    +0.000 C 
ATOM     16  C   UNL     1       3.346  13.775  20.959  0.00  0.00    +0.000 C 
ENDROOT
BRANCH  14  17
ATOM     17  C   UNL     1       1.467  10.293  18.601  0.00  0.00    +0.000 C 
ATOM     18  O   UNL     1       1.892  10.660  17.504  0.00  0.00    +0.000 OA
ATOM     19  N   UNL     1       1.521   8.989  19.063  0.00  0.00    +0.000 N 
ATOM     20  C   UNL     1       2.334   8.013  18.511  0.00  0.00    +0.000 A 
ATOM     21  C   UNL     1       2.269   6.626  18.804  0.00  0.00    +0.000 A 
ATOM     22  C   UNL     1       3.257   6.047  18.036  0.00  0.00    +0.000 A 
ATOM     23  O   UNL     1       3.900   7.036  17.356  0.00  0.00    +0.000 OA
ATOM     24  N   UNL     1       3.326   8.250  17.648  0.00  0.00    +0.000 NA
ATOM     25  H   UNL     1       0.970   8.742  19.876  0.00  0.00    +0.000 HD
BRANCH  22  26
ATOM     26  C   UNL     1       3.719   4.632  17.793  0.00  0.00    +0.000 C 
ATOM     27  C   UNL     1       4.771   4.624  16.669  0.00  0.00    +0.000 C 
ATOM     28  C   UNL     1       4.356   4.010  19.053  0.00  0.00    +0.000 C 
ATOM     29  C   UNL     1       2.524   3.757  17.378  0.00  0.00    +0.000 C 
ENDBRANCH  22  26
ENDBRANCH  14  17
BRANCH   1  31
ATOM     30  C   UNL     1       6.845  15.172  20.448  0.00  0.00    +0.000 C 
ATOM     31  C   UNL     1       5.922  14.950  21.633  0.00  0.00    +0.000 C 
ENDBRANCH   1  31
TORSDOF 3
ENDMDL
