MODEL 1
REMARK VINA RESULT:      -8.4      0.000      0.000
REMARK  Name = 
REMARK  13 active torsions:
REMARK  status: ('A' for Active; 'I' for Inactive)
REMARK    1  A    between atoms: C_2  and  O_25
REMARK    2  A    between atoms: N_3  and  C_4
REMARK    3  A    between atoms: C_4  and  C_5
REMARK    4  A    between atoms: C_5  and  C_6
REMARK    5  A    between atoms: C_6  and  C_7
REMARK    6  A    between atoms: C_7  and  C_8
REMARK    7  A    between atoms: C_8  and  N_9
REMARK    8  A    between atoms: C_8  and  C_21
REMARK    9  A    between atoms: C_10  and  C_12
REMARK   10  A    between atoms: C_16  and  N_17
REMARK   11  A    between atoms: N_23  and  O_24
REMARK   12  A    between atoms: O_25  and  C_26
REMARK   13  A    between atoms: C_26  and  C_27
REMARK                            x       y       z     vdW  Elec       q    Type
REMARK                         _______ _______ _______ _____ _____    ______ ____
ROOT
ATOM      1  C   UNL     1       4.525   4.785  17.731  0.00  0.00    +0.000 C 
ENDROOT
BRANCH   1   2
ATOM      2  N   UNL     1       5.105   4.331  16.465  0.00  0.00    +0.000 N 
ATOM      3  C   UNL     1       5.970   5.148  15.770  0.00  0.00    +0.000 C 
ATOM      4  O   UNL     1       6.367   6.216  16.228  0.00  0.00    +0.000 OA
ATOM      5  H   UNL     1       5.059   3.343  16.236  0.00  0.00    +0.000 HD
BRANCH   3   6
ATOM      6  C   UNL     1       6.411   4.697  14.423  0.00  0.00    +0.000 A 
ATOM      7  C   UNL     1       7.495   5.357  13.825  0.00  0.00    +0.000 A 
ATOM      8  C   UNL     1       7.871   5.067  12.511  0.00  0.00    +0.000 A 
ATOM      9  C   UNL     1       7.157   4.122  11.775  0.00  0.00    +0.000 A 
ATOM     10  C   UNL     1       6.076   3.458  12.372  0.00  0.00    +0.000 A 
ATOM     11  C   UNL     1       5.703   3.730  13.699  0.00  0.00    +0.000 A 
BRANCH  10  12
ATOM     12  N   UNL     1       5.296   2.494  11.583  0.00  0.00    +0.000 N 
ATOM     13  O   UNL     1       5.817   1.398  11.331  0.00  0.00    +0.000 OA
ATOM     14  O   UNL     1       4.164   2.838  11.218  0.00  0.00    +0.000 OA
ENDBRANCH  10  12
ENDBRANCH   3   6
ENDBRANCH   1   2
BRANCH   1  15
ATOM     15  C   UNL     1       5.193   4.090  18.931  0.00  0.00    +0.000 C 
ATOM     16  O   UNL     1       5.957   4.637  19.726  0.00  0.00    +0.000 OA
ATOM     17  N   UNL     1       4.789   2.783  19.113  0.00  0.00    +0.000 N 
ATOM     18  H   UNL     1       3.848   2.506  18.820  0.00  0.00    +0.000 HD
BRANCH  17  19
ATOM     19  O   UNL     1       5.290   2.169  20.288  0.00  0.00    +0.000 OA
ATOM     20  H   UNL     1       5.285   1.217  20.049  0.00  0.00    +0.000 HD
ENDBRANCH  17  19
ENDBRANCH   1  15
BRANCH   1  21
ATOM     21  C   UNL     1       2.993   4.680  17.715  0.00  0.00    +0.000 C 
BRANCH  21  22
ATOM     22  C   UNL     1       2.391   3.515  16.920  0.00  0.00    +0.000 C 
BRANCH  22  23
ATOM     23  C   UNL     1       2.207   2.249  17.765  0.00  0.00    +0.000 C 
BRANCH  23  24
ATOM     24  C   UNL     1       1.070   2.363  18.781  0.00  0.00    +0.000 C 
BRANCH  24  27
ATOM     25  O   UNL     1       2.401   3.294  21.114  0.00  0.00    +0.000 OA
ATOM     26  C   UNL     1       1.643   4.031  20.496  0.00  0.00    +0.000 C 
ATOM     27  N   UNL     1       0.989   3.688  19.350  0.00  0.00    +0.000 N 
ATOM     28  H   UNL     1       0.335   4.368  18.987  0.00  0.00    +0.000 HD
BRANCH  26  29
ATOM     29  O   UNL     1       1.278   5.280  20.862  0.00  0.00    +0.000 OA
BRANCH  29  30
ATOM     30  C   UNL     1       2.321   6.260  20.833  0.00  0.00    +0.000 C 
BRANCH  30  31
ATOM     31  C   UNL     1       1.839   7.540  20.199  0.00  0.00    +0.000 A 
ATOM     32  C   UNL     1       1.044   8.440  20.923  0.00  0.00    +0.000 A 
ATOM     33  C   UNL     1       0.593   9.621  20.333  0.00  0.00    +0.000 A 
ATOM     34  C   UNL     1       0.928   9.913  19.011  0.00  0.00    +0.000 A 
ATOM     35  C   UNL     1       1.720   9.028  18.283  0.00  0.00    +0.000 A 
ATOM     36  C   UNL     1       2.172   7.845  18.872  0.00  0.00    +0.000 A 
ENDBRANCH  30  31
ENDBRANCH  29  30
ENDBRANCH  26  29
ENDBRANCH  24  27
ENDBRANCH  23  24
ENDBRANCH  22  23
ENDBRANCH  21  22
ENDBRANCH   1  21
TORSDOF 13
ENDMDL
MODEL 2
REMARK VINA RESULT:      -8.2      1.410      1.970
REMARK  Name = 
REMARK  13 active torsions:
REMARK  status: ('A' for Active; 'I' for Inactive)
REMARK    1  A    between atoms: C_2  and  O_25
REMARK    2  A    between atoms: N_3  and  C_4
REMARK    3  A    between atoms: C_4  and  C_5
REMARK    4  A    between atoms: C_5  and  C_6
REMARK    5  A    between atoms: C_6  and  C_7
REMARK    6  A    between atoms: C_7  and  C_8
REMARK    7  A    between atoms: C_8  and  N_9
REMARK    8  A    between atoms: C_8  and  C_21
REMARK    9  A    between atoms: C_10  and  C_12
REMARK   10  A    between atoms: C_16  and  N_17
REMARK   11  A    between atoms: N_23  and  O_24
REMARK   12  A    between atoms: O_25  and  C_26
REMARK   13  A    between atoms: C_26  and  C_27
REMARK                            x       y       z     vdW  Elec       q    Type
REMARK                         _______ _______ _______ _____ _____    ______ ____
ROOT
ATOM      1  C   UNL     1       5.769   6.476  17.635  0.00  0.00    +0.000 C 
ENDROOT
BRANCH   1   2
ATOM      2  N   UNL     1       5.890   6.059  16.236  0.00  0.00    +0.000 N 
ATOM      3  C   UNL     1       6.590   4.917  15.915  0.00  0.00    +0.000 C 
ATOM      4  O   UNL     1       7.034   4.161  16.776  0.00  0.00    +0.000 OA
ATOM      5  H   UNL     1       5.263   6.469  15.551  0.00  0.00    +0.000 HD
BRANCH   3   6
ATOM      6  C   UNL     1       6.804   4.622  14.473  0.00  0.00    +0.000 A 
ATOM      7  C   UNL     1       7.738   5.397  13.769  0.00  0.00    +0.000 A 
ATOM      8  C   UNL     1       7.887   5.255  12.387  0.00  0.00    +0.000 A 
ATOM      9  C   UNL     1       7.092   4.346  11.691  0.00  0.00    +0.000 A 
ATOM     10  C   UNL     1       6.160   3.567  12.393  0.00  0.00    +0.000 A 
ATOM     11  C   UNL     1       6.017   3.690  13.785  0.00  0.00    +0.000 A 
BRANCH  10  12
ATOM     12  N   UNL     1       5.292   2.640  11.654  0.00  0.00    +0.000 N 
ATOM     13  O   UNL     1       4.153   3.028  11.356  0.00  0.00    +0.000 OA
ATOM     14  O   UNL     1       5.753   1.525  11.374  0.00  0.00    +0.000 OA
ENDBRANCH  10  12
ENDBRANCH   3   6
ENDBRANCH   1   2
BRANCH   1  15
ATOM     15  C   UNL     1       7.126   6.400  18.359  0.00  0.00    +0.000 C 
ATOM     16  O   UNL     1       8.062   7.179  18.183  0.00  0.00    +0.000 OA
ATOM     17  N   UNL     1       7.188   5.415  19.322  0.00  0.00    +0.000 N 
ATOM     18  H   UNL     1       6.331   5.138  19.810  0.00  0.00    +0.000 HD
BRANCH  17  19
ATOM     19  O   UNL     1       8.379   5.415  20.091  0.00  0.00    +0.000 OA
ATOM     20  H   UNL     1       9.035   5.033  19.467  0.00  0.00    +0.000 HD
ENDBRANCH  17  19
ENDBRANCH   1  15
BRANCH   1  21
ATOM     21  C   UNL     1       4.633   5.727  18.346  0.00  0.00    +0.000 C 
BRANCH  21  22
ATOM     22  C   UNL     1       3.674   4.926  17.457  0.00  0.00    +0.000 C 
BRANCH  22  23
ATOM     23  C   UNL     1       3.362   3.535  18.021  0.00  0.00    +0.000 C 
BRANCH  23  24
ATOM     24  C   UNL     1       1.978   3.440  18.661  0.00  0.00    +0.000 C 
BRANCH  24  27
ATOM     25  O   UNL     1       2.250   4.099  21.413  0.00  0.00    +0.000 OA
ATOM     26  C   UNL     1       1.734   4.889  20.633  0.00  0.00    +0.000 C 
ATOM     27  N   UNL     1       1.592   4.679  19.294  0.00  0.00    +0.000 N 
ATOM     28  H   UNL     1       1.079   5.384  18.782  0.00  0.00    +0.000 HD
BRANCH  26  29
ATOM     29  O   UNL     1       1.169   6.073  20.962  0.00  0.00    +0.000 OA
BRANCH  29  30
ATOM     30  C   UNL     1       2.045   7.205  20.925  0.00  0.00    +0.000 C 
BRANCH  30  31
ATOM     31  C   UNL     1       1.495   8.282  20.026  0.00  0.00    +0.000 A 
ATOM     32  C   UNL     1       1.946   8.408  18.704  0.00  0.00    +0.000 A 
ATOM     33  C   UNL     1       1.440   9.411  17.875  0.00  0.00    +0.000 A 
ATOM     34  C   UNL     1       0.482  10.299  18.359  0.00  0.00    +0.000 A 
ATOM     35  C   UNL     1       0.023  10.182  19.669  0.00  0.00    +0.000 A 
ATOM     36  C   UNL     1       0.529   9.180  20.501  0.00  0.00    +0.000 A 
ENDBRANCH  30  31
ENDBRANCH  29  30
ENDBRANCH  26  29
ENDBRANCH  24  27
ENDBRANCH  23  24
ENDBRANCH  22  23
ENDBRANCH  21  22
ENDBRANCH   1  21
TORSDOF 13
ENDMDL
MODEL 3
REMARK VINA RESULT:      -8.1      1.689      2.678
REMARK  Name = 
REMARK  13 active torsions:
REMARK  status: ('A' for Active; 'I' for Inactive)
REMARK    1  A    between atoms: C_2  and  O_25
REMARK    2  A    between atoms: N_3  and  C_4
REMARK    3  A    between atoms: C_4  and  C_5
REMARK    4  A    between atoms: C_5  and  C_6
REMARK    5  A    between atoms: C_6  and  C_7
REMARK    6  A    between atoms: C_7  and  C_8
REMARK    7  A    between atoms: C_8  and  N_9
REMARK    8  A    between atoms: C_8  and  C_21
REMARK    9  A    between atoms: C_10  and  C_12
REMARK   10  A    between atoms: C_16  and  N_17
REMARK   11  A    between atoms: N_23  and  O_24
REMARK   12  A    between atoms: O_25  and  C_26
REMARK   13  A    between atoms: C_26  and  C_27
REMARK                            x       y       z     vdW  Elec       q    Type
REMARK                         _______ _______ _______ _____ _____    ______ ____
ROOT
ATOM      1  C   UNL     1       5.581   4.909  18.045  0.00  0.00    +0.000 C 
ENDROOT
BRANCH   1   2
ATOM      2  N   UNL     1       6.115   4.500  16.744  0.00  0.00    +0.000 N 
ATOM      3  C   UNL     1       5.975   5.326  15.651  0.00  0.00    +0.000 C 
ATOM      4  O   UNL     1       5.509   6.458  15.745  0.00  0.00    +0.000 OA
ATOM      5  H   UNL     1       6.785   3.738  16.712  0.00  0.00    +0.000 HD
BRANCH   3   6
ATOM      6  C   UNL     1       6.405   4.797  14.328  0.00  0.00    +0.000 A 
ATOM      7  C   UNL     1       7.499   5.406  13.695  0.00  0.00    +0.000 A 
ATOM      8  C   UNL     1       7.866   5.041  12.398  0.00  0.00    +0.000 A 
ATOM      9  C   UNL     1       7.133   4.072  11.713  0.00  0.00    +0.000 A 
ATOM     10  C   UNL     1       6.042   3.460  12.346  0.00  0.00    +0.000 A 
ATOM     11  C   UNL     1       5.678   3.807  13.657  0.00  0.00    +0.000 A 
BRANCH  10  12
ATOM     12  N   UNL     1       5.243   2.470  11.609  0.00  0.00    +0.000 N 
ATOM     13  O   UNL     1       4.137   2.826  11.177  0.00  0.00    +0.000 OA
ATOM     14  O   UNL     1       5.726   1.338  11.466  0.00  0.00    +0.000 OA
ENDBRANCH  10  12
ENDBRANCH   3   6
ENDBRANCH   1   2
BRANCH   1  15
ATOM     15  C   UNL     1       6.679   5.530  18.929  0.00  0.00    +0.000 C 
ATOM     16  O   UNL     1       6.980   5.139  20.056  0.00  0.00    +0.000 OA
ATOM     17  N   UNL     1       7.391   6.535  18.307  0.00  0.00    +0.000 N 
ATOM     18  H   UNL     1       7.504   6.511  17.291  0.00  0.00    +0.000 HD
BRANCH  17  19
ATOM     19  O   UNL     1       8.490   7.027  19.054  0.00  0.00    +0.000 OA
ATOM     20  H   UNL     1       8.124   7.076  19.965  0.00  0.00    +0.000 HD
ENDBRANCH  17  19
ENDBRANCH   1  15
BRANCH   1  21
ATOM     21  C   UNL     1       4.805   3.766  18.717  0.00  0.00    +0.000 C 
BRANCH  21  22
ATOM     22  C   UNL     1       3.327   3.618  18.331  0.00  0.00    +0.000 C 
BRANCH  22  23
ATOM     23  C   UNL     1       2.405   3.491  19.549  0.00  0.00    +0.000 C 
BRANCH  23  24
ATOM     24  C   UNL     1       1.825   4.829  20.008  0.00  0.00    +0.000 C 
BRANCH  24  27
ATOM     25  O   UNL     1       1.611   7.585  20.669  0.00  0.00    +0.000 OA
ATOM     26  C   UNL     1       2.200   7.233  19.654  0.00  0.00    +0.000 C 
ATOM     27  N   UNL     1       2.385   5.938  19.273  0.00  0.00    +0.000 N 
ATOM     28  H   UNL     1       2.823   5.794  18.373  0.00  0.00    +0.000 HD
BRANCH  26  29
ATOM     29  O   UNL     1       2.717   8.054  18.713  0.00  0.00    +0.000 OA
BRANCH  29  30
ATOM     30  C   UNL     1       1.781   8.555  17.751  0.00  0.00    +0.000 C 
BRANCH  30  31
ATOM     31  C   UNL     1       1.304   9.932  18.132  0.00  0.00    +0.000 A 
ATOM     32  C   UNL     1       2.190  11.020  18.133  0.00  0.00    +0.000 A 
ATOM     33  C   UNL     1       1.748  12.294  18.493  0.00  0.00    +0.000 A 
ATOM     34  C   UNL     1       0.418  12.494  18.860  0.00  0.00    +0.000 A 
ATOM     35  C   UNL     1      -0.472  11.422  18.859  0.00  0.00    +0.000 A 
ATOM     36  C   UNL     1      -0.032  10.146  18.500  0.00  0.00    +0.000 A 
ENDBRANCH  30  31
ENDBRANCH  29  30
ENDBRANCH  26  29
ENDBRANCH  24  27
ENDBRANCH  23  24
ENDBRANCH  22  23
ENDBRANCH  21  22
ENDBRANCH   1  21
TORSDOF 13
ENDMDL
MODEL 4
REMARK VINA RESULT:      -8.0      2.605      3.829
REMARK  Name = 
REMARK  13 active torsions:
REMARK  status: ('A' for Active; 'I' for Inactive)
REMARK    1  A    between atoms: C_2  and  O_25
REMARK    2  A    between atoms: N_3  and  C_4
REMARK    3  A    between atoms: C_4  and  C_5
REMARK    4  A    between atoms: C_5  and  C_6
REMARK    5  A    between atoms: C_6  and  C_7
REMARK    6  A    between atoms: C_7  and  C_8
REMARK    7  A    between atoms: C_8  and  N_9
REMARK    8  A    between atoms: C_8  and  C_21
REMARK    9  A    between atoms: C_10  and  C_12
REMARK   10  A    between atoms: C_16  and  N_17
REMARK   11  A    between atoms: N_23  and  O_24
REMARK   12  A    between atoms: O_25  and  C_26
REMARK   13  A    between atoms: C_26  and  C_27
REMARK                            x       y       z     vdW  Elec       q    Type
REMARK                         _______ _______ _______ _____ _____    ______ ____
ROOT
ATOM      1  C   UNL     1       5.463   4.202  18.215  0.00  0.00    +0.000 C 
ENDROOT
BRANCH   1   2
ATOM      2  N   UNL     1       5.708   3.999  16.786  0.00  0.00    +0.000 N 
ATOM      3  C   UNL     1       6.828   4.541  16.193  0.00  0.00    +0.000 C 
ATOM      4  O   UNL     1       7.701   5.106  16.847  0.00  0.00    +0.000 OA
ATOM      5  H   UNL     1       5.192   3.270  16.303  0.00  0.00    +0.000 HD
BRANCH   3   6
ATOM      6  C   UNL     1       6.949   4.426  14.715  0.00  0.00    +0.000 A 
ATOM      7  C   UNL     1       7.835   5.291  14.054  0.00  0.00    +0.000 A 
ATOM      8  C   UNL     1       7.895   5.320  12.659  0.00  0.00    +0.000 A 
ATOM      9  C   UNL     1       7.059   4.495  11.909  0.00  0.00    +0.000 A 
ATOM     10  C   UNL     1       6.176   3.627  12.567  0.00  0.00    +0.000 A 
ATOM     11  C   UNL     1       6.123   3.577  13.969  0.00  0.00    +0.000 A 
BRANCH  10  12
ATOM     12  N   UNL     1       5.264   2.788  11.777  0.00  0.00    +0.000 N 
ATOM     13  O   UNL     1       4.135   3.235  11.529  0.00  0.00    +0.000 OA
ATOM     14  O   UNL     1       5.682   1.682  11.407  0.00  0.00    +0.000 OA
ENDBRANCH  10  12
ENDBRANCH   3   6
ENDBRANCH   1   2
BRANCH   1  15
ATOM     15  C   UNL     1       4.734   2.995  18.834  0.00  0.00    +0.000 C 
ATOM     16  O   UNL     1       4.793   2.669  20.019  0.00  0.00    +0.000 OA
ATOM     17  N   UNL     1       3.907   2.332  17.951  0.00  0.00    +0.000 N 
ATOM     18  H   UNL     1       3.473   2.855  17.185  0.00  0.00    +0.000 HD
BRANCH  17  19
ATOM     19  O   UNL     1       3.127   1.302  18.533  0.00  0.00    +0.000 OA
ATOM     20  H   UNL     1       2.803   1.722  19.360  0.00  0.00    +0.000 HD
ENDBRANCH  17  19
ENDBRANCH   1  15
BRANCH   1  21
ATOM     21  C   UNL     1       4.781   5.552  18.480  0.00  0.00    +0.000 C 
BRANCH  21  22
ATOM     22  C   UNL     1       3.698   5.984  17.483  0.00  0.00    +0.000 C 
BRANCH  22  23
ATOM     23  C   UNL     1       2.434   6.513  18.170  0.00  0.00    +0.000 C 
BRANCH  23  24
ATOM     24  C   UNL     1       2.404   8.037  18.286  0.00  0.00    +0.000 C 
BRANCH  24  27
ATOM     25  O   UNL     1       0.749  10.343  18.459  0.00  0.00    +0.000 OA
ATOM     26  C   UNL     1       0.908   9.617  19.433  0.00  0.00    +0.000 C 
ATOM     27  N   UNL     1       1.651   8.474  19.438  0.00  0.00    +0.000 N 
ATOM     28  H   UNL     1       1.759   8.014  20.332  0.00  0.00    +0.000 HD
BRANCH  26  29
ATOM     29  O   UNL     1       0.429   9.843  20.677  0.00  0.00    +0.000 OA
BRANCH  29  30
ATOM     30  C   UNL     1       0.509  11.199  21.131  0.00  0.00    +0.000 C 
BRANCH  30  31
ATOM     31  C   UNL     1      -0.846  11.707  21.549  0.00  0.00    +0.000 A 
ATOM     32  C   UNL     1      -1.716  12.278  20.608  0.00  0.00    +0.000 A 
ATOM     33  C   UNL     1      -2.969  12.754  20.998  0.00  0.00    +0.000 A 
ATOM     34  C   UNL     1      -3.364  12.669  22.332  0.00  0.00    +0.000 A 
ATOM     35  C   UNL     1      -2.510  12.102  23.275  0.00  0.00    +0.000 A 
ATOM     36  C   UNL     1      -1.255  11.625  22.887  0.00  0.00    +0.000 A 
ENDBRANCH  30  31
ENDBRANCH  29  30
ENDBRANCH  26  29
ENDBRANCH  24  27
ENDBRANCH  23  24
ENDBRANCH  22  23
ENDBRANCH  21  22
ENDBRANCH   1  21
TORSDOF 13
ENDMDL
MODEL 5
REMARK VINA RESULT:      -7.9      2.529      3.688
REMARK  Name = 
REMARK  13 active torsions:
REMARK  status: ('A' for Active; 'I' for Inactive)
REMARK    1  A    between atoms: C_2  and  O_25
REMARK    2  A    between atoms: N_3  and  C_4
REMARK    3  A    between atoms: C_4  and  C_5
REMARK    4  A    between atoms: C_5  and  C_6
REMARK    5  A    between atoms: C_6  and  C_7
REMARK    6  A    between atoms: C_7  and  C_8
REMARK    7  A    between atoms: C_8  and  N_9
REMARK    8  A    between atoms: C_8  and  C_21
REMARK    9  A    between atoms: C_10  and  C_12
REMARK   10  A    between atoms: C_16  and  N_17
REMARK   11  A    between atoms: N_23  and  O_24
REMARK   12  A    between atoms: O_25  and  C_26
REMARK   13  A    between atoms: C_26  and  C_27
REMARK                            x       y       z     vdW  Elec       q    Type
REMARK                         _______ _______ _______ _____ _____    ______ ____
ROOT
ATOM      1  C   UNL     1       4.518   4.722  17.906  0.00  0.00    +0.000 C 
ENDROOT
BRANCH   1   2
ATOM      2  N   UNL     1       4.980   4.350  16.567  0.00  0.00    +0.000 N 
ATOM      3  C   UNL     1       6.177   4.837  16.090  0.00  0.00    +0.000 C 
ATOM      4  O   UNL     1       6.939   5.497  16.794  0.00  0.00    +0.000 OA
ATOM      5  H   UNL     1       4.546   3.556  16.106  0.00  0.00    +0.000 HD
BRANCH   3   6
ATOM      6  C   UNL     1       6.525   4.545  14.674  0.00  0.00    +0.000 A 
ATOM      7  C   UNL     1       7.567   5.276  14.083  0.00  0.00    +0.000 A 
ATOM      8  C   UNL     1       7.852   5.139  12.722  0.00  0.00    +0.000 A 
ATOM      9  C   UNL     1       7.088   4.280  11.934  0.00  0.00    +0.000 A 
ATOM     10  C   UNL     1       6.048   3.546  12.523  0.00  0.00    +0.000 A 
ATOM     11  C   UNL     1       5.767   3.663  13.894  0.00  0.00    +0.000 A 
BRANCH  10  12
ATOM     12  N   UNL     1       5.215   2.674  11.684  0.00  0.00    +0.000 N 
ATOM     13  O   UNL     1       4.108   3.101  11.326  0.00  0.00    +0.000 OA
ATOM     14  O   UNL     1       5.672   1.561  11.386  0.00  0.00    +0.000 OA
ENDBRANCH  10  12
ENDBRANCH   3   6
ENDBRANCH   1   2
BRANCH   1  15
ATOM     15  C   UNL     1       4.217   3.475  18.759  0.00  0.00    +0.000 C 
ATOM     16  O   UNL     1       3.120   2.925  18.838  0.00  0.00    +0.000 OA
ATOM     17  N   UNL     1       5.329   2.945  19.381  0.00  0.00    +0.000 N 
ATOM     18  H   UNL     1       6.247   3.055  18.941  0.00  0.00    +0.000 HD
BRANCH  17  19
ATOM     19  O   UNL     1       5.097   1.723  20.061  0.00  0.00    +0.000 OA
ATOM     20  H   UNL     1       5.643   1.088  19.549  0.00  0.00    +0.000 HD
ENDBRANCH  17  19
ENDBRANCH   1  15
BRANCH   1  21
ATOM     21  C   UNL     1       3.363   5.732  17.839  0.00  0.00    +0.000 C 
BRANCH  21  22
ATOM     22  C   UNL     1       3.734   7.181  17.498  0.00  0.00    +0.000 C 
BRANCH  22  23
ATOM     23  C   UNL     1       2.617   8.176  17.833  0.00  0.00    +0.000 C 
BRANCH  23  24
ATOM     24  C   UNL     1       2.043   7.987  19.237  0.00  0.00    +0.000 C 
BRANCH  24  27
ATOM     25  O   UNL     1       1.126   8.585  21.861  0.00  0.00    +0.000 OA
ATOM     26  C   UNL     1       0.782   9.276  20.909  0.00  0.00    +0.000 C 
ATOM     27  N   UNL     1       1.196   9.090  19.624  0.00  0.00    +0.000 N 
ATOM     28  H   UNL     1       0.772   9.687  18.927  0.00  0.00    +0.000 HD
BRANCH  26  29
ATOM     29  O   UNL     1      -0.103  10.298  20.950  0.00  0.00    +0.000 OA
BRANCH  29  30
ATOM     30  C   UNL     1      -0.485  10.833  19.679  0.00  0.00    +0.000 C 
BRANCH  30  31
ATOM     31  C   UNL     1      -0.614  12.333  19.743  0.00  0.00    +0.000 A 
ATOM     32  C   UNL     1      -1.270  12.947  20.820  0.00  0.00    +0.000 A 
ATOM     33  C   UNL     1      -1.395  14.336  20.875  0.00  0.00    +0.000 A 
ATOM     34  C   UNL     1      -0.869  15.126  19.854  0.00  0.00    +0.000 A 
ATOM     35  C   UNL     1      -0.212  14.527  18.781  0.00  0.00    +0.000 A 
ATOM     36  C   UNL     1      -0.087  13.137  18.723  0.00  0.00    +0.000 A 
ENDBRANCH  30  31
ENDBRANCH  29  30
ENDBRANCH  26  29
ENDBRANCH  24  27
ENDBRANCH  23  24
ENDBRANCH  22  23
ENDBRANCH  21  22
ENDBRANCH   1  21
TORSDOF 13
ENDMDL
MODEL 6
REMARK VINA RESULT:      -7.9      4.857      7.875
REMARK  Name = 
REMARK  13 active torsions:
REMARK  status: ('A' for Active; 'I' for Inactive)
REMARK    1  A    between atoms: C_2  and  O_25
REMARK    2  A    between atoms: N_3  and  C_4
REMARK    3  A    between atoms: C_4  and  C_5
REMARK    4  A    between atoms: C_5  and  C_6
REMARK    5  A    between atoms: C_6  and  C_7
REMARK    6  A    between atoms: C_7  and  C_8
REMARK    7  A    between atoms: C_8  and  N_9
REMARK    8  A    between atoms: C_8  and  C_21
REMARK    9  A    between atoms: C_10  and  C_12
REMARK   10  A    between atoms: C_16  and  N_17
REMARK   11  A    between atoms: N_23  and  O_24
REMARK   12  A    between atoms: O_25  and  C_26
REMARK   13  A    between atoms: C_26  and  C_27
REMARK                            x       y       z     vdW  Elec       q    Type
REMARK                         _______ _______ _______ _____ _____    ______ ____
ROOT
ATOM      1  C   UNL     1       3.919   3.637  17.629  0.00  0.00    +0.000 C 
ENDROOT
BRANCH   1   2
ATOM      2  N   UNL     1       3.558   4.822  18.410  0.00  0.00    +0.000 N 
ATOM      3  C   UNL     1       2.318   5.401  18.252  0.00  0.00    +0.000 C 
ATOM      4  O   UNL     1       1.447   4.894  17.550  0.00  0.00    +0.000 OA
ATOM      5  H   UNL     1       4.118   5.057  19.224  0.00  0.00    +0.000 HD
BRANCH   3   6
ATOM      6  C   UNL     1       2.060   6.684  18.961  0.00  0.00    +0.000 A 
ATOM      7  C   UNL     1       1.960   6.659  20.360  0.00  0.00    +0.000 A 
ATOM      8  C   UNL     1       1.590   7.804  21.069  0.00  0.00    +0.000 A 
ATOM      9  C   UNL     1       1.302   8.984  20.384  0.00  0.00    +0.000 A 
ATOM     10  C   UNL     1       1.406   9.013  18.986  0.00  0.00    +0.000 A 
ATOM     11  C   UNL     1       1.796   7.871  18.267  0.00  0.00    +0.000 A 
BRANCH  10  12
ATOM     12  N   UNL     1       1.061  10.243  18.261  0.00  0.00    +0.000 N 
ATOM     13  O   UNL     1       0.037  10.236  17.563  0.00  0.00    +0.000 OA
ATOM     14  O   UNL     1       1.819  11.215  18.393  0.00  0.00    +0.000 OA
ENDBRANCH  10  12
ENDBRANCH   3   6
ENDBRANCH   1   2
BRANCH   1  15
ATOM     15  C   UNL     1       4.126   2.412  18.538  0.00  0.00    +0.000 C 
ATOM     16  O   UNL     1       3.570   1.324  18.390  0.00  0.00    +0.000 OA
ATOM     17  N   UNL     1       5.084   2.597  19.513  0.00  0.00    +0.000 N 
ATOM     18  H   UNL     1       5.862   3.238  19.334  0.00  0.00    +0.000 HD
BRANCH  17  19
ATOM     19  O   UNL     1       5.383   1.439  20.274  0.00  0.00    +0.000 OA
ATOM     20  H   UNL     1       6.222   1.128  19.868  0.00  0.00    +0.000 HD
ENDBRANCH  17  19
ENDBRANCH   1  15
BRANCH   1  21
ATOM     21  C   UNL     1       5.096   3.926  16.686  0.00  0.00    +0.000 C 
BRANCH  21  22
ATOM     22  C   UNL     1       4.994   5.193  15.826  0.00  0.00    +0.000 C 
BRANCH  22  23
ATOM     23  C   UNL     1       5.508   6.444  16.548  0.00  0.00    +0.000 C 
BRANCH  23  24
ATOM     24  C   UNL     1       7.019   6.428  16.780  0.00  0.00    +0.000 C 
BRANCH  24  27
ATOM     25  O   UNL     1       8.515   7.361  19.010  0.00  0.00    +0.000 OA
ATOM     26  C   UNL     1       8.228   8.120  18.092  0.00  0.00    +0.000 C 
ATOM     27  N   UNL     1       7.548   7.758  16.968  0.00  0.00    +0.000 N 
ATOM     28  H   UNL     1       7.313   8.504  16.327  0.00  0.00    +0.000 HD
BRANCH  26  29
ATOM     29  O   UNL     1       8.481   9.448  18.053  0.00  0.00    +0.000 OA
BRANCH  29  30
ATOM     30  C   UNL     1       9.159   9.980  19.197  0.00  0.00    +0.000 C 
BRANCH  30  31
ATOM     31  C   UNL     1       9.618  11.392  18.941  0.00  0.00    +0.000 A 
ATOM     32  C   UNL     1       9.364  12.405  19.877  0.00  0.00    +0.000 A 
ATOM     33  C   UNL     1       9.784  13.714  19.635  0.00  0.00    +0.000 A 
ATOM     34  C   UNL     1      10.458  14.025  18.455  0.00  0.00    +0.000 A 
ATOM     35  C   UNL     1      10.719  13.026  17.520  0.00  0.00    +0.000 A 
ATOM     36  C   UNL     1      10.299  11.716  17.759  0.00  0.00    +0.000 A 
ENDBRANCH  30  31
ENDBRANCH  29  30
ENDBRANCH  26  29
ENDBRANCH  24  27
ENDBRANCH  23  24
ENDBRANCH  22  23
ENDBRANCH  21  22
ENDBRANCH   1  21
TORSDOF 13
ENDMDL
MODEL 7
REMARK VINA RESULT:      -7.8      1.936      3.785
REMARK  Name = 
REMARK  13 active torsions:
REMARK  status: ('A' for Active; 'I' for Inactive)
REMARK    1  A    between atoms: C_2  and  O_25
REMARK    2  A    between atoms: N_3  and  C_4
REMARK    3  A    between atoms: C_4  and  C_5
REMARK    4  A    between atoms: C_5  and  C_6
REMARK    5  A    between atoms: C_6  and  C_7
REMARK    6  A    between atoms: C_7  and  C_8
REMARK    7  A    between atoms: C_8  and  N_9
REMARK    8  A    between atoms: C_8  and  C_21
REMARK    9  A    between atoms: C_10  and  C_12
REMARK   10  A    between atoms: C_16  and  N_17
REMARK   11  A    between atoms: N_23  and  O_24
REMARK   12  A    between atoms: O_25  and  C_26
REMARK   13  A    between atoms: C_26  and  C_27
REMARK                            x       y       z     vdW  Elec       q    Type
REMARK                         _______ _______ _______ _____ _____    ______ ____
ROOT
ATOM      1  C   UNL     1       6.023   6.663  17.661  0.00  0.00    +0.000 C 
ENDROOT
BRANCH   1   2
ATOM      2  N   UNL     1       6.149   6.255  16.260  0.00  0.00    +0.000 N 
ATOM      3  C   UNL     1       6.511   4.963  15.948  0.00  0.00    +0.000 C 
ATOM      4  O   UNL     1       6.630   4.094  16.809  0.00  0.00    +0.000 OA
ATOM      5  H   UNL     1       5.738   6.844  15.543  0.00  0.00    +0.000 HD
BRANCH   3   6
ATOM      6  C   UNL     1       6.766   4.644  14.518  0.00  0.00    +0.000 A 
ATOM      7  C   UNL     1       7.743   5.386  13.837  0.00  0.00    +0.000 A 
ATOM      8  C   UNL     1       7.935   5.223  12.463  0.00  0.00    +0.000 A 
ATOM      9  C   UNL     1       7.139   4.326  11.751  0.00  0.00    +0.000 A 
ATOM     10  C   UNL     1       6.164   3.581  12.430  0.00  0.00    +0.000 A 
ATOM     11  C   UNL     1       5.978   3.725  13.814  0.00  0.00    +0.000 A 
BRANCH  10  12
ATOM     12  N   UNL     1       5.297   2.668  11.672  0.00  0.00    +0.000 N 
ATOM     13  O   UNL     1       4.162   3.065  11.371  0.00  0.00    +0.000 OA
ATOM     14  O   UNL     1       5.755   1.554  11.382  0.00  0.00    +0.000 OA
ENDBRANCH  10  12
ENDBRANCH   3   6
ENDBRANCH   1   2
BRANCH   1  15
ATOM     15  C   UNL     1       7.351   6.478  18.418  0.00  0.00    +0.000 C 
ATOM     16  O   UNL     1       8.318   7.234  18.337  0.00  0.00    +0.000 OA
ATOM     17  N   UNL     1       7.347   5.415  19.297  0.00  0.00    +0.000 N 
ATOM     18  H   UNL     1       6.465   5.131  19.733  0.00  0.00    +0.000 HD
BRANCH  17  19
ATOM     19  O   UNL     1       8.510   5.308  20.099  0.00  0.00    +0.000 OA
ATOM     20  H   UNL     1       8.138   5.217  21.003  0.00  0.00    +0.000 HD
ENDBRANCH  17  19
ENDBRANCH   1  15
BRANCH   1  21
ATOM     21  C   UNL     1       4.816   5.993  18.333  0.00  0.00    +0.000 C 
BRANCH  21  22
ATOM     22  C   UNL     1       3.497   6.006  17.551  0.00  0.00    +0.000 C 
BRANCH  22  23
ATOM     23  C   UNL     1       2.265   6.050  18.463  0.00  0.00    +0.000 C 
BRANCH  23  24
ATOM     24  C   UNL     1       2.589   6.481  19.894  0.00  0.00    +0.000 C 
BRANCH  24  27
ATOM     25  O   UNL     1       0.585   4.582  20.573  0.00  0.00    +0.000 OA
ATOM     26  C   UNL     1       1.705   4.508  21.065  0.00  0.00    +0.000 C 
ATOM     27  N   UNL     1       2.739   5.347  20.775  0.00  0.00    +0.000 N 
ATOM     28  H   UNL     1       3.585   5.217  21.313  0.00  0.00    +0.000 HD
BRANCH  26  29
ATOM     29  O   UNL     1       2.096   3.627  22.014  0.00  0.00    +0.000 OA
BRANCH  29  30
ATOM     30  C   UNL     1       2.960   2.579  21.562  0.00  0.00    +0.000 C 
BRANCH  30  31
ATOM     31  C   UNL     1       2.874   2.417  20.067  0.00  0.00    +0.000 A 
ATOM     32  C   UNL     1       4.016   2.565  19.266  0.00  0.00    +0.000 A 
ATOM     33  C   UNL     1       3.933   2.422  17.880  0.00  0.00    +0.000 A 
ATOM     34  C   UNL     1       2.708   2.135  17.279  0.00  0.00    +0.000 A 
ATOM     35  C   UNL     1       1.568   1.983  18.065  0.00  0.00    +0.000 A 
ATOM     36  C   UNL     1       1.648   2.126  19.452  0.00  0.00    +0.000 A 
ENDBRANCH  30  31
ENDBRANCH  29  30
ENDBRANCH  26  29
ENDBRANCH  24  27
ENDBRANCH  23  24
ENDBRANCH  22  23
ENDBRANCH  21  22
ENDBRANCH   1  21
TORSDOF 13
ENDMDL
MODEL 8
REMARK VINA RESULT:      -7.8      4.704      8.151
REMARK  Name = 
REMARK  13 active torsions:
REMARK  status: ('A' for Active; 'I' for Inactive)
REMARK    1  A    between atoms: C_2  and  O_25
REMARK    2  A    between atoms: N_3  and  C_4
REMARK    3  A    between atoms: C_4  and  C_5
REMARK    4  A    between atoms: C_5  and  C_6
REMARK    5  A    between atoms: C_6  and  C_7
REMARK    6  A    between atoms: C_7  and  C_8
REMARK    7  A    between atoms: C_8  and  N_9
REMARK    8  A    between atoms: C_8  and  C_21
REMARK    9  A    between atoms: C_10  and  C_12
REMARK   10  A    between atoms: C_16  and  N_17
REMARK   11  A    between atoms: N_23  and  O_24
REMARK   12  A    between atoms: O_25  and  C_26
REMARK   13  A    between atoms: C_26  and  C_27
REMARK                            x       y       z     vdW  Elec       q    Type
REMARK                         _______ _______ _______ _____ _____    ______ ____
ROOT
ATOM      1  C   UNL     1       3.554   4.036  18.588  0.00  0.00    +0.000 C 
ENDROOT
BRANCH   1   2
ATOM      2  N   UNL     1       3.147   5.252  19.294  0.00  0.00    +0.000 N 
ATOM      3  C   UNL     1       2.126   6.031  18.796  0.00  0.00    +0.000 C 
ATOM      4  O   UNL     1       1.457   5.685  17.825  0.00  0.00    +0.000 OA
ATOM      5  H   UNL     1       3.448   5.379  20.256  0.00  0.00    +0.000 HD
BRANCH   3   6
ATOM      6  C   UNL     1       1.854   7.328  19.472  0.00  0.00    +0.000 A 
ATOM      7  C   UNL     1       1.666   7.323  20.863  0.00  0.00    +0.000 A 
ATOM      8  C   UNL     1       1.280   8.486  21.534  0.00  0.00    +0.000 A 
ATOM      9  C   UNL     1       1.063   9.663  20.820  0.00  0.00    +0.000 A 
ATOM     10  C   UNL     1       1.254   9.671  19.430  0.00  0.00    +0.000 A 
ATOM     11  C   UNL     1       1.661   8.511  18.750  0.00  0.00    +0.000 A 
BRANCH  10  12
ATOM     12  N   UNL     1       0.984  10.900  18.671  0.00  0.00    +0.000 N 
ATOM     13  O   UNL     1       1.930  11.674  18.469  0.00  0.00    +0.000 OA
ATOM     14  O   UNL     1      -0.177  11.086  18.281  0.00  0.00    +0.000 OA
ENDBRANCH  10  12
ENDBRANCH   3   6
ENDBRANCH   1   2
BRANCH   1  15
ATOM     15  C   UNL     1       3.817   2.881  19.572  0.00  0.00    +0.000 C 
ATOM     16  O   UNL     1       2.944   2.258  20.175  0.00  0.00    +0.000 OA
ATOM     17  N   UNL     1       5.145   2.520  19.664  0.00  0.00    +0.000 N 
ATOM     18  H   UNL     1       5.755   2.650  18.853  0.00  0.00    +0.000 HD
BRANCH  17  19
ATOM     19  O   UNL     1       5.391   1.374  20.462  0.00  0.00    +0.000 OA
ATOM     20  H   UNL     1       6.365   1.407  20.587  0.00  0.00    +0.000 HD
ENDBRANCH  17  19
ENDBRANCH   1  15
BRANCH   1  21
ATOM     21  C   UNL     1       4.712   4.311  17.617  0.00  0.00    +0.000 C 
BRANCH  21  22
ATOM     22  C   UNL     1       4.676   5.647  16.865  0.00  0.00    +0.000 C 
BRANCH  22  23
ATOM     23  C   UNL     1       5.855   5.818  15.899  0.00  0.00    +0.000 C 
BRANCH  23  24
ATOM     24  C   UNL     1       7.193   6.019  16.611  0.00  0.00    +0.000 C 
BRANCH  24  27
ATOM     25  O   UNL     1       8.424   7.212  18.879  0.00  0.00    +0.000 OA
ATOM     26  C   UNL     1       8.067   7.901  17.931  0.00  0.00    +0.000 C 
ATOM     27  N   UNL     1       7.502   7.418  16.788  0.00  0.00    +0.000 N 
ATOM     28  H   UNL     1       7.186   8.107  16.119  0.00  0.00    +0.000 HD
BRANCH  26  29
ATOM     29  O   UNL     1       8.116   9.251  17.869  0.00  0.00    +0.000 OA
BRANCH  29  30
ATOM     30  C   UNL     1       8.904   9.886  18.882  0.00  0.00    +0.000 C 
BRANCH  30  31
ATOM     31  C   UNL     1       9.545  11.143  18.355  0.00  0.00    +0.000 A 
ATOM     32  C   UNL     1      10.938  11.226  18.208  0.00  0.00    +0.000 A 
ATOM     33  C   UNL     1      11.531  12.394  17.725  0.00  0.00    +0.000 A 
ATOM     34  C   UNL     1      10.741  13.492  17.389  0.00  0.00    +0.000 A 
ATOM     35  C   UNL     1       9.357  13.420  17.528  0.00  0.00    +0.000 A 
ATOM     36  C   UNL     1       8.760  12.253  18.011  0.00  0.00    +0.000 A 
ENDBRANCH  30  31
ENDBRANCH  29  30
ENDBRANCH  26  29
ENDBRANCH  24  27
ENDBRANCH  23  24
ENDBRANCH  22  23
ENDBRANCH  21  22
ENDBRANCH   1  21
TORSDOF 13
ENDMDL
MODEL 9
REMARK VINA RESULT:      -7.8      2.664      3.741
REMARK  Name = 
REMARK  13 active torsions:
REMARK  status: ('A' for Active; 'I' for Inactive)
REMARK    1  A    between atoms: C_2  and  O_25
REMARK    2  A    between atoms: N_3  and  C_4
REMARK    3  A    between atoms: C_4  and  C_5
REMARK    4  A    between atoms: C_5  and  C_6
REMARK    5  A    between atoms: C_6  and  C_7
REMARK    6  A    between atoms: C_7  and  C_8
REMARK    7  A    between atoms: C_8  and  N_9
REMARK    8  A    between atoms: C_8  and  C_21
REMARK    9  A    between atoms: C_10  and  C_12
REMARK   10  A    between atoms: C_16  and  N_17
REMARK   11  A    between atoms: N_23  and  O_24
REMARK   12  A    between atoms: O_25  and  C_26
REMARK   13  A    between atoms: C_26  and  C_27
REMARK                            x       y       z     vdW  Elec       q    Type
REMARK                         _______ _______ _______ _____ _____    ______ ____
ROOT
ATOM      1  C   UNL     1       3.751   3.964  17.950  0.00  0.00    +0.000 C 
ENDROOT
BRANCH   1   2
ATOM      2  N   UNL     1       4.230   3.925  16.566  0.00  0.00    +0.000 N 
ATOM      3  C   UNL     1       5.550   4.201  16.284  0.00  0.00    +0.000 C 
ATOM      4  O   UNL     1       6.382   4.377  17.170  0.00  0.00    +0.000 OA
ATOM      5  H   UNL     1       3.656   3.464  15.867  0.00  0.00    +0.000 HD
BRANCH   3   6
ATOM      6  C   UNL     1       5.945   4.290  14.853  0.00  0.00    +0.000 A 
ATOM      7  C   UNL     1       5.375   3.380  13.950  0.00  0.00    +0.000 A 
ATOM      8  C   UNL     1       5.804   3.329  12.622  0.00  0.00    +0.000 A 
ATOM      9  C   UNL     1       6.819   4.178  12.185  0.00  0.00    +0.000 A 
ATOM     10  C   UNL     1       7.388   5.092  13.084  0.00  0.00    +0.000 A 
ATOM     11  C   UNL     1       6.949   5.163  14.416  0.00  0.00    +0.000 A 
BRANCH  10  12
ATOM     12  N   UNL     1       8.487   5.957  12.636  0.00  0.00    +0.000 N 
ATOM     13  O   UNL     1       9.549   5.920  13.273  0.00  0.00    +0.000 OA
ATOM     14  O   UNL     1       8.283   6.673  11.646  0.00  0.00    +0.000 OA
ENDBRANCH  10  12
ENDBRANCH   3   6
ENDBRANCH   1   2
BRANCH   1  15
ATOM     15  C   UNL     1       3.979   2.615  18.657  0.00  0.00    +0.000 C 
ATOM     16  O   UNL     1       3.398   1.567  18.377  0.00  0.00    +0.000 OA
ATOM     17  N   UNL     1       4.985   2.644  19.601  0.00  0.00    +0.000 N 
ATOM     18  H   UNL     1       5.764   3.296  19.480  0.00  0.00    +0.000 HD
BRANCH  17  19
ATOM     19  O   UNL     1       5.299   1.383  20.167  0.00  0.00    +0.000 OA
ATOM     20  H   UNL     1       5.319   0.796  19.380  0.00  0.00    +0.000 HD
ENDBRANCH  17  19
ENDBRANCH   1  15
BRANCH   1  21
ATOM     21  C   UNL     1       2.307   4.480  18.029  0.00  0.00    +0.000 C 
BRANCH  21  22
ATOM     22  C   UNL     1       1.546   4.198  19.330  0.00  0.00    +0.000 C 
BRANCH  22  23
ATOM     23  C   UNL     1       1.410   5.439  20.221  0.00  0.00    +0.000 C 
BRANCH  23  24
ATOM     24  C   UNL     1       2.486   6.492  19.955  0.00  0.00    +0.000 C 
BRANCH  24  27
ATOM     25  O   UNL     1       1.604   8.668  21.558  0.00  0.00    +0.000 OA
ATOM     26  C   UNL     1       1.493   8.709  20.339  0.00  0.00    +0.000 C 
ATOM     27  N   UNL     1       1.918   7.734  19.486  0.00  0.00    +0.000 N 
ATOM     28  H   UNL     1       1.693   7.865  18.509  0.00  0.00    +0.000 HD
BRANCH  26  29
ATOM     29  O   UNL     1       0.888   9.689  19.630  0.00  0.00    +0.000 OA
BRANCH  29  30
ATOM     30  C   UNL     1      -0.428  10.043  20.070  0.00  0.00    +0.000 C 
BRANCH  30  31
ATOM     31  C   UNL     1      -1.314  10.379  18.899  0.00  0.00    +0.000 A 
ATOM     32  C   UNL     1      -1.288   9.595  17.736  0.00  0.00    +0.000 A 
ATOM     33  C   UNL     1      -2.104   9.912  16.649  0.00  0.00    +0.000 A 
ATOM     34  C   UNL     1      -2.952  11.017  16.710  0.00  0.00    +0.000 A 
ATOM     35  C   UNL     1      -2.989  11.801  17.861  0.00  0.00    +0.000 A 
ATOM     36  C   UNL     1      -2.172  11.487  18.950  0.00  0.00    +0.000 A 
ENDBRANCH  30  31
ENDBRANCH  29  30
ENDBRANCH  26  29
ENDBRANCH  24  27
ENDBRANCH  23  24
ENDBRANCH  22  23
ENDBRANCH  21  22
ENDBRANCH   1  21
TORSDOF 13
ENDMDL
