MODEL 1
REMARK VINA RESULT:      -9.8      0.000      0.000
REMARK  Name = 
REMARK  8 active torsions:
REMARK  status: ('A' for Active; 'I' for Inactive)
REMARK    1  A    between atoms: C_1  and  O_2
REMARK    2  A    between atoms: O_2  and  C_3
REMARK    3  A    between atoms: C_6  and  N_7
REMARK    4  A    between atoms: N_7  and  C_8
REMARK    5  A    between atoms: C_9  and  C_10
REMARK    6  A    between atoms: C_17  and  C_18
REMARK    7  A    between atoms: C_21  and  S_22
REMARK    8  A    between atoms: S_22  and  C_23
REMARK                            x       y       z     vdW  Elec       q    Type
REMARK                         _______ _______ _______ _____ _____    ______ ____
ROOT
ATOM      1  C   UNL     1       3.406   4.645  18.847  0.00  0.00    +0.000 A 
ATOM      2  C   UNL     1       3.247   3.398  19.463  0.00  0.00    +0.000 A 
ATOM      3  C   UNL     1       2.418   3.317  20.570  0.00  0.00    +0.000 A 
ATOM      4  N   UNL     1       1.774   4.378  21.121  0.00  0.00    +0.000 NA
ATOM      5  C   UNL     1       1.889   5.571  20.518  0.00  0.00    +0.000 A 
ATOM      6  C   UNL     1       1.227   6.664  21.080  0.00  0.00    +0.000 A 
ATOM      7  C   UNL     1       1.248   7.958  20.514  0.00  0.00    +0.000 A 
ATOM      8  C   UNL     1       1.957   8.119  19.333  0.00  0.00    +0.000 A 
ATOM      9  C   UNL     1       2.608   7.034  18.746  0.00  0.00    +0.000 A 
ATOM     10  C   UNL     1       2.651   5.757  19.356  0.00  0.00    +0.000 A 
ENDROOT
BRANCH   7  11
ATOM     11  C   UNL     1       0.490   9.082  21.101  0.00  0.00    +0.000 A 
ATOM     12  C   UNL     1       0.023  10.156  20.318  0.00  0.00    +0.000 A 
ATOM     13  C   UNL     1      -0.746  11.185  20.871  0.00  0.00    +0.000 A 
ATOM     14  C   UNL     1      -1.052  11.150  22.232  0.00  0.00    +0.000 A 
ATOM     15  C   UNL     1      -0.583  10.119  23.039  0.00  0.00    +0.000 A 
ATOM     16  C   UNL     1       0.171   9.091  22.471  0.00  0.00    +0.000 A 
BRANCH  14  17
ATOM     17  S   UNL     1      -2.036  12.436  22.951  0.00  0.00    +0.000 S 
ATOM     18  C   UNL     1      -2.673  13.296  21.541  0.00  0.00    +0.000 C 
ATOM     19  O   UNL     1      -3.149  11.802  23.642  0.00  0.00    +0.000 OA
ATOM     20  O   UNL     1      -1.141  13.330  23.664  0.00  0.00    +0.000 OA
ENDBRANCH  14  17
ENDBRANCH   7  11
BRANCH   2  21
ATOM     21  C   UNL     1       3.899   2.131  19.050  0.00  0.00    +0.000 C 
ATOM     22  N   UNL     1       4.926   1.657  19.816  0.00  0.00    +0.000 N 
ATOM     23  O   UNL     1       3.508   1.501  18.074  0.00  0.00    +0.000 OA
ATOM     24  H   UNL     1       5.066   1.996  20.761  0.00  0.00    +0.000 HD
ATOM     25  H   UNL     1       5.246   0.719  19.604  0.00  0.00    +0.000 HD
ENDBRANCH   2  21
BRANCH   1  26
ATOM     26  N   UNL     1       4.361   4.826  17.802  0.00  0.00    +0.000 N 
ATOM     27  H   UNL     1       4.123   4.373  16.923  0.00  0.00    +0.000 HD
BRANCH  26  31
ATOM     28  C   UNL     1       7.806   7.247  18.234  0.00  0.00    +0.000 A 
ATOM     29  C   UNL     1       6.774   7.615  17.365  0.00  0.00    +0.000 A 
ATOM     30  C   UNL     1       5.662   6.781  17.170  0.00  0.00    +0.000 A 
ATOM     31  C   UNL     1       5.572   5.551  17.827  0.00  0.00    +0.000 A 
ATOM     32  C   UNL     1       6.634   5.170  18.658  0.00  0.00    +0.000 A 
ATOM     33  C   UNL     1       7.715   6.017  18.882  0.00  0.00    +0.000 A 
ATOM     34  F   UNL     1       8.625   5.621  19.783  0.00  0.00    +0.000 F 
BRANCH  28  36
ATOM     35  C   UNL     1       8.446   9.531  18.162  0.00  0.00    +0.000 C 
ATOM     36  O   UNL     1       8.810   8.167  18.366  0.00  0.00    +0.000 OA
ENDBRANCH  28  36
ENDBRANCH  26  31
ENDBRANCH   1  26
TORSDOF 6
ENDMDL
MODEL 2
REMARK VINA RESULT:      -9.7      0.675      1.152
REMARK  Name = 
REMARK  8 active torsions:
REMARK  status: ('A' for Active; 'I' for Inactive)
REMARK    1  A    between atoms: C_1  and  O_2
REMARK    2  A    between atoms: O_2  and  C_3
REMARK    3  A    between atoms: C_6  and  N_7
REMARK    4  A    between atoms: N_7  and  C_8
REMARK    5  A    between atoms: C_9  and  C_10
REMARK    6  A    between atoms: C_17  and  C_18
REMARK    7  A    between atoms: C_21  and  S_22
REMARK    8  A    between atoms: S_22  and  C_23
REMARK                            x       y       z     vdW  Elec       q    Type
REMARK                         _______ _______ _______ _____ _____    ______ ____
ROOT
ATOM      1  C   UNL     1       3.387   4.676  18.877  0.00  0.00    +0.000 A 
ATOM      2  C   UNL     1       3.226   3.447  19.528  0.00  0.00    +0.000 A 
ATOM      3  C   UNL     1       2.395   3.397  20.635  0.00  0.00    +0.000 A 
ATOM      4  N   UNL     1       1.750   4.474  21.154  0.00  0.00    +0.000 NA
ATOM      5  C   UNL     1       1.867   5.649  20.518  0.00  0.00    +0.000 A 
ATOM      6  C   UNL     1       1.204   6.758  21.047  0.00  0.00    +0.000 A 
ATOM      7  C   UNL     1       1.227   8.035  20.446  0.00  0.00    +0.000 A 
ATOM      8  C   UNL     1       1.938   8.163  19.262  0.00  0.00    +0.000 A 
ATOM      9  C   UNL     1       2.590   7.063  18.708  0.00  0.00    +0.000 A 
ATOM     10  C   UNL     1       2.631   5.803  19.354  0.00  0.00    +0.000 A 
ENDROOT
BRANCH   7  11
ATOM     11  C   UNL     1       0.467   9.175  20.999  0.00  0.00    +0.000 A 
ATOM     12  C   UNL     1       0.074   9.224  22.351  0.00  0.00    +0.000 A 
ATOM     13  C   UNL     1      -0.593  10.334  22.881  0.00  0.00    +0.000 A 
ATOM     14  C   UNL     1      -0.881  11.416  22.048  0.00  0.00    +0.000 A 
ATOM     15  C   UNL     1      -0.532  11.388  20.701  0.00  0.00    +0.000 A 
ATOM     16  C   UNL     1       0.145  10.280  20.190  0.00  0.00    +0.000 A 
BRANCH  14  17
ATOM     17  S   UNL     1      -1.711  12.838  22.700  0.00  0.00    +0.000 S 
ATOM     18  C   UNL     1      -3.060  12.139  23.609  0.00  0.00    +0.000 C 
ATOM     19  O   UNL     1      -0.808  13.480  23.643  0.00  0.00    +0.000 OA
ATOM     20  O   UNL     1      -2.256  13.583  21.579  0.00  0.00    +0.000 OA
ENDBRANCH  14  17
ENDBRANCH   7  11
BRANCH   2  21
ATOM     21  C   UNL     1       3.880   2.169  19.152  0.00  0.00    +0.000 C 
ATOM     22  N   UNL     1       4.922   1.730  19.919  0.00  0.00    +0.000 N 
ATOM     23  O   UNL     1       3.476   1.501  18.207  0.00  0.00    +0.000 OA
ATOM     24  H   UNL     1       5.074   2.105  20.848  0.00  0.00    +0.000 HD
ATOM     25  H   UNL     1       5.243   0.786  19.737  0.00  0.00    +0.000 HD
ENDBRANCH   2  21
BRANCH   1  26
ATOM     26  N   UNL     1       4.345   4.828  17.830  0.00  0.00    +0.000 N 
ATOM     27  H   UNL     1       4.104   4.360  16.960  0.00  0.00    +0.000 HD
BRANCH  26  31
ATOM     28  C   UNL     1       7.809   7.231  18.213  0.00  0.00    +0.000 A 
ATOM     29  C   UNL     1       6.788   7.580  17.323  0.00  0.00    +0.000 A 
ATOM     30  C   UNL     1       5.670   6.750  17.146  0.00  0.00    +0.000 A 
ATOM     31  C   UNL     1       5.562   5.543  17.842  0.00  0.00    +0.000 A 
ATOM     32  C   UNL     1       6.614   5.180  18.695  0.00  0.00    +0.000 A 
ATOM     33  C   UNL     1       7.700   6.024  18.901  0.00  0.00    +0.000 A 
ATOM     34  F   UNL     1       8.599   5.651  19.822  0.00  0.00    +0.000 F 
BRANCH  28  36
ATOM     35  C   UNL     1       8.447   9.517  18.197  0.00  0.00    +0.000 C 
ATOM     36  O   UNL     1       8.819   8.146  18.324  0.00  0.00    +0.000 OA
ENDBRANCH  28  36
ENDBRANCH  26  31
ENDBRANCH   1  26
TORSDOF 6
ENDMDL
MODEL 3
REMARK VINA RESULT:      -8.9      4.888     10.539
REMARK  Name = 
REMARK  8 active torsions:
REMARK  status: ('A' for Active; 'I' for Inactive)
REMARK    1  A    between atoms: C_1  and  O_2
REMARK    2  A    between atoms: O_2  and  C_3
REMARK    3  A    between atoms: C_6  and  N_7
REMARK    4  A    between atoms: N_7  and  C_8
REMARK    5  A    between atoms: C_9  and  C_10
REMARK    6  A    between atoms: C_17  and  C_18
REMARK    7  A    between atoms: C_21  and  S_22
REMARK    8  A    between atoms: S_22  and  C_23
REMARK                            x       y       z     vdW  Elec       q    Type
REMARK                         _______ _______ _______ _____ _____    ______ ____
ROOT
ATOM      1  C   UNL     1      -1.197  11.497  20.973  0.00  0.00    +0.000 A 
ATOM      2  C   UNL     1      -1.452  11.490  22.349  0.00  0.00    +0.000 A 
ATOM      3  C   UNL     1      -0.825  10.530  23.125  0.00  0.00    +0.000 A 
ATOM      4  N   UNL     1      -0.001   9.569  22.633  0.00  0.00    +0.000 NA
ATOM      5  C   UNL     1       0.280   9.588  21.321  0.00  0.00    +0.000 A 
ATOM      6  C   UNL     1       1.127   8.602  20.810  0.00  0.00    +0.000 A 
ATOM      7  C   UNL     1       1.520   8.543  19.455  0.00  0.00    +0.000 A 
ATOM      8  C   UNL     1       1.037   9.535  18.614  0.00  0.00    +0.000 A 
ATOM      9  C   UNL     1       0.206  10.539  19.110  0.00  0.00    +0.000 A 
ATOM     10  C   UNL     1      -0.249  10.551  20.451  0.00  0.00    +0.000 A 
ENDROOT
BRANCH   7  11
ATOM     11  C   UNL     1       2.465   7.522  18.957  0.00  0.00    +0.000 A 
ATOM     12  C   UNL     1       2.582   6.256  19.563  0.00  0.00    +0.000 A 
ATOM     13  C   UNL     1       3.435   5.274  19.048  0.00  0.00    +0.000 A 
ATOM     14  C   UNL     1       4.193   5.558  17.913  0.00  0.00    +0.000 A 
ATOM     15  C   UNL     1       4.123   6.808  17.306  0.00  0.00    +0.000 A 
ATOM     16  C   UNL     1       3.257   7.774  17.822  0.00  0.00    +0.000 A 
BRANCH  14  17
ATOM     17  S   UNL     1       5.269   4.325  17.235  0.00  0.00    +0.000 S 
ATOM     18  C   UNL     1       5.568   4.907  15.590  0.00  0.00    +0.000 C 
ATOM     19  O   UNL     1       6.521   4.381  17.975  0.00  0.00    +0.000 OA
ATOM     20  O   UNL     1       4.520   3.084  17.150  0.00  0.00    +0.000 OA
ENDBRANCH  14  17
ENDBRANCH   7  11
BRANCH   2  21
ATOM     21  C   UNL     1      -2.356  12.418  23.074  0.00  0.00    +0.000 C 
ATOM     22  N   UNL     1      -3.385  11.881  23.794  0.00  0.00    +0.000 N 
ATOM     23  O   UNL     1      -2.167  13.629  23.064  0.00  0.00    +0.000 OA
ATOM     24  H   UNL     1      -3.382  10.900  24.048  0.00  0.00    +0.000 HD
ATOM     25  H   UNL     1      -3.885  12.520  24.402  0.00  0.00    +0.000 HD
ENDBRANCH   2  21
BRANCH   1  26
ATOM     26  N   UNL     1      -1.928  12.358  20.099  0.00  0.00    +0.000 N 
ATOM     27  H   UNL     1      -1.469  13.240  19.887  0.00  0.00    +0.000 HD
BRANCH  26  31
ATOM     28  C   UNL     1      -5.628  12.122  18.057  0.00  0.00    +0.000 A 
ATOM     29  C   UNL     1      -5.542  12.716  19.320  0.00  0.00    +0.000 A 
ATOM     30  C   UNL     1      -4.330  12.736  20.027  0.00  0.00    +0.000 A 
ATOM     31  C   UNL     1      -3.183  12.142  19.492  0.00  0.00    +0.000 A 
ATOM     32  C   UNL     1      -3.293  11.506  18.247  0.00  0.00    +0.000 A 
ATOM     33  C   UNL     1      -4.484  11.525  17.530  0.00  0.00    +0.000 A 
ATOM     34  F   UNL     1      -4.465  10.996  16.298  0.00  0.00    +0.000 F 
BRANCH  28  36
ATOM     35  C   UNL     1      -7.212  13.484  16.932  0.00  0.00    +0.000 C 
ATOM     36  O   UNL     1      -6.855  12.208  17.458  0.00  0.00    +0.000 OA
ENDBRANCH  28  36
ENDBRANCH  26  31
ENDBRANCH   1  26
TORSDOF 6
ENDMDL
MODEL 4
REMARK VINA RESULT:      -8.8      4.869     10.430
REMARK  Name = 
REMARK  8 active torsions:
REMARK  status: ('A' for Active; 'I' for Inactive)
REMARK    1  A    between atoms: C_1  and  O_2
REMARK    2  A    between atoms: O_2  and  C_3
REMARK    3  A    between atoms: C_6  and  N_7
REMARK    4  A    between atoms: N_7  and  C_8
REMARK    5  A    between atoms: C_9  and  C_10
REMARK    6  A    between atoms: C_17  and  C_18
REMARK    7  A    between atoms: C_21  and  S_22
REMARK    8  A    between atoms: S_22  and  C_23
REMARK                            x       y       z     vdW  Elec       q    Type
REMARK                         _______ _______ _______ _____ _____    ______ ____
ROOT
ATOM      1  C   UNL     1      -0.874  11.281  20.849  0.00  0.00    +0.000 A 
ATOM      2  C   UNL     1      -1.055  11.189  22.234  0.00  0.00    +0.000 A 
ATOM      3  C   UNL     1      -0.402  10.172  22.913  0.00  0.00    +0.000 A 
ATOM      4  N   UNL     1       0.379   9.235  22.316  0.00  0.00    +0.000 NA
ATOM      5  C   UNL     1       0.590   9.335  20.994  0.00  0.00    +0.000 A 
ATOM      6  C   UNL     1       1.392   8.374  20.377  0.00  0.00    +0.000 A 
ATOM      7  C   UNL     1       1.711   8.397  19.001  0.00  0.00    +0.000 A 
ATOM      8  C   UNL     1       1.200   9.447  18.253  0.00  0.00    +0.000 A 
ATOM      9  C   UNL     1       0.412  10.427  18.856  0.00  0.00    +0.000 A 
ATOM     10  C   UNL     1       0.030  10.358  20.218  0.00  0.00    +0.000 A 
ENDROOT
BRANCH   7  11
ATOM     11  C   UNL     1       2.611   7.399  18.389  0.00  0.00    +0.000 A 
ATOM     12  C   UNL     1       3.627   7.766  17.485  0.00  0.00    +0.000 A 
ATOM     13  C   UNL     1       4.514   6.821  16.956  0.00  0.00    +0.000 A 
ATOM     14  C   UNL     1       4.384   5.483  17.328  0.00  0.00    +0.000 A 
ATOM     15  C   UNL     1       3.373   5.082  18.196  0.00  0.00    +0.000 A 
ATOM     16  C   UNL     1       2.505   6.037  18.727  0.00  0.00    +0.000 A 
BRANCH  14  17
ATOM     17  S   UNL     1       5.503   4.272  16.682  0.00  0.00    +0.000 S 
ATOM     18  C   UNL     1       5.667   4.737  14.982  0.00  0.00    +0.000 C 
ATOM     19  O   UNL     1       6.788   4.469  17.336  0.00  0.00    +0.000 OA
ATOM     20  O   UNL     1       4.838   2.982  16.739  0.00  0.00    +0.000 OA
ENDBRANCH  14  17
ENDBRANCH   7  11
BRANCH   2  21
ATOM     21  C   UNL     1      -1.903  12.079  23.065  0.00  0.00    +0.000 C 
ATOM     22  N   UNL     1      -1.429  13.325  23.363  0.00  0.00    +0.000 N 
ATOM     23  O   UNL     1      -3.015  11.728  23.442  0.00  0.00    +0.000 OA
ATOM     24  H   UNL     1      -0.667  13.729  22.831  0.00  0.00    +0.000 HD
ATOM     25  H   UNL     1      -2.089  13.963  23.792  0.00  0.00    +0.000 HD
ENDBRANCH   2  21
BRANCH   1  26
ATOM     26  N   UNL     1      -1.637  12.205  20.073  0.00  0.00    +0.000 N 
ATOM     27  H   UNL     1      -1.185  13.102  19.914  0.00  0.00    +0.000 HD
BRANCH  26  31
ATOM     28  C   UNL     1      -5.403  12.111  18.145  0.00  0.00    +0.000 A 
ATOM     29  C   UNL     1      -5.268  12.646  19.431  0.00  0.00    +0.000 A 
ATOM     30  C   UNL     1      -4.034  12.617  20.098  0.00  0.00    +0.000 A 
ATOM     31  C   UNL     1      -2.914  12.033  19.498  0.00  0.00    +0.000 A 
ATOM     32  C   UNL     1      -3.072  11.458  18.230  0.00  0.00    +0.000 A 
ATOM     33  C   UNL     1      -4.286  11.525  17.554  0.00  0.00    +0.000 A 
ATOM     34  F   UNL     1      -4.314  11.054  16.299  0.00  0.00    +0.000 F 
BRANCH  28  36
ATOM     35  C   UNL     1      -6.935  13.493  16.972  0.00  0.00    +0.000 C 
ATOM     36  O   UNL     1      -6.648  12.242  17.591  0.00  0.00    +0.000 OA
ENDBRANCH  28  36
ENDBRANCH  26  31
ENDBRANCH   1  26
TORSDOF 6
ENDMDL
MODEL 5
REMARK VINA RESULT:      -8.8      4.939     10.603
REMARK  Name = 
REMARK  8 active torsions:
REMARK  status: ('A' for Active; 'I' for Inactive)
REMARK    1  A    between atoms: C_1  and  O_2
REMARK    2  A    between atoms: O_2  and  C_3
REMARK    3  A    between atoms: C_6  and  N_7
REMARK    4  A    between atoms: N_7  and  C_8
REMARK    5  A    between atoms: C_9  and  C_10
REMARK    6  A    between atoms: C_17  and  C_18
REMARK    7  A    between atoms: C_21  and  S_22
REMARK    8  A    between atoms: S_22  and  C_23
REMARK                            x       y       z     vdW  Elec       q    Type
REMARK                         _______ _______ _______ _____ _____    ______ ____
ROOT
ATOM      1  C   UNL     1      -1.339  11.666  21.007  0.00  0.00    +0.000 A 
ATOM      2  C   UNL     1      -1.617  11.654  22.379  0.00  0.00    +0.000 A 
ATOM      3  C   UNL     1      -1.001  10.693  23.163  0.00  0.00    +0.000 A 
ATOM      4  N   UNL     1      -0.168   9.734  22.682  0.00  0.00    +0.000 NA
ATOM      5  C   UNL     1       0.136   9.758  21.375  0.00  0.00    +0.000 A 
ATOM      6  C   UNL     1       0.993   8.775  20.877  0.00  0.00    +0.000 A 
ATOM      7  C   UNL     1       1.409   8.721  19.528  0.00  0.00    +0.000 A 
ATOM      8  C   UNL     1       0.939   9.714  18.682  0.00  0.00    +0.000 A 
ATOM      9  C   UNL     1       0.098  10.715  19.166  0.00  0.00    +0.000 A 
ATOM     10  C   UNL     1      -0.381  10.722  20.499  0.00  0.00    +0.000 A 
ENDROOT
BRANCH   7  11
ATOM     11  C   UNL     1       2.364   7.703  19.044  0.00  0.00    +0.000 A 
ATOM     12  C   UNL     1       3.060   7.852  17.828  0.00  0.00    +0.000 A 
ATOM     13  C   UNL     1       4.007   6.912  17.406  0.00  0.00    +0.000 A 
ATOM     14  C   UNL     1       4.262   5.798  18.205  0.00  0.00    +0.000 A 
ATOM     15  C   UNL     1       3.572   5.605  19.398  0.00  0.00    +0.000 A 
ATOM     16  C   UNL     1       2.640   6.558  19.813  0.00  0.00    +0.000 A 
BRANCH  14  17
ATOM     17  S   UNL     1       5.467   4.602  17.698  0.00  0.00    +0.000 S 
ATOM     18  C   UNL     1       4.579   3.596  16.543  0.00  0.00    +0.000 C 
ATOM     19  O   UNL     1       6.513   5.312  16.977  0.00  0.00    +0.000 OA
ATOM     20  O   UNL     1       5.793   3.787  18.855  0.00  0.00    +0.000 OA
ENDBRANCH  14  17
ENDBRANCH   7  11
BRANCH   2  21
ATOM     21  C   UNL     1      -2.535  12.578  23.091  0.00  0.00    +0.000 C 
ATOM     22  N   UNL     1      -3.536  12.036  23.846  0.00  0.00    +0.000 N 
ATOM     23  O   UNL     1      -2.380  13.793  23.041  0.00  0.00    +0.000 OA
ATOM     24  H   UNL     1      -3.501  11.063  24.129  0.00  0.00    +0.000 HD
ATOM     25  H   UNL     1      -4.044  12.678  24.442  0.00  0.00    +0.000 HD
ENDBRANCH   2  21
BRANCH   1  26
ATOM     26  N   UNL     1      -2.056  12.527  20.124  0.00  0.00    +0.000 N 
ATOM     27  H   UNL     1      -1.576  13.393  19.890  0.00  0.00    +0.000 HD
BRANCH  26  31
ATOM     28  C   UNL     1      -5.774  12.337  18.110  0.00  0.00    +0.000 A 
ATOM     29  C   UNL     1      -5.655  13.000  19.336  0.00  0.00    +0.000 A 
ATOM     30  C   UNL     1      -4.439  13.007  20.037  0.00  0.00    +0.000 A 
ATOM     31  C   UNL     1      -3.323  12.332  19.534  0.00  0.00    +0.000 A 
ATOM     32  C   UNL     1      -3.467  11.631  18.329  0.00  0.00    +0.000 A 
ATOM     33  C   UNL     1      -4.661  11.661  17.615  0.00  0.00    +0.000 A 
ATOM     34  F   UNL     1      -4.672  11.061  16.416  0.00  0.00    +0.000 F 
BRANCH  28  36
ATOM     35  C   UNL     1      -7.916  13.359  18.104  0.00  0.00    +0.000 C 
ATOM     36  O   UNL     1      -6.999  12.444  17.510  0.00  0.00    +0.000 OA
ENDBRANCH  28  36
ENDBRANCH  26  31
ENDBRANCH   1  26
TORSDOF 6
ENDMDL
MODEL 6
REMARK VINA RESULT:      -8.8      2.175      2.640
REMARK  Name = 
REMARK  8 active torsions:
REMARK  status: ('A' for Active; 'I' for Inactive)
REMARK    1  A    between atoms: C_1  and  O_2
REMARK    2  A    between atoms: O_2  and  C_3
REMARK    3  A    between atoms: C_6  and  N_7
REMARK    4  A    between atoms: N_7  and  C_8
REMARK    5  A    between atoms: C_9  and  C_10
REMARK    6  A    between atoms: C_17  and  C_18
REMARK    7  A    between atoms: C_21  and  S_22
REMARK    8  A    between atoms: S_22  and  C_23
REMARK                            x       y       z     vdW  Elec       q    Type
REMARK                         _______ _______ _______ _____ _____    ______ ____
ROOT
ATOM      1  C   UNL     1       3.227   4.214  18.266  0.00  0.00    +0.000 A 
ATOM      2  C   UNL     1       3.443   3.263  19.271  0.00  0.00    +0.000 A 
ATOM      3  C   UNL     1       3.160   3.620  20.579  0.00  0.00    +0.000 A 
ATOM      4  N   UNL     1       2.717   4.847  20.957  0.00  0.00    +0.000 NA
ATOM      5  C   UNL     1       2.472   5.754  19.999  0.00  0.00    +0.000 A 
ATOM      6  C   UNL     1       2.016   7.016  20.384  0.00  0.00    +0.000 A 
ATOM      7  C   UNL     1       1.692   8.037  19.463  0.00  0.00    +0.000 A 
ATOM      8  C   UNL     1       1.829   7.739  18.116  0.00  0.00    +0.000 A 
ATOM      9  C   UNL     1       2.264   6.477  17.712  0.00  0.00    +0.000 A 
ATOM     10  C   UNL     1       2.663   5.482  18.638  0.00  0.00    +0.000 A 
ENDROOT
BRANCH   7  11
ATOM     11  C   UNL     1       1.156   9.343  19.899  0.00  0.00    +0.000 A 
ATOM     12  C   UNL     1       0.683   9.556  21.208  0.00  0.00    +0.000 A 
ATOM     13  C   UNL     1       0.233  10.813  21.630  0.00  0.00    +0.000 A 
ATOM     14  C   UNL     1       0.247  11.877  20.728  0.00  0.00    +0.000 A 
ATOM     15  C   UNL     1       0.680  11.695  19.419  0.00  0.00    +0.000 A 
ATOM     16  C   UNL     1       1.140  10.440  19.017  0.00  0.00    +0.000 A 
BRANCH  14  17
ATOM     17  S   UNL     1      -0.305  13.480  21.244  0.00  0.00    +0.000 S 
ATOM     18  C   UNL     1       0.095  14.510  19.861  0.00  0.00    +0.000 C 
ATOM     19  O   UNL     1      -1.753  13.425  21.370  0.00  0.00    +0.000 OA
ATOM     20  O   UNL     1       0.517  13.888  22.368  0.00  0.00    +0.000 OA
ENDBRANCH  14  17
ENDBRANCH   7  11
BRANCH   2  21
ATOM     21  C   UNL     1       3.967   1.889  19.074  0.00  0.00    +0.000 C 
ATOM     22  N   UNL     1       4.977   1.464  19.890  0.00  0.00    +0.000 N 
ATOM     23  O   UNL     1       3.486   1.138  18.234  0.00  0.00    +0.000 OA
ATOM     24  H   UNL     1       5.181   1.948  20.757  0.00  0.00    +0.000 HD
ATOM     25  H   UNL     1       5.206   0.478  19.841  0.00  0.00    +0.000 HD
ENDBRANCH   2  21
BRANCH   1  26
ATOM     26  N   UNL     1       3.643   3.963  16.924  0.00  0.00    +0.000 N 
ATOM     27  H   UNL     1       2.941   3.520  16.335  0.00  0.00    +0.000 HD
BRANCH  26  31
ATOM     28  C   UNL     1       7.155   5.243  14.939  0.00  0.00    +0.000 A 
ATOM     29  C   UNL     1       6.206   4.454  14.281  0.00  0.00    +0.000 A 
ATOM     30  C   UNL     1       5.074   3.973  14.957  0.00  0.00    +0.000 A 
ATOM     31  C   UNL     1       4.880   4.257  16.312  0.00  0.00    +0.000 A 
ATOM     32  C   UNL     1       5.862   5.008  16.973  0.00  0.00    +0.000 A 
ATOM     33  C   UNL     1       6.961   5.518  16.291  0.00  0.00    +0.000 A 
ATOM     34  F   UNL     1       7.786   6.324  16.975  0.00  0.00    +0.000 F 
BRANCH  28  36
ATOM     35  C   UNL     1       8.072   5.427  12.757  0.00  0.00    +0.000 C 
ATOM     36  O   UNL     1       8.188   5.682  14.155  0.00  0.00    +0.000 OA
ENDBRANCH  28  36
ENDBRANCH  26  31
ENDBRANCH   1  26
TORSDOF 6
ENDMDL
MODEL 7
REMARK VINA RESULT:      -8.8      1.183      1.351
REMARK  Name = 
REMARK  8 active torsions:
REMARK  status: ('A' for Active; 'I' for Inactive)
REMARK    1  A    between atoms: C_1  and  O_2
REMARK    2  A    between atoms: O_2  and  C_3
REMARK    3  A    between atoms: C_6  and  N_7
REMARK    4  A    between atoms: N_7  and  C_8
REMARK    5  A    between atoms: C_9  and  C_10
REMARK    6  A    between atoms: C_17  and  C_18
REMARK    7  A    between atoms: C_21  and  S_22
REMARK    8  A    between atoms: S_22  and  C_23
REMARK                            x       y       z     vdW  Elec       q    Type
REMARK                         _______ _______ _______ _____ _____    ______ ____
ROOT
ATOM      1  C   UNL     1       3.705   4.259  18.983  0.00  0.00    +0.000 A 
ATOM      2  C   UNL     1       3.537   3.150  19.821  0.00  0.00    +0.000 A 
ATOM      3  C   UNL     1       2.707   3.282  20.922  0.00  0.00    +0.000 A 
ATOM      4  N   UNL     1       2.070   4.432  21.264  0.00  0.00    +0.000 NA
ATOM      5  C   UNL     1       2.194   5.490  20.449  0.00  0.00    +0.000 A 
ATOM      6  C   UNL     1       1.540   6.674  20.796  0.00  0.00    +0.000 A 
ATOM      7  C   UNL     1       1.570   7.839  19.999  0.00  0.00    +0.000 A 
ATOM      8  C   UNL     1       2.281   7.773  18.810  0.00  0.00    +0.000 A 
ATOM      9  C   UNL     1       2.925   6.593  18.437  0.00  0.00    +0.000 A 
ATOM     10  C   UNL     1       2.958   5.452  19.275  0.00  0.00    +0.000 A 
ENDROOT
BRANCH   7  11
ATOM     11  C   UNL     1       0.819   9.058  20.365  0.00  0.00    +0.000 A 
ATOM     12  C   UNL     1       0.465  10.030  19.410  0.00  0.00    +0.000 A 
ATOM     13  C   UNL     1      -0.299  11.151  19.753  0.00  0.00    +0.000 A 
ATOM     14  C   UNL     1      -0.712  11.313  21.076  0.00  0.00    +0.000 A 
ATOM     15  C   UNL     1      -0.356  10.386  22.050  0.00  0.00    +0.000 A 
ATOM     16  C   UNL     1       0.394   9.266  21.690  0.00  0.00    +0.000 A 
BRANCH  14  17
ATOM     17  S   UNL     1      -1.691  12.717  21.531  0.00  0.00    +0.000 S 
ATOM     18  C   UNL     1      -1.127  13.091  23.167  0.00  0.00    +0.000 C 
ATOM     19  O   UNL     1      -1.316  13.817  20.655  0.00  0.00    +0.000 OA
ATOM     20  O   UNL     1      -3.074  12.282  21.615  0.00  0.00    +0.000 OA
ENDBRANCH  14  17
ENDBRANCH   7  11
BRANCH   2  21
ATOM     21  C   UNL     1       4.181   1.824  19.652  0.00  0.00    +0.000 C 
ATOM     22  N   UNL     1       3.753   1.026  18.629  0.00  0.00    +0.000 N 
ATOM     23  O   UNL     1       5.099   1.464  20.381  0.00  0.00    +0.000 OA
ATOM     24  H   UNL     1       3.218   1.413  17.861  0.00  0.00    +0.000 HD
ATOM     25  H   UNL     1       4.312   0.202  18.441  0.00  0.00    +0.000 HD
ENDBRANCH   2  21
BRANCH   1  26
ATOM     26  N   UNL     1       4.663   4.236  17.925  0.00  0.00    +0.000 N 
ATOM     27  H   UNL     1       4.566   3.456  17.279  0.00  0.00    +0.000 HD
BRANCH  26  31
ATOM     28  C   UNL     1       7.537   7.291  17.357  0.00  0.00    +0.000 A 
ATOM     29  C   UNL     1       6.512   7.088  16.427  0.00  0.00    +0.000 A 
ATOM     30  C   UNL     1       5.598   6.033  16.579  0.00  0.00    +0.000 A 
ATOM     31  C   UNL     1       5.705   5.148  17.656  0.00  0.00    +0.000 A 
ATOM     32  C   UNL     1       6.765   5.332  18.555  0.00  0.00    +0.000 A 
ATOM     33  C   UNL     1       7.644   6.402  18.425  0.00  0.00    +0.000 A 
ATOM     34  F   UNL     1       8.553   6.569  19.396  0.00  0.00    +0.000 F 
BRANCH  28  36
ATOM     35  C   UNL     1       8.292   9.418  18.089  0.00  0.00    +0.000 C 
ATOM     36  O   UNL     1       8.332   8.378  17.115  0.00  0.00    +0.000 OA
ENDBRANCH  28  36
ENDBRANCH  26  31
ENDBRANCH   1  26
TORSDOF 6
ENDMDL
MODEL 8
REMARK VINA RESULT:      -8.7      2.814      3.321
REMARK  Name = 
REMARK  8 active torsions:
REMARK  status: ('A' for Active; 'I' for Inactive)
REMARK    1  A    between atoms: C_1  and  O_2
REMARK    2  A    between atoms: O_2  and  C_3
REMARK    3  A    between atoms: C_6  and  N_7
REMARK    4  A    between atoms: N_7  and  C_8
REMARK    5  A    between atoms: C_9  and  C_10
REMARK    6  A    between atoms: C_17  and  C_18
REMARK    7  A    between atoms: C_21  and  S_22
REMARK    8  A    between atoms: S_22  and  C_23
REMARK                            x       y       z     vdW  Elec       q    Type
REMARK                         _______ _______ _______ _____ _____    ______ ____
ROOT
ATOM      1  C   UNL     1       4.450   3.901  19.095  0.00  0.00    +0.000 A 
ATOM      2  C   UNL     1       4.022   2.812  19.863  0.00  0.00    +0.000 A 
ATOM      3  C   UNL     1       2.905   2.977  20.666  0.00  0.00    +0.000 A 
ATOM      4  N   UNL     1       2.215   4.141  20.783  0.00  0.00    +0.000 NA
ATOM      5  C   UNL     1       2.593   5.180  20.023  0.00  0.00    +0.000 A 
ATOM      6  C   UNL     1       1.885   6.378  20.140  0.00  0.00    +0.000 A 
ATOM      7  C   UNL     1       2.171   7.526  19.368  0.00  0.00    +0.000 A 
ATOM      8  C   UNL     1       3.201   7.425  18.445  0.00  0.00    +0.000 A 
ATOM      9  C   UNL     1       3.906   6.231  18.300  0.00  0.00    +0.000 A 
ATOM     10  C   UNL     1       3.670   5.108  19.130  0.00  0.00    +0.000 A 
ENDROOT
BRANCH   7  11
ATOM     11  C   UNL     1       1.366   8.760  19.473  0.00  0.00    +0.000 A 
ATOM     12  C   UNL     1       1.209   9.642  18.386  0.00  0.00    +0.000 A 
ATOM     13  C   UNL     1       0.396  10.778  18.475  0.00  0.00    +0.000 A 
ATOM     14  C   UNL     1      -0.269  11.046  19.672  0.00  0.00    +0.000 A 
ATOM     15  C   UNL     1      -0.113  10.211  20.774  0.00  0.00    +0.000 A 
ATOM     16  C   UNL     1       0.690   9.074  20.666  0.00  0.00    +0.000 A 
BRANCH  14  17
ATOM     17  S   UNL     1      -1.314  12.470  19.804  0.00  0.00    +0.000 S 
ATOM     18  C   UNL     1      -1.128  12.954  21.497  0.00  0.00    +0.000 C 
ATOM     19  O   UNL     1      -0.744  13.512  18.964  0.00  0.00    +0.000 OA
ATOM     20  O   UNL     1      -2.684  12.031  19.605  0.00  0.00    +0.000 OA
ENDBRANCH  14  17
ENDBRANCH   7  11
BRANCH   2  21
ATOM     21  C   UNL     1       4.664   1.475  19.917  0.00  0.00    +0.000 C 
ATOM     22  N   UNL     1       4.422   0.604  18.893  0.00  0.00    +0.000 N 
ATOM     23  O   UNL     1       5.423   1.170  20.830  0.00  0.00    +0.000 OA
ATOM     24  H   UNL     1       4.048   0.934  18.011  0.00  0.00    +0.000 HD
ATOM     25  H   UNL     1       4.993  -0.233  18.875  0.00  0.00    +0.000 HD
ENDBRANCH   2  21
BRANCH   1  26
ATOM     26  N   UNL     1       5.678   3.844  18.369  0.00  0.00    +0.000 N 
ATOM     27  H   UNL     1       6.441   3.382  18.857  0.00  0.00    +0.000 HD
BRANCH  26  31
ATOM     28  C   UNL     1       6.763   4.896  14.415  0.00  0.00    +0.000 A 
ATOM     29  C   UNL     1       7.582   5.233  15.498  0.00  0.00    +0.000 A 
ATOM     30  C   UNL     1       7.192   4.944  16.815  0.00  0.00    +0.000 A 
ATOM     31  C   UNL     1       5.963   4.330  17.075  0.00  0.00    +0.000 A 
ATOM     32  C   UNL     1       5.129   4.041  15.986  0.00  0.00    +0.000 A 
ATOM     33  C   UNL     1       5.537   4.290  14.680  0.00  0.00    +0.000 A 
ATOM     34  F   UNL     1       4.727   3.872  13.696  0.00  0.00    +0.000 F 
BRANCH  28  36
ATOM     35  C   UNL     1       7.230   4.154  12.210  0.00  0.00    +0.000 C 
ATOM     36  O   UNL     1       7.280   5.193  13.184  0.00  0.00    +0.000 OA
ENDBRANCH  28  36
ENDBRANCH  26  31
ENDBRANCH   1  26
TORSDOF 6
ENDMDL
MODEL 9
REMARK VINA RESULT:      -8.7      2.116      2.525
REMARK  Name = 
REMARK  8 active torsions:
REMARK  status: ('A' for Active; 'I' for Inactive)
REMARK    1  A    between atoms: C_1  and  O_2
REMARK    2  A    between atoms: O_2  and  C_3
REMARK    3  A    between atoms: C_6  and  N_7
REMARK    4  A    between atoms: N_7  and  C_8
REMARK    5  A    between atoms: C_9  and  C_10
REMARK    6  A    between atoms: C_17  and  C_18
REMARK    7  A    between atoms: C_21  and  S_22
REMARK    8  A    between atoms: S_22  and  C_23
REMARK                            x       y       z     vdW  Elec       q    Type
REMARK                         _______ _______ _______ _____ _____    ______ ____
ROOT
ATOM      1  C   UNL     1       3.104   4.411  18.307  0.00  0.00    +0.000 A 
ATOM      2  C   UNL     1       3.288   3.432  19.290  0.00  0.00    +0.000 A 
ATOM      3  C   UNL     1       2.990   3.759  20.603  0.00  0.00    +0.000 A 
ATOM      4  N   UNL     1       2.562   4.983  21.006  0.00  0.00    +0.000 NA
ATOM      5  C   UNL     1       2.347   5.919  20.069  0.00  0.00    +0.000 A 
ATOM      6  C   UNL     1       1.906   7.179  20.479  0.00  0.00    +0.000 A 
ATOM      7  C   UNL     1       1.614   8.228  19.581  0.00  0.00    +0.000 A 
ATOM      8  C   UNL     1       1.768   7.963  18.228  0.00  0.00    +0.000 A 
ATOM      9  C   UNL     1       2.189   6.705  17.798  0.00  0.00    +0.000 A 
ATOM     10  C   UNL     1       2.556   5.680  18.704  0.00  0.00    +0.000 A 
ENDROOT
BRANCH   7  11
ATOM     11  C   UNL     1       1.093   9.532  20.042  0.00  0.00    +0.000 A 
ATOM     12  C   UNL     1       1.071  10.664  19.205  0.00  0.00    +0.000 A 
ATOM     13  C   UNL     1       0.520  11.879  19.630  0.00  0.00    +0.000 A 
ATOM     14  C   UNL     1      -0.013  11.971  20.915  0.00  0.00    +0.000 A 
ATOM     15  C   UNL     1       0.019  10.880  21.778  0.00  0.00    +0.000 A 
ATOM     16  C   UNL     1       0.558   9.671  21.336  0.00  0.00    +0.000 A 
BRANCH  14  17
ATOM     17  S   UNL     1      -0.727  13.494  21.470  0.00  0.00    +0.000 S 
ATOM     18  C   UNL     1      -1.584  13.026  22.946  0.00  0.00    +0.000 C 
ATOM     19  O   UNL     1       0.365  14.383  21.836  0.00  0.00    +0.000 OA
ATOM     20  O   UNL     1      -1.711  13.904  20.483  0.00  0.00    +0.000 OA
ENDBRANCH  14  17
ENDBRANCH   7  11
BRANCH   2  21
ATOM     21  C   UNL     1       3.792   2.054  19.066  0.00  0.00    +0.000 C 
ATOM     22  N   UNL     1       4.877   1.642  19.786  0.00  0.00    +0.000 N 
ATOM     23  O   UNL     1       3.232   1.290  18.289  0.00  0.00    +0.000 OA
ATOM     24  H   UNL     1       5.164   2.140  20.621  0.00  0.00    +0.000 HD
ATOM     25  H   UNL     1       5.101   0.655  19.731  0.00  0.00    +0.000 HD
ENDBRANCH   2  21
BRANCH   1  26
ATOM     26  N   UNL     1       3.537   4.189  16.966  0.00  0.00    +0.000 N 
ATOM     27  H   UNL     1       2.823   3.820  16.343  0.00  0.00    +0.000 HD
BRANCH  26  31
ATOM     28  C   UNL     1       7.144   5.235  15.013  0.00  0.00    +0.000 A 
ATOM     29  C   UNL     1       6.286   4.273  14.469  0.00  0.00    +0.000 A 
ATOM     30  C   UNL     1       5.123   3.877  15.148  0.00  0.00    +0.000 A 
ATOM     31  C   UNL     1       4.807   4.421  16.396  0.00  0.00    +0.000 A 
ATOM     32  C   UNL     1       5.699   5.348  16.954  0.00  0.00    +0.000 A 
ATOM     33  C   UNL     1       6.828   5.770  16.260  0.00  0.00    +0.000 A 
ATOM     34  F   UNL     1       7.560   6.746  16.818  0.00  0.00    +0.000 F 
BRANCH  28  36
ATOM     35  C   UNL     1       8.035   5.437  12.823  0.00  0.00    +0.000 C 
ATOM     36  O   UNL     1       8.218   5.562  14.231  0.00  0.00    +0.000 OA
ENDBRANCH  28  36
ENDBRANCH  26  31
ENDBRANCH   1  26
TORSDOF 6
ENDMDL
