MODEL 1
REMARK VINA RESULT:      -8.1      0.000      0.000
REMARK  Name = 
REMARK  7 active torsions:
REMARK  status: ('A' for Active; 'I' for Inactive)
REMARK    1  A    between atoms: C_1  and  O_2
REMARK    2  A    between atoms: O_2  and  N_3
REMARK    3  A    between atoms: C_6  and  C_7
REMARK    4  A    between atoms: C_7  and  O_8
REMARK    5  A    between atoms: C_10  and  C_12
REMARK    6  A    between atoms: C_15  and  C_16
REMARK    7  A    between atoms: C_21  and  C_22
REMARK                            x       y       z     vdW  Elec       q    Type
REMARK                         _______ _______ _______ _____ _____    ______ ____
ROOT
ATOM      1  N   UNL     1      -3.132  11.381  16.690  0.00  0.00    +0.000 NA
ATOM      2  C   UNL     1      -2.479  11.262  17.804  0.00  0.00    +0.000 C 
ATOM      3  C   UNL     1      -2.958  11.895  19.069  0.00  0.00    +0.000 C 
ATOM      4  C   UNL     1      -1.628  12.028  19.808  0.00  0.00    +0.000 C 
ATOM      5  N   UNL     1      -0.849  10.854  19.369  0.00  0.00    +0.000 N 
ATOM      6  C   UNL     1       0.410  10.601  19.919  0.00  0.00    +0.000 C 
ATOM      7  O   UNL     1       0.896  11.296  20.811  0.00  0.00    +0.000 OA
ATOM      8  C   UNL     1      -1.222  10.458  18.012  0.00  0.00    +0.000 C 
ENDROOT
BRANCH   6   9
ATOM      9  C   UNL     1       1.215   9.445  19.428  0.00  0.00    +0.000 A 
ATOM     10  C   UNL     1       1.786   9.501  18.155  0.00  0.00    +0.000 A 
ATOM     11  C   UNL     1       2.510   8.406  17.654  0.00  0.00    +0.000 A 
ATOM     12  C   UNL     1       2.704   7.234  18.412  0.00  0.00    +0.000 A 
ATOM     13  C   UNL     1       2.208   7.248  19.723  0.00  0.00    +0.000 A 
ATOM     14  C   UNL     1       1.485   8.336  20.229  0.00  0.00    +0.000 A 
BRANCH  12  15
ATOM     15  C   UNL     1       3.444   6.062  17.864  0.00  0.00    +0.000 A 
ATOM     16  C   UNL     1       4.814   6.217  17.548  0.00  0.00    +0.000 A 
ATOM     17  C   UNL     1       5.580   5.176  17.016  0.00  0.00    +0.000 A 
ATOM     18  C   UNL     1       5.002   3.934  16.800  0.00  0.00    +0.000 A 
ATOM     19  C   UNL     1       3.660   3.739  17.111  0.00  0.00    +0.000 A 
ATOM     20  C   UNL     1       2.865   4.785  17.625  0.00  0.00    +0.000 A 
ATOM     21  C   UNL     1       1.420   4.451  17.904  0.00  0.00    +0.000 C 
ENDBRANCH  12  15
ENDBRANCH   6   9
BRANCH   1  23
ATOM     22  C   UNL     1      -3.462  10.113  14.801  0.00  0.00    +0.000 C 
ATOM     23  O   UNL     1      -2.482  10.666  15.672  0.00  0.00    +0.000 OA
ENDBRANCH   1  23
BRANCH   4  24
ATOM     24  C   UNL     1      -1.847  12.179  21.321  0.00  0.00    +0.000 C 
BRANCH  24  25
ATOM     25  O   UNL     1      -1.046  13.223  21.866  0.00  0.00    +0.000 OA
ATOM     26  H   UNL     1      -0.416  12.780  22.465  0.00  0.00    +0.000 HD
ENDBRANCH  24  25
ENDBRANCH   4  24
TORSDOF 5
ENDMDL
MODEL 2
REMARK VINA RESULT:      -8.0      3.979      8.335
REMARK  Name = 
REMARK  7 active torsions:
REMARK  status: ('A' for Active; 'I' for Inactive)
REMARK    1  A    between atoms: C_1  and  O_2
REMARK    2  A    between atoms: O_2  and  N_3
REMARK    3  A    between atoms: C_6  and  C_7
REMARK    4  A    between atoms: C_7  and  O_8
REMARK    5  A    between atoms: C_10  and  C_12
REMARK    6  A    between atoms: C_15  and  C_16
REMARK    7  A    between atoms: C_21  and  C_22
REMARK                            x       y       z     vdW  Elec       q    Type
REMARK                         _______ _______ _______ _____ _____    ______ ____
ROOT
ATOM      1  N   UNL     1       1.796   2.083  19.540  0.00  0.00    +0.000 NA
ATOM      2  C   UNL     1       2.420   2.964  18.823  0.00  0.00    +0.000 C 
ATOM      3  C   UNL     1       3.369   2.568  17.740  0.00  0.00    +0.000 C 
ATOM      4  C   UNL     1       4.250   3.815  17.702  0.00  0.00    +0.000 C 
ATOM      5  N   UNL     1       3.331   4.921  18.037  0.00  0.00    +0.000 N 
ATOM      6  C   UNL     1       3.784   6.242  18.012  0.00  0.00    +0.000 C 
ATOM      7  O   UNL     1       4.925   6.546  17.667  0.00  0.00    +0.000 OA
ATOM      8  C   UNL     1       2.260   4.460  18.918  0.00  0.00    +0.000 C 
ENDROOT
BRANCH   6   9
ATOM      9  C   UNL     1       2.863   7.348  18.406  0.00  0.00    +0.000 A 
ATOM     10  C   UNL     1       2.325   7.363  19.695  0.00  0.00    +0.000 A 
ATOM     11  C   UNL     1       1.421   8.369  20.075  0.00  0.00    +0.000 A 
ATOM     12  C   UNL     1       1.043   9.400  19.191  0.00  0.00    +0.000 A 
ATOM     13  C   UNL     1       1.680   9.417  17.941  0.00  0.00    +0.000 A 
ATOM     14  C   UNL     1       2.581   8.417  17.556  0.00  0.00    +0.000 A 
BRANCH  12  15
ATOM     15  C   UNL     1       0.060  10.447  19.586  0.00  0.00    +0.000 A 
ATOM     16  C   UNL     1       0.326  11.224  20.737  0.00  0.00    +0.000 A 
ATOM     17  C   UNL     1      -0.549  12.216  21.188  0.00  0.00    +0.000 A 
ATOM     18  C   UNL     1      -1.716  12.476  20.488  0.00  0.00    +0.000 A 
ATOM     19  C   UNL     1      -2.008  11.742  19.344  0.00  0.00    +0.000 A 
ATOM     20  C   UNL     1      -1.149  10.719  18.887  0.00  0.00    +0.000 A 
ATOM     21  C   UNL     1      -1.587   9.984  17.645  0.00  0.00    +0.000 C 
ENDBRANCH  12  15
ENDBRANCH   6   9
BRANCH   1  23
ATOM     22  C   UNL     1       1.508   2.603  21.761  0.00  0.00    +0.000 C 
ATOM     23  O   UNL     1       0.949   2.723  20.458  0.00  0.00    +0.000 OA
ENDBRANCH   1  23
BRANCH   4  24
ATOM     24  C   UNL     1       4.998   3.926  16.365  0.00  0.00    +0.000 C 
BRANCH  24  25
ATOM     25  O   UNL     1       6.410   3.950  16.553  0.00  0.00    +0.000 OA
ATOM     26  H   UNL     1       6.730   4.698  16.016  0.00  0.00    +0.000 HD
ENDBRANCH  24  25
ENDBRANCH   4  24
TORSDOF 5
ENDMDL
MODEL 3
REMARK VINA RESULT:      -8.0      4.001      8.504
REMARK  Name = 
REMARK  7 active torsions:
REMARK  status: ('A' for Active; 'I' for Inactive)
REMARK    1  A    between atoms: C_1  and  O_2
REMARK    2  A    between atoms: O_2  and  N_3
REMARK    3  A    between atoms: C_6  and  C_7
REMARK    4  A    between atoms: C_7  and  O_8
REMARK    5  A    between atoms: C_10  and  C_12
REMARK    6  A    between atoms: C_15  and  C_16
REMARK    7  A    between atoms: C_21  and  C_22
REMARK                            x       y       z     vdW  Elec       q    Type
REMARK                         _______ _______ _______ _____ _____    ______ ____
ROOT
ATOM      1  N   UNL     1       7.571   6.648  17.089  0.00  0.00    +0.000 NA
ATOM      2  C   UNL     1       6.471   6.115  17.518  0.00  0.00    +0.000 C 
ATOM      3  C   UNL     1       6.366   4.655  17.816  0.00  0.00    +0.000 C 
ATOM      4  C   UNL     1       4.864   4.461  17.625  0.00  0.00    +0.000 C 
ATOM      5  N   UNL     1       4.272   5.740  18.068  0.00  0.00    +0.000 N 
ATOM      6  C   UNL     1       2.884   5.893  18.112  0.00  0.00    +0.000 C 
ATOM      7  O   UNL     1       2.107   4.979  17.843  0.00  0.00    +0.000 OA
ATOM      8  C   UNL     1       5.192   6.850  17.829  0.00  0.00    +0.000 C 
ENDROOT
BRANCH   6   9
ATOM      9  C   UNL     1       2.296   7.207  18.507  0.00  0.00    +0.000 A 
ATOM     10  C   UNL     1       1.992   7.443  19.849  0.00  0.00    +0.000 A 
ATOM     11  C   UNL     1       1.396   8.654  20.239  0.00  0.00    +0.000 A 
ATOM     12  C   UNL     1       1.105   9.672  19.308  0.00  0.00    +0.000 A 
ATOM     13  C   UNL     1       1.516   9.446  17.986  0.00  0.00    +0.000 A 
ATOM     14  C   UNL     1       2.110   8.241  17.591  0.00  0.00    +0.000 A 
BRANCH  12  15
ATOM     15  C   UNL     1       0.443  10.941  19.720  0.00  0.00    +0.000 A 
ATOM     16  C   UNL     1       1.149  11.827  20.566  0.00  0.00    +0.000 A 
ATOM     17  C   UNL     1       0.598  13.032  21.013  0.00  0.00    +0.000 A 
ATOM     18  C   UNL     1      -0.676  13.399  20.610  0.00  0.00    +0.000 A 
ATOM     19  C   UNL     1      -1.398  12.561  19.767  0.00  0.00    +0.000 A 
ATOM     20  C   UNL     1      -0.868  11.329  19.325  0.00  0.00    +0.000 A 
ATOM     21  C   UNL     1      -1.757  10.503  18.429  0.00  0.00    +0.000 C 
ENDBRANCH  12  15
ENDBRANCH   6   9
BRANCH   1  23
ATOM     22  C   UNL     1       8.169   8.711  17.909  0.00  0.00    +0.000 C 
ATOM     23  O   UNL     1       7.403   8.031  16.921  0.00  0.00    +0.000 OA
ENDBRANCH   1  23
BRANCH   4  24
ATOM     24  C   UNL     1       4.371   3.194  18.341  0.00  0.00    +0.000 C 
BRANCH  24  25
ATOM     25  O   UNL     1       5.250   2.811  19.395  0.00  0.00    +0.000 OA
ATOM     26  H   UNL     1       5.627   1.954  19.120  0.00  0.00    +0.000 HD
ENDBRANCH  24  25
ENDBRANCH   4  24
TORSDOF 5
ENDMDL
MODEL 4
REMARK VINA RESULT:      -7.8      4.240      8.514
REMARK  Name = 
REMARK  7 active torsions:
REMARK  status: ('A' for Active; 'I' for Inactive)
REMARK    1  A    between atoms: C_1  and  O_2
REMARK    2  A    between atoms: O_2  and  N_3
REMARK    3  A    between atoms: C_6  and  C_7
REMARK    4  A    between atoms: C_7  and  O_8
REMARK    5  A    between atoms: C_10  and  C_12
REMARK    6  A    between atoms: C_15  and  C_16
REMARK    7  A    between atoms: C_21  and  C_22
REMARK                            x       y       z     vdW  Elec       q    Type
REMARK                         _______ _______ _______ _____ _____    ______ ____
ROOT
ATOM      1  N   UNL     1       7.433   6.567  16.815  0.00  0.00    +0.000 NA
ATOM      2  C   UNL     1       6.354   5.986  17.238  0.00  0.00    +0.000 C 
ATOM      3  C   UNL     1       6.235   4.500  17.308  0.00  0.00    +0.000 C 
ATOM      4  C   UNL     1       4.718   4.358  17.205  0.00  0.00    +0.000 C 
ATOM      5  N   UNL     1       4.193   5.557  17.888  0.00  0.00    +0.000 N 
ATOM      6  C   UNL     1       2.816   5.720  18.061  0.00  0.00    +0.000 C 
ATOM      7  O   UNL     1       1.999   4.870  17.711  0.00  0.00    +0.000 OA
ATOM      8  C   UNL     1       5.120   6.679  17.758  0.00  0.00    +0.000 C 
ENDROOT
BRANCH   6   9
ATOM      9  C   UNL     1       2.292   6.961  18.703  0.00  0.00    +0.000 A 
ATOM     10  C   UNL     1       2.116   6.992  20.088  0.00  0.00    +0.000 A 
ATOM     11  C   UNL     1       1.581   8.133  20.709  0.00  0.00    +0.000 A 
ATOM     12  C   UNL     1       1.226   9.282  19.974  0.00  0.00    +0.000 A 
ATOM     13  C   UNL     1       1.510   9.257  18.601  0.00  0.00    +0.000 A 
ATOM     14  C   UNL     1       2.043   8.123  17.975  0.00  0.00    +0.000 A 
BRANCH  12  15
ATOM     15  C   UNL     1       0.629  10.477  20.632  0.00  0.00    +0.000 A 
ATOM     16  C   UNL     1       0.849  11.748  20.052  0.00  0.00    +0.000 A 
ATOM     17  C   UNL     1       0.339  12.923  20.612  0.00  0.00    +0.000 A 
ATOM     18  C   UNL     1      -0.427  12.862  21.765  0.00  0.00    +0.000 A 
ATOM     19  C   UNL     1      -0.676  11.630  22.359  0.00  0.00    +0.000 A 
ATOM     20  C   UNL     1      -0.149  10.435  21.822  0.00  0.00    +0.000 A 
ATOM     21  C   UNL     1      -0.477   9.166  22.569  0.00  0.00    +0.000 C 
ENDBRANCH  12  15
ENDBRANCH   6   9
BRANCH   1  23
ATOM     22  C   UNL     1       8.158   8.467  17.886  0.00  0.00    +0.000 C 
ATOM     23  O   UNL     1       7.287   7.961  16.882  0.00  0.00    +0.000 OA
ENDBRANCH   1  23
BRANCH   4  24
ATOM     24  C   UNL     1       4.248   3.000  17.747  0.00  0.00    +0.000 C 
BRANCH  24  25
ATOM     25  O   UNL     1       4.964   2.626  18.921  0.00  0.00    +0.000 OA
ATOM     26  H   UNL     1       5.817   3.094  18.864  0.00  0.00    +0.000 HD
ENDBRANCH  24  25
ENDBRANCH   4  24
TORSDOF 5
ENDMDL
MODEL 5
REMARK VINA RESULT:      -7.7      0.784      1.558
REMARK  Name = 
REMARK  7 active torsions:
REMARK  status: ('A' for Active; 'I' for Inactive)
REMARK    1  A    between atoms: C_1  and  O_2
REMARK    2  A    between atoms: O_2  and  N_3
REMARK    3  A    between atoms: C_6  and  C_7
REMARK    4  A    between atoms: C_7  and  O_8
REMARK    5  A    between atoms: C_10  and  C_12
REMARK    6  A    between atoms: C_15  and  C_16
REMARK    7  A    between atoms: C_21  and  C_22
REMARK                            x       y       z     vdW  Elec       q    Type
REMARK                         _______ _______ _______ _____ _____    ______ ____
ROOT
ATOM      1  N   UNL     1      -2.848  11.551  17.305  0.00  0.00    +0.000 NA
ATOM      2  C   UNL     1      -2.140  11.362  18.374  0.00  0.00    +0.000 C 
ATOM      3  C   UNL     1      -2.429  12.085  19.648  0.00  0.00    +0.000 C 
ATOM      4  C   UNL     1      -1.044  12.039  20.290  0.00  0.00    +0.000 C 
ATOM      5  N   UNL     1      -0.475  10.755  19.835  0.00  0.00    +0.000 N 
ATOM      6  C   UNL     1       0.771  10.334  20.305  0.00  0.00    +0.000 C 
ATOM      7  O   UNL     1       1.415  10.969  21.140  0.00  0.00    +0.000 OA
ATOM      8  C   UNL     1      -0.999  10.389  18.521  0.00  0.00    +0.000 C 
ENDROOT
BRANCH   6   9
ATOM      9  C   UNL     1       1.364   9.062  19.797  0.00  0.00    +0.000 A 
ATOM     10  C   UNL     1       1.853   9.011  18.489  0.00  0.00    +0.000 A 
ATOM     11  C   UNL     1       2.374   7.812  17.974  0.00  0.00    +0.000 A 
ATOM     12  C   UNL     1       2.443   6.638  18.750  0.00  0.00    +0.000 A 
ATOM     13  C   UNL     1       2.042   6.749  20.089  0.00  0.00    +0.000 A 
ATOM     14  C   UNL     1       1.520   7.940  20.609  0.00  0.00    +0.000 A 
BRANCH  12  15
ATOM     15  C   UNL     1       2.967   5.361  18.190  0.00  0.00    +0.000 A 
ATOM     16  C   UNL     1       2.059   4.301  17.961  0.00  0.00    +0.000 A 
ATOM     17  C   UNL     1       2.467   3.065  17.452  0.00  0.00    +0.000 A 
ATOM     18  C   UNL     1       3.800   2.854  17.137  0.00  0.00    +0.000 A 
ATOM     19  C   UNL     1       4.722   3.876  17.336  0.00  0.00    +0.000 A 
ATOM     20  C   UNL     1       4.333   5.123  17.872  0.00  0.00    +0.000 A 
ATOM     21  C   UNL     1       5.430   6.142  18.056  0.00  0.00    +0.000 C 
ENDBRANCH  12  15
ENDBRANCH   6   9
BRANCH   1  23
ATOM     22  C   UNL     1      -3.303  10.788  15.185  0.00  0.00    +0.000 C 
ATOM     23  O   UNL     1      -2.382  10.728  16.268  0.00  0.00    +0.000 OA
ENDBRANCH   1  23
BRANCH   4  24
ATOM     24  C   UNL     1      -1.128  12.252  21.809  0.00  0.00    +0.000 C 
BRANCH  24  25
ATOM     25  O   UNL     1      -0.089  13.106  22.278  0.00  0.00    +0.000 OA
ATOM     26  H   UNL     1       0.290  13.516  21.479  0.00  0.00    +0.000 HD
ENDBRANCH  24  25
ENDBRANCH   4  24
TORSDOF 5
ENDMDL
MODEL 6
REMARK VINA RESULT:      -7.6      1.349      1.696
REMARK  Name = 
REMARK  7 active torsions:
REMARK  status: ('A' for Active; 'I' for Inactive)
REMARK    1  A    between atoms: C_1  and  O_2
REMARK    2  A    between atoms: O_2  and  N_3
REMARK    3  A    between atoms: C_6  and  C_7
REMARK    4  A    between atoms: C_7  and  O_8
REMARK    5  A    between atoms: C_10  and  C_12
REMARK    6  A    between atoms: C_15  and  C_16
REMARK    7  A    between atoms: C_21  and  C_22
REMARK                            x       y       z     vdW  Elec       q    Type
REMARK                         _______ _______ _______ _____ _____    ______ ____
ROOT
ATOM      1  N   UNL     1      -3.508  10.783  16.990  0.00  0.00    +0.000 NA
ATOM      2  C   UNL     1      -2.718  10.991  17.996  0.00  0.00    +0.000 C 
ATOM      3  C   UNL     1      -2.976  12.076  18.989  0.00  0.00    +0.000 C 
ATOM      4  C   UNL     1      -1.552  12.312  19.488  0.00  0.00    +0.000 C 
ATOM      5  N   UNL     1      -0.919  10.979  19.424  0.00  0.00    +0.000 N 
ATOM      6  C   UNL     1       0.384  10.798  19.894  0.00  0.00    +0.000 C 
ATOM      7  O   UNL     1       1.031  11.703  20.420  0.00  0.00    +0.000 OA
ATOM      8  C   UNL     1      -1.500  10.177  18.350  0.00  0.00    +0.000 C 
ENDROOT
BRANCH   6   9
ATOM      9  C   UNL     1       1.036   9.461  19.774  0.00  0.00    +0.000 A 
ATOM     10  C   UNL     1       0.989   8.579  20.857  0.00  0.00    +0.000 A 
ATOM     11  C   UNL     1       1.635   7.333  20.784  0.00  0.00    +0.000 A 
ATOM     12  C   UNL     1       2.326   6.922  19.627  0.00  0.00    +0.000 A 
ATOM     13  C   UNL     1       2.267   7.784  18.523  0.00  0.00    +0.000 A 
ATOM     14  C   UNL     1       1.626   9.027  18.589  0.00  0.00    +0.000 A 
BRANCH  12  15
ATOM     15  C   UNL     1       3.036   5.613  19.565  0.00  0.00    +0.000 A 
ATOM     16  C   UNL     1       4.405   5.604  19.209  0.00  0.00    +0.000 A 
ATOM     17  C   UNL     1       5.143   4.421  19.112  0.00  0.00    +0.000 A 
ATOM     18  C   UNL     1       4.538   3.205  19.388  0.00  0.00    +0.000 A 
ATOM     19  C   UNL     1       3.196   3.174  19.754  0.00  0.00    +0.000 A 
ATOM     20  C   UNL     1       2.428   4.355  19.833  0.00  0.00    +0.000 A 
ATOM     21  C   UNL     1       0.981   4.186  20.223  0.00  0.00    +0.000 C 
ENDBRANCH  12  15
ENDBRANCH   6   9
BRANCH   1  23
ATOM     22  C   UNL     1      -2.988  10.069  14.867  0.00  0.00    +0.000 C 
ATOM     23  O   UNL     1      -3.051   9.690  16.237  0.00  0.00    +0.000 OA
ENDBRANCH   1  23
BRANCH   4  24
ATOM     24  C   UNL     1      -1.551  13.006  20.858  0.00  0.00    +0.000 C 
BRANCH  24  25
ATOM     25  O   UNL     1      -2.353  12.304  21.804  0.00  0.00    +0.000 OA
ATOM     26  H   UNL     1      -3.030  11.841  21.276  0.00  0.00    +0.000 HD
ENDBRANCH  24  25
ENDBRANCH   4  24
TORSDOF 5
ENDMDL
MODEL 7
REMARK VINA RESULT:      -7.6      3.987      8.401
REMARK  Name = 
REMARK  7 active torsions:
REMARK  status: ('A' for Active; 'I' for Inactive)
REMARK    1  A    between atoms: C_1  and  O_2
REMARK    2  A    between atoms: O_2  and  N_3
REMARK    3  A    between atoms: C_6  and  C_7
REMARK    4  A    between atoms: C_7  and  O_8
REMARK    5  A    between atoms: C_10  and  C_12
REMARK    6  A    between atoms: C_15  and  C_16
REMARK    7  A    between atoms: C_21  and  C_22
REMARK                            x       y       z     vdW  Elec       q    Type
REMARK                         _______ _______ _______ _____ _____    ______ ____
ROOT
ATOM      1  N   UNL     1       1.845   2.147  19.553  0.00  0.00    +0.000 NA
ATOM      2  C   UNL     1       2.508   3.019  18.861  0.00  0.00    +0.000 C 
ATOM      3  C   UNL     1       3.546   2.612  17.867  0.00  0.00    +0.000 C 
ATOM      4  C   UNL     1       4.404   3.875  17.860  0.00  0.00    +0.000 C 
ATOM      5  N   UNL     1       3.441   4.971  18.088  0.00  0.00    +0.000 N 
ATOM      6  C   UNL     1       3.870   6.300  18.058  0.00  0.00    +0.000 C 
ATOM      7  O   UNL     1       5.029   6.617  17.794  0.00  0.00    +0.000 OA
ATOM      8  C   UNL     1       2.313   4.513  18.896  0.00  0.00    +0.000 C 
ENDROOT
BRANCH   6   9
ATOM      9  C   UNL     1       2.901   7.398  18.345  0.00  0.00    +0.000 A 
ATOM     10  C   UNL     1       2.289   7.458  19.599  0.00  0.00    +0.000 A 
ATOM     11  C   UNL     1       1.339   8.456  19.877  0.00  0.00    +0.000 A 
ATOM     12  C   UNL     1       0.988   9.433  18.924  0.00  0.00    +0.000 A 
ATOM     13  C   UNL     1       1.695   9.408  17.713  0.00  0.00    +0.000 A 
ATOM     14  C   UNL     1       2.641   8.417  17.429  0.00  0.00    +0.000 A 
BRANCH  12  15
ATOM     15  C   UNL     1      -0.043  10.470  19.212  0.00  0.00    +0.000 A 
ATOM     16  C   UNL     1      -1.338  10.303  18.671  0.00  0.00    +0.000 A 
ATOM     17  C   UNL     1      -2.360  11.234  18.878  0.00  0.00    +0.000 A 
ATOM     18  C   UNL     1      -2.123  12.359  19.652  0.00  0.00    +0.000 A 
ATOM     19  C   UNL     1      -0.864  12.552  20.213  0.00  0.00    +0.000 A 
ATOM     20  C   UNL     1       0.187  11.636  19.995  0.00  0.00    +0.000 A 
ATOM     21  C   UNL     1       1.508  11.969  20.643  0.00  0.00    +0.000 C 
ENDBRANCH  12  15
ENDBRANCH   6   9
BRANCH   1  23
ATOM     22  C   UNL     1       1.354   2.692  21.732  0.00  0.00    +0.000 C 
ATOM     23  O   UNL     1       0.917   2.796  20.382  0.00  0.00    +0.000 OA
ENDBRANCH   1  23
BRANCH   4  24
ATOM     24  C   UNL     1       5.252   3.963  16.583  0.00  0.00    +0.000 C 
BRANCH  24  25
ATOM     25  O   UNL     1       6.639   4.094  16.881  0.00  0.00    +0.000 OA
ATOM     26  H   UNL     1       6.953   4.838  16.334  0.00  0.00    +0.000 HD
ENDBRANCH  24  25
ENDBRANCH   4  24
TORSDOF 5
ENDMDL
MODEL 8
REMARK VINA RESULT:      -7.6      4.133      8.579
REMARK  Name = 
REMARK  7 active torsions:
REMARK  status: ('A' for Active; 'I' for Inactive)
REMARK    1  A    between atoms: C_1  and  O_2
REMARK    2  A    between atoms: O_2  and  N_3
REMARK    3  A    between atoms: C_6  and  C_7
REMARK    4  A    between atoms: C_7  and  O_8
REMARK    5  A    between atoms: C_10  and  C_12
REMARK    6  A    between atoms: C_15  and  C_16
REMARK    7  A    between atoms: C_21  and  C_22
REMARK                            x       y       z     vdW  Elec       q    Type
REMARK                         _______ _______ _______ _____ _____    ______ ____
ROOT
ATOM      1  N   UNL     1       7.406   6.145  17.204  0.00  0.00    +0.000 NA
ATOM      2  C   UNL     1       6.312   5.746  17.773  0.00  0.00    +0.000 C 
ATOM      3  C   UNL     1       6.182   4.378  18.358  0.00  0.00    +0.000 C 
ATOM      4  C   UNL     1       4.668   4.204  18.269  0.00  0.00    +0.000 C 
ATOM      5  N   UNL     1       4.132   5.565  18.474  0.00  0.00    +0.000 N 
ATOM      6  C   UNL     1       2.752   5.773  18.541  0.00  0.00    +0.000 C 
ATOM      7  O   UNL     1       1.939   4.851  18.490  0.00  0.00    +0.000 OA
ATOM      8  C   UNL     1       5.069   6.573  17.983  0.00  0.00    +0.000 C 
ENDROOT
BRANCH   6   9
ATOM      9  C   UNL     1       2.219   7.158  18.691  0.00  0.00    +0.000 A 
ATOM     10  C   UNL     1       1.913   7.638  19.967  0.00  0.00    +0.000 A 
ATOM     11  C   UNL     1       1.367   8.922  20.129  0.00  0.00    +0.000 A 
ATOM     12  C   UNL     1       1.129   9.773  19.031  0.00  0.00    +0.000 A 
ATOM     13  C   UNL     1       1.542   9.303  17.776  0.00  0.00    +0.000 A 
ATOM     14  C   UNL     1       2.087   8.024  17.607  0.00  0.00    +0.000 A 
BRANCH  12  15
ATOM     15  C   UNL     1       0.520  11.121  19.204  0.00  0.00    +0.000 A 
ATOM     16  C   UNL     1      -0.781  11.210  19.752  0.00  0.00    +0.000 A 
ATOM     17  C   UNL     1      -1.433  12.432  19.935  0.00  0.00    +0.000 A 
ATOM     18  C   UNL     1      -0.794  13.613  19.591  0.00  0.00    +0.000 A 
ATOM     19  C   UNL     1       0.491  13.569  19.060  0.00  0.00    +0.000 A 
ATOM     20  C   UNL     1       1.156  12.342  18.845  0.00  0.00    +0.000 A 
ATOM     21  C   UNL     1       2.538  12.428  18.248  0.00  0.00    +0.000 C 
ENDBRANCH  12  15
ENDBRANCH   6   9
BRANCH   1  23
ATOM     22  C   UNL     1       7.982   8.322  17.662  0.00  0.00    +0.000 C 
ATOM     23  O   UNL     1       7.267   7.473  16.772  0.00  0.00    +0.000 OA
ENDBRANCH   1  23
BRANCH   4  24
ATOM     24  C   UNL     1       4.175   3.121  19.241  0.00  0.00    +0.000 C 
BRANCH  24  25
ATOM     25  O   UNL     1       5.222   2.225  19.604  0.00  0.00    +0.000 OA
ATOM     26  H   UNL     1       6.046   2.739  19.513  0.00  0.00    +0.000 HD
ENDBRANCH  24  25
ENDBRANCH   4  24
TORSDOF 5
ENDMDL
MODEL 9
REMARK VINA RESULT:      -7.5      4.090      8.464
REMARK  Name = 
REMARK  7 active torsions:
REMARK  status: ('A' for Active; 'I' for Inactive)
REMARK    1  A    between atoms: C_1  and  O_2
REMARK    2  A    between atoms: O_2  and  N_3
REMARK    3  A    between atoms: C_6  and  C_7
REMARK    4  A    between atoms: C_7  and  O_8
REMARK    5  A    between atoms: C_10  and  C_12
REMARK    6  A    between atoms: C_15  and  C_16
REMARK    7  A    between atoms: C_21  and  C_22
REMARK                            x       y       z     vdW  Elec       q    Type
REMARK                         _______ _______ _______ _____ _____    ______ ____
ROOT
ATOM      1  N   UNL     1       7.719   6.743  17.414  0.00  0.00    +0.000 NA
ATOM      2  C   UNL     1       6.648   6.180  17.879  0.00  0.00    +0.000 C 
ATOM      3  C   UNL     1       6.634   4.752  18.316  0.00  0.00    +0.000 C 
ATOM      4  C   UNL     1       5.152   4.439  18.127  0.00  0.00    +0.000 C 
ATOM      5  N   UNL     1       4.469   5.711  18.436  0.00  0.00    +0.000 N 
ATOM      6  C   UNL     1       3.074   5.774  18.447  0.00  0.00    +0.000 C 
ATOM      7  O   UNL     1       2.364   4.787  18.259  0.00  0.00    +0.000 OA
ATOM      8  C   UNL     1       5.318   6.853  18.101  0.00  0.00    +0.000 C 
ENDROOT
BRANCH   6   9
ATOM      9  C   UNL     1       2.392   7.076  18.705  0.00  0.00    +0.000 A 
ATOM     10  C   UNL     1       2.116   7.927  17.632  0.00  0.00    +0.000 A 
ATOM     11  C   UNL     1       1.516   9.177  17.855  0.00  0.00    +0.000 A 
ATOM     12  C   UNL     1       1.156   9.609  19.148  0.00  0.00    +0.000 A 
ATOM     13  C   UNL     1       1.351   8.691  20.190  0.00  0.00    +0.000 A 
ATOM     14  C   UNL     1       1.949   7.443  19.974  0.00  0.00    +0.000 A 
BRANCH  12  15
ATOM     15  C   UNL     1       0.550  10.949  19.384  0.00  0.00    +0.000 A 
ATOM     16  C   UNL     1       1.291  11.906  20.115  0.00  0.00    +0.000 A 
ATOM     17  C   UNL     1       0.792  13.181  20.395  0.00  0.00    +0.000 A 
ATOM     18  C   UNL     1      -0.463  13.548  19.934  0.00  0.00    +0.000 A 
ATOM     19  C   UNL     1      -1.217  12.639  19.201  0.00  0.00    +0.000 A 
ATOM     20  C   UNL     1      -0.741  11.338  18.929  0.00  0.00    +0.000 A 
ATOM     21  C   UNL     1      -1.662  10.442  18.140  0.00  0.00    +0.000 C 
ENDBRANCH  12  15
ENDBRANCH   6   9
BRANCH   1  23
ATOM     22  C   UNL     1       8.239   8.911  17.973  0.00  0.00    +0.000 C 
ATOM     23  O   UNL     1       7.462   8.089  17.110  0.00  0.00    +0.000 OA
ENDBRANCH   1  23
BRANCH   4  24
ATOM     24  C   UNL     1       4.732   3.217  18.956  0.00  0.00    +0.000 C 
BRANCH  24  25
ATOM     25  O   UNL     1       4.068   2.242  18.157  0.00  0.00    +0.000 OA
ATOM     26  H   UNL     1       4.304   1.381  18.549  0.00  0.00    +0.000 HD
ENDBRANCH  24  25
ENDBRANCH   4  24
TORSDOF 5
ENDMDL
