MODEL 1
REMARK VINA RESULT:      -7.8      0.000      0.000
REMARK  Name = 
REMARK  5 active torsions:
REMARK  status: ('A' for Active; 'I' for Inactive)
REMARK    1  A    between atoms: C_2  and  C_3
REMARK    2  A    between atoms: C_2  and  C_4
REMARK    3  A    between atoms: C_4  and  N_5
REMARK    4  A    between atoms: N_5  and  C_6
REMARK    5  A    between atoms: N_15  and  C_16
REMARK                            x       y       z     vdW  Elec       q    Type
REMARK                         _______ _______ _______ _____ _____    ______ ____
ROOT
ATOM      1  C   UNL     1       6.065   3.765  13.391  0.00  0.00    +0.000 A 
ATOM      2  N   UNL     1       6.979   4.304  12.547  0.00  0.00    +0.000 NA
ATOM      3  C   UNL     1       7.895   5.162  13.012  0.00  0.00    +0.000 A 
ATOM      4  N   UNL     1       8.000   5.635  14.251  0.00  0.00    +0.000 NA
ATOM      5  C   UNL     1       7.053   5.150  15.067  0.00  0.00    +0.000 A 
ATOM      6  S   UNL     1       7.005   5.668  16.696  0.00  0.00    +0.000 S 
ATOM      7  C   UNL     1       5.663   4.697  17.018  0.00  0.00    +0.000 A 
ATOM      8  C   UNL     1       5.011   4.596  18.302  0.00  0.00    +0.000 A 
ATOM      9  O   UNL     1       5.388   5.207  19.294  0.00  0.00    +0.000 OA
ATOM     10  N   UNL     1       3.883   3.758  18.270  0.00  0.00    +0.000 N 
ATOM     11  C   UNL     1       3.530   3.113  17.104  0.00  0.00    +0.000 A 
ATOM     12  N   UNL     1       4.120   3.200  15.958  0.00  0.00    +0.000 NA
ATOM     13  C   UNL     1       5.245   4.027  15.909  0.00  0.00    +0.000 A 
ATOM     14  C   UNL     1       6.055   4.231  14.737  0.00  0.00    +0.000 A 
ENDROOT
BRANCH  10  15
ATOM     15  C   UNL     1       3.071   3.575  19.422  0.00  0.00    +0.000 A 
ATOM     16  C   UNL     1       3.477   2.684  20.427  0.00  0.00    +0.000 A 
ATOM     17  C   UNL     1       2.690   2.497  21.564  0.00  0.00    +0.000 A 
ATOM     18  C   UNL     1       1.513   3.224  21.721  0.00  0.00    +0.000 A 
ATOM     19  C   UNL     1       1.115   4.128  20.736  0.00  0.00    +0.000 A 
ATOM     20  C   UNL     1       1.883   4.294  19.583  0.00  0.00    +0.000 A 
ENDBRANCH  10  15
BRANCH   1  21
ATOM     21  N   UNL     1       5.263   2.794  12.789  0.00  0.00    +0.000 N 
ATOM     22  H   UNL     1       5.210   1.983  13.394  0.00  0.00    +0.000 HD
BRANCH  21  23
ATOM     23  C   UNL     1       5.434   2.494  11.390  0.00  0.00    +0.000 C 
BRANCH  23  25
ATOM     24  C   UNL     1       7.714   1.747  10.774  0.00  0.00    +0.000 C 
ATOM     25  C   UNL     1       6.470   1.425  11.171  0.00  0.00    +0.000 C 
ATOM     26  C   UNL     1       6.014  -0.001  11.278  0.00  0.00    +0.000 C 
ENDBRANCH  23  25
ENDBRANCH  21  23
ENDBRANCH   1  21
TORSDOF 4
ENDMDL
MODEL 2
REMARK VINA RESULT:      -7.7      0.054      1.197
REMARK  Name = 
REMARK  5 active torsions:
REMARK  status: ('A' for Active; 'I' for Inactive)
REMARK    1  A    between atoms: C_2  and  C_3
REMARK    2  A    between atoms: C_2  and  C_4
REMARK    3  A    between atoms: C_4  and  N_5
REMARK    4  A    between atoms: N_5  and  C_6
REMARK    5  A    between atoms: N_15  and  C_16
REMARK                            x       y       z     vdW  Elec       q    Type
REMARK                         _______ _______ _______ _____ _____    ______ ____
ROOT
ATOM      1  C   UNL     1       6.095   3.744  13.422  0.00  0.00    +0.000 A 
ATOM      2  N   UNL     1       6.998   4.290  12.572  0.00  0.00    +0.000 NA
ATOM      3  C   UNL     1       7.898   5.170  13.025  0.00  0.00    +0.000 A 
ATOM      4  N   UNL     1       7.995   5.660  14.259  0.00  0.00    +0.000 NA
ATOM      5  C   UNL     1       7.057   5.166  15.082  0.00  0.00    +0.000 A 
ATOM      6  S   UNL     1       7.000   5.703  16.704  0.00  0.00    +0.000 S 
ATOM      7  C   UNL     1       5.676   4.710  17.038  0.00  0.00    +0.000 A 
ATOM      8  C   UNL     1       5.028   4.612  18.324  0.00  0.00    +0.000 A 
ATOM      9  O   UNL     1       5.393   5.243  19.309  0.00  0.00    +0.000 OA
ATOM     10  N   UNL     1       3.916   3.754  18.302  0.00  0.00    +0.000 N 
ATOM     11  C   UNL     1       3.574   3.088  17.144  0.00  0.00    +0.000 A 
ATOM     12  N   UNL     1       4.162   3.173  15.997  0.00  0.00    +0.000 NA
ATOM     13  C   UNL     1       5.271   4.020  15.938  0.00  0.00    +0.000 A 
ATOM     14  C   UNL     1       6.076   4.226  14.762  0.00  0.00    +0.000 A 
ENDROOT
BRANCH  10  15
ATOM     15  C   UNL     1       3.107   3.569  19.457  0.00  0.00    +0.000 A 
ATOM     16  C   UNL     1       1.895   4.266  19.579  0.00  0.00    +0.000 A 
ATOM     17  C   UNL     1       1.091   4.090  20.705  0.00  0.00    +0.000 A 
ATOM     18  C   UNL     1       1.473   3.193  21.698  0.00  0.00    +0.000 A 
ATOM     19  C   UNL     1       2.665   2.479  21.573  0.00  0.00    +0.000 A 
ATOM     20  C   UNL     1       3.488   2.676  20.463  0.00  0.00    +0.000 A 
ENDBRANCH  10  15
BRANCH   1  21
ATOM     21  N   UNL     1       5.310   2.751  12.832  0.00  0.00    +0.000 N 
ATOM     22  H   UNL     1       5.332   1.920  13.412  0.00  0.00    +0.000 HD
BRANCH  21  23
ATOM     23  C   UNL     1       5.419   2.503  11.417  0.00  0.00    +0.000 C 
BRANCH  23  25
ATOM     24  C   UNL     1       6.017   0.105  11.261  0.00  0.00    +0.000 C 
ATOM     25  C   UNL     1       6.386   1.390  11.118  0.00  0.00    +0.000 C 
ATOM     26  C   UNL     1       7.800   1.779  10.798  0.00  0.00    +0.000 C 
ENDBRANCH  23  25
ENDBRANCH  21  23
ENDBRANCH   1  21
TORSDOF 4
ENDMDL
MODEL 3
REMARK VINA RESULT:      -7.5      1.067      1.933
REMARK  Name = 
REMARK  5 active torsions:
REMARK  status: ('A' for Active; 'I' for Inactive)
REMARK    1  A    between atoms: C_2  and  C_3
REMARK    2  A    between atoms: C_2  and  C_4
REMARK    3  A    between atoms: C_4  and  N_5
REMARK    4  A    between atoms: N_5  and  C_6
REMARK    5  A    between atoms: N_15  and  C_16
REMARK                            x       y       z     vdW  Elec       q    Type
REMARK                         _______ _______ _______ _____ _____    ______ ____
ROOT
ATOM      1  C   UNL     1       5.933   3.989  13.267  0.00  0.00    +0.000 A 
ATOM      2  N   UNL     1       6.877   4.489  12.433  0.00  0.00    +0.000 NA
ATOM      3  C   UNL     1       7.899   5.199  12.927  0.00  0.00    +0.000 A 
ATOM      4  N   UNL     1       8.093   5.556  14.194  0.00  0.00    +0.000 NA
ATOM      5  C   UNL     1       7.119   5.115  15.006  0.00  0.00    +0.000 A 
ATOM      6  S   UNL     1       7.178   5.503  16.670  0.00  0.00    +0.000 S 
ATOM      7  C   UNL     1       5.743   4.665  16.967  0.00  0.00    +0.000 A 
ATOM      8  C   UNL     1       5.122   4.534  18.263  0.00  0.00    +0.000 A 
ATOM      9  O   UNL     1       5.594   5.018  19.284  0.00  0.00    +0.000 OA
ATOM     10  N   UNL     1       3.905   3.834  18.209  0.00  0.00    +0.000 N 
ATOM     11  C   UNL     1       3.446   3.327  17.011  0.00  0.00    +0.000 A 
ATOM     12  N   UNL     1       4.010   3.440  15.853  0.00  0.00    +0.000 NA
ATOM     13  C   UNL     1       5.220   4.137  15.826  0.00  0.00    +0.000 A 
ATOM     14  C   UNL     1       6.014   4.344  14.643  0.00  0.00    +0.000 A 
ENDROOT
BRANCH  10  15
ATOM     15  C   UNL     1       3.110   3.650  19.373  0.00  0.00    +0.000 A 
ATOM     16  C   UNL     1       1.948   4.416  19.552  0.00  0.00    +0.000 A 
ATOM     17  C   UNL     1       1.157   4.243  20.688  0.00  0.00    +0.000 A 
ATOM     18  C   UNL     1       1.501   3.281  21.634  0.00  0.00    +0.000 A 
ATOM     19  C   UNL     1       2.642   2.499  21.450  0.00  0.00    +0.000 A 
ATOM     20  C   UNL     1       3.453   2.691  20.331  0.00  0.00    +0.000 A 
ENDBRANCH  10  15
BRANCH   1  21
ATOM     21  N   UNL     1       5.007   3.166  12.622  0.00  0.00    +0.000 N 
ATOM     22  H   UNL     1       5.037   2.241  13.037  0.00  0.00    +0.000 HD
BRANCH  21  23
ATOM     23  C   UNL     1       4.921   3.180  11.184  0.00  0.00    +0.000 C 
BRANCH  23  25
ATOM     24  C   UNL     1       2.599   2.326  11.064  0.00  0.00    +0.000 C 
ATOM     25  C   UNL     1       3.495   3.265  10.711  0.00  0.00    +0.000 C 
ATOM     26  C   UNL     1       3.164   4.351   9.729  0.00  0.00    +0.000 C 
ENDBRANCH  23  25
ENDBRANCH  21  23
ENDBRANCH   1  21
TORSDOF 4
ENDMDL
MODEL 4
REMARK VINA RESULT:      -7.5      6.773      9.799
REMARK  Name = 
REMARK  5 active torsions:
REMARK  status: ('A' for Active; 'I' for Inactive)
REMARK    1  A    between atoms: C_2  and  C_3
REMARK    2  A    between atoms: C_2  and  C_4
REMARK    3  A    between atoms: C_4  and  N_5
REMARK    4  A    between atoms: N_5  and  C_6
REMARK    5  A    between atoms: N_15  and  C_16
REMARK                            x       y       z     vdW  Elec       q    Type
REMARK                         _______ _______ _______ _____ _____    ______ ____
ROOT
ATOM      1  C   UNL     1       0.600  12.134  19.644  0.00  0.00    +0.000 A 
ATOM      2  N   UNL     1      -0.032  12.980  20.494  0.00  0.00    +0.000 NA
ATOM      3  C   UNL     1      -0.334  12.580  21.735  0.00  0.00    +0.000 A 
ATOM      4  N   UNL     1      -0.143  11.373  22.261  0.00  0.00    +0.000 NA
ATOM      5  C   UNL     1       0.423  10.519  21.393  0.00  0.00    +0.000 A 
ATOM      6  S   UNL     1       0.718   8.906  21.878  0.00  0.00    +0.000 S 
ATOM      7  C   UNL     1       1.378   8.522  20.372  0.00  0.00    +0.000 A 
ATOM      8  C   UNL     1       1.900   7.226  20.012  0.00  0.00    +0.000 A 
ATOM      9  O   UNL     1       1.923   6.275  20.783  0.00  0.00    +0.000 OA
ATOM     10  N   UNL     1       2.333   7.172  18.676  0.00  0.00    +0.000 N 
ATOM     11  C   UNL     1       2.264   8.294  17.877  0.00  0.00    +0.000 A 
ATOM     12  N   UNL     1       1.802   9.455  18.206  0.00  0.00    +0.000 NA
ATOM     13  C   UNL     1       1.341   9.582  19.519  0.00  0.00    +0.000 A 
ATOM     14  C   UNL     1       0.819  10.798  20.085  0.00  0.00    +0.000 A 
ENDROOT
BRANCH  10  15
ATOM     15  C   UNL     1       2.827   5.965  18.111  0.00  0.00    +0.000 A 
ATOM     16  C   UNL     1       4.188   5.851  17.790  0.00  0.00    +0.000 A 
ATOM     17  C   UNL     1       4.686   4.670  17.238  0.00  0.00    +0.000 A 
ATOM     18  C   UNL     1       3.836   3.585  17.037  0.00  0.00    +0.000 A 
ATOM     19  C   UNL     1       2.487   3.684  17.376  0.00  0.00    +0.000 A 
ATOM     20  C   UNL     1       1.979   4.874  17.898  0.00  0.00    +0.000 A 
ENDBRANCH  10  15
BRANCH   1  21
ATOM     21  N   UNL     1       0.962  12.734  18.436  0.00  0.00    +0.000 N 
ATOM     22  H   UNL     1       0.434  12.310  17.681  0.00  0.00    +0.000 HD
BRANCH  21  23
ATOM     23  C   UNL     1       2.354  12.966  18.143  0.00  0.00    +0.000 C 
BRANCH  23  25
ATOM     24  C   UNL     1       1.784  15.334  18.589  0.00  0.00    +0.000 C 
ATOM     25  C   UNL     1       2.721  14.417  18.292  0.00  0.00    +0.000 C 
ATOM     26  C   UNL     1       4.132  14.804  17.957  0.00  0.00    +0.000 C 
ENDBRANCH  23  25
ENDBRANCH  21  23
ENDBRANCH   1  21
TORSDOF 4
ENDMDL
MODEL 5
REMARK VINA RESULT:      -7.4      3.997      6.695
REMARK  Name = 
REMARK  5 active torsions:
REMARK  status: ('A' for Active; 'I' for Inactive)
REMARK    1  A    between atoms: C_2  and  C_3
REMARK    2  A    between atoms: C_2  and  C_4
REMARK    3  A    between atoms: C_4  and  N_5
REMARK    4  A    between atoms: N_5  and  C_6
REMARK    5  A    between atoms: N_15  and  C_16
REMARK                            x       y       z     vdW  Elec       q    Type
REMARK                         _______ _______ _______ _____ _____    ______ ____
ROOT
ATOM      1  C   UNL     1       4.084   3.986  18.481  0.00  0.00    +0.000 A 
ATOM      2  N   UNL     1       4.803   3.439  17.470  0.00  0.00    +0.000 NA
ATOM      3  C   UNL     1       5.186   4.197  16.435  0.00  0.00    +0.000 A 
ATOM      4  N   UNL     1       4.888   5.475  16.219  0.00  0.00    +0.000 NA
ATOM      5  C   UNL     1       4.120   5.994  17.190  0.00  0.00    +0.000 A 
ATOM      6  S   UNL     1       3.605   7.620  17.071  0.00  0.00    +0.000 S 
ATOM      7  C   UNL     1       2.767   7.514  18.533  0.00  0.00    +0.000 A 
ATOM      8  C   UNL     1       2.028   8.597  19.136  0.00  0.00    +0.000 A 
ATOM      9  O   UNL     1       1.952   9.714  18.640  0.00  0.00    +0.000 OA
ATOM     10  N   UNL     1       1.380   8.212  20.322  0.00  0.00    +0.000 N 
ATOM     11  C   UNL     1       1.518   6.928  20.805  0.00  0.00    +0.000 A 
ATOM     12  N   UNL     1       2.187   5.962  20.265  0.00  0.00    +0.000 NA
ATOM     13  C   UNL     1       2.849   6.267  19.074  0.00  0.00    +0.000 A 
ATOM     14  C   UNL     1       3.668   5.340  18.337  0.00  0.00    +0.000 A 
ENDROOT
BRANCH  10  15
ATOM     15  C   UNL     1       0.553   9.121  21.036  0.00  0.00    +0.000 A 
ATOM     16  C   UNL     1       0.479   9.044  22.436  0.00  0.00    +0.000 A 
ATOM     17  C   UNL     1      -0.327   9.933  23.149  0.00  0.00    +0.000 A 
ATOM     18  C   UNL     1      -1.034  10.924  22.474  0.00  0.00    +0.000 A 
ATOM     19  C   UNL     1      -0.947  11.020  21.085  0.00  0.00    +0.000 A 
ATOM     20  C   UNL     1      -0.168  10.114  20.365  0.00  0.00    +0.000 A 
ENDBRANCH  10  15
BRANCH   1  21
ATOM     21  N   UNL     1       3.871   3.106  19.544  0.00  0.00    +0.000 N 
ATOM     22  H   UNL     1       4.766   2.815  19.921  0.00  0.00    +0.000 HD
BRANCH  21  23
ATOM     23  C   UNL     1       2.898   2.051  19.414  0.00  0.00    +0.000 C 
BRANCH  23  25
ATOM     24  C   UNL     1       0.559   2.764  19.023  0.00  0.00    +0.000 C 
ATOM     25  C   UNL     1       1.540   2.480  19.898  0.00  0.00    +0.000 C 
ATOM     26  C   UNL     1       1.380   2.709  21.372  0.00  0.00    +0.000 C 
ENDBRANCH  23  25
ENDBRANCH  21  23
ENDBRANCH   1  21
TORSDOF 4
ENDMDL
MODEL 6
REMARK VINA RESULT:      -7.4      5.234      7.362
REMARK  Name = 
REMARK  5 active torsions:
REMARK  status: ('A' for Active; 'I' for Inactive)
REMARK    1  A    between atoms: C_2  and  C_3
REMARK    2  A    between atoms: C_2  and  C_4
REMARK    3  A    between atoms: C_4  and  N_5
REMARK    4  A    between atoms: N_5  and  C_6
REMARK    5  A    between atoms: N_15  and  C_16
REMARK                            x       y       z     vdW  Elec       q    Type
REMARK                         _______ _______ _______ _____ _____    ______ ____
ROOT
ATOM      1  C   UNL     1       3.967   5.167  17.917  0.00  0.00    +0.000 A 
ATOM      2  N   UNL     1       4.356   3.959  18.395  0.00  0.00    +0.000 NA
ATOM      3  C   UNL     1       3.872   3.513  19.560  0.00  0.00    +0.000 A 
ATOM      4  N   UNL     1       3.060   4.157  20.394  0.00  0.00    +0.000 NA
ATOM      5  C   UNL     1       2.731   5.379  19.949  0.00  0.00    +0.000 A 
ATOM      6  S   UNL     1       1.719   6.374  20.902  0.00  0.00    +0.000 S 
ATOM      7  C   UNL     1       1.776   7.614  19.759  0.00  0.00    +0.000 A 
ATOM      8  C   UNL     1       1.091   8.878  19.884  0.00  0.00    +0.000 A 
ATOM      9  O   UNL     1       0.383   9.165  20.842  0.00  0.00    +0.000 OA
ATOM     10  N   UNL     1       1.362   9.746  18.813  0.00  0.00    +0.000 N 
ATOM     11  C   UNL     1       2.177   9.340  17.777  0.00  0.00    +0.000 A 
ATOM     12  N   UNL     1       2.783   8.204  17.665  0.00  0.00    +0.000 NA
ATOM     13  C   UNL     1       2.571   7.291  18.702  0.00  0.00    +0.000 A 
ATOM     14  C   UNL     1       3.131   5.966  18.747  0.00  0.00    +0.000 A 
ENDROOT
BRANCH  10  15
ATOM     15  C   UNL     1       0.827  11.063  18.780  0.00  0.00    +0.000 A 
ATOM     16  C   UNL     1       1.674  12.165  18.979  0.00  0.00    +0.000 A 
ATOM     17  C   UNL     1       1.162  13.462  18.946  0.00  0.00    +0.000 A 
ATOM     18  C   UNL     1      -0.188  13.669  18.679  0.00  0.00    +0.000 A 
ATOM     19  C   UNL     1      -1.031  12.580  18.457  0.00  0.00    +0.000 A 
ATOM     20  C   UNL     1      -0.529  11.280  18.521  0.00  0.00    +0.000 A 
ENDBRANCH  10  15
BRANCH   1  21
ATOM     21  N   UNL     1       4.454   5.436  16.636  0.00  0.00    +0.000 N 
ATOM     22  H   UNL     1       4.639   4.561  16.158  0.00  0.00    +0.000 HD
BRANCH  21  23
ATOM     23  C   UNL     1       5.463   6.449  16.455  0.00  0.00    +0.000 C 
BRANCH  23  25
ATOM     24  C   UNL     1       7.283   4.769  16.458  0.00  0.00    +0.000 C 
ATOM     25  C   UNL     1       6.823   5.962  16.875  0.00  0.00    +0.000 C 
ATOM     26  C   UNL     1       7.567   6.793  17.879  0.00  0.00    +0.000 C 
ENDBRANCH  23  25
ENDBRANCH  21  23
ENDBRANCH   1  21
TORSDOF 4
ENDMDL
MODEL 7
REMARK VINA RESULT:      -7.4      6.247      9.645
REMARK  Name = 
REMARK  5 active torsions:
REMARK  status: ('A' for Active; 'I' for Inactive)
REMARK    1  A    between atoms: C_2  and  C_3
REMARK    2  A    between atoms: C_2  and  C_4
REMARK    3  A    between atoms: C_4  and  N_5
REMARK    4  A    between atoms: N_5  and  C_6
REMARK    5  A    between atoms: N_15  and  C_16
REMARK                            x       y       z     vdW  Elec       q    Type
REMARK                         _______ _______ _______ _____ _____    ______ ____
ROOT
ATOM      1  C   UNL     1      -0.072  11.634  19.716  0.00  0.00    +0.000 A 
ATOM      2  N   UNL     1      -0.679  12.416  20.642  0.00  0.00    +0.000 NA
ATOM      3  C   UNL     1      -0.659  12.063  21.933  0.00  0.00    +0.000 A 
ATOM      4  N   UNL     1      -0.148  10.952  22.456  0.00  0.00    +0.000 NA
ATOM      5  C   UNL     1       0.393  10.149  21.527  0.00  0.00    +0.000 A 
ATOM      6  S   UNL     1       1.073   8.655  22.005  0.00  0.00    +0.000 S 
ATOM      7  C   UNL     1       1.495   8.281  20.413  0.00  0.00    +0.000 A 
ATOM      8  C   UNL     1       2.174   7.075  20.006  0.00  0.00    +0.000 A 
ATOM      9  O   UNL     1       2.522   6.203  20.793  0.00  0.00    +0.000 OA
ATOM     10  N   UNL     1       2.347   6.998  18.613  0.00  0.00    +0.000 N 
ATOM     11  C   UNL     1       1.918   8.027  17.802  0.00  0.00    +0.000 A 
ATOM     12  N   UNL     1       1.317   9.110  18.171  0.00  0.00    +0.000 NA
ATOM     13  C   UNL     1       1.098   9.251  19.544  0.00  0.00    +0.000 A 
ATOM     14  C   UNL     1       0.473  10.394  20.155  0.00  0.00    +0.000 A 
ENDROOT
BRANCH  10  15
ATOM     15  C   UNL     1       2.943   5.858  18.008  0.00  0.00    +0.000 A 
ATOM     16  C   UNL     1       2.203   4.674  17.871  0.00  0.00    +0.000 A 
ATOM     17  C   UNL     1       2.775   3.550  17.276  0.00  0.00    +0.000 A 
ATOM     18  C   UNL     1       4.075   3.611  16.782  0.00  0.00    +0.000 A 
ATOM     19  C   UNL     1       4.809   4.792  16.894  0.00  0.00    +0.000 A 
ATOM     20  C   UNL     1       4.252   5.909  17.517  0.00  0.00    +0.000 A 
ENDBRANCH  10  15
BRANCH   1  21
ATOM     21  N   UNL     1      -0.066  12.196  18.438  0.00  0.00    +0.000 N 
ATOM     22  H   UNL     1       0.623  12.940  18.404  0.00  0.00    +0.000 HD
BRANCH  21  23
ATOM     23  C   UNL     1      -1.314  12.499  17.785  0.00  0.00    +0.000 C 
BRANCH  23  25
ATOM     24  C   UNL     1      -1.836  10.199  17.030  0.00  0.00    +0.000 C 
ATOM     25  C   UNL     1      -2.213  11.294  17.713  0.00  0.00    +0.000 C 
ATOM     26  C   UNL     1      -3.584  11.427  18.307  0.00  0.00    +0.000 C 
ENDBRANCH  23  25
ENDBRANCH  21  23
ENDBRANCH   1  21
TORSDOF 4
ENDMDL
MODEL 8
REMARK VINA RESULT:      -7.4      5.165      7.317
REMARK  Name = 
REMARK  5 active torsions:
REMARK  status: ('A' for Active; 'I' for Inactive)
REMARK    1  A    between atoms: C_2  and  C_3
REMARK    2  A    between atoms: C_2  and  C_4
REMARK    3  A    between atoms: C_4  and  N_5
REMARK    4  A    between atoms: N_5  and  C_6
REMARK    5  A    between atoms: N_15  and  C_16
REMARK                            x       y       z     vdW  Elec       q    Type
REMARK                         _______ _______ _______ _____ _____    ______ ____
ROOT
ATOM      1  C   UNL     1       4.037   5.085  17.918  0.00  0.00    +0.000 A 
ATOM      2  N   UNL     1       4.432   3.881  18.398  0.00  0.00    +0.000 NA
ATOM      3  C   UNL     1       3.948   3.432  19.562  0.00  0.00    +0.000 A 
ATOM      4  N   UNL     1       3.129   4.072  20.394  0.00  0.00    +0.000 NA
ATOM      5  C   UNL     1       2.793   5.291  19.946  0.00  0.00    +0.000 A 
ATOM      6  S   UNL     1       1.771   6.280  20.896  0.00  0.00    +0.000 S 
ATOM      7  C   UNL     1       1.824   7.520  19.751  0.00  0.00    +0.000 A 
ATOM      8  C   UNL     1       1.130   8.779  19.873  0.00  0.00    +0.000 A 
ATOM      9  O   UNL     1       0.418   9.062  20.828  0.00  0.00    +0.000 OA
ATOM     10  N   UNL     1       1.399   9.648  18.801  0.00  0.00    +0.000 N 
ATOM     11  C   UNL     1       2.219   9.246  17.769  0.00  0.00    +0.000 A 
ATOM     12  N   UNL     1       2.833   8.114  17.660  0.00  0.00    +0.000 NA
ATOM     13  C   UNL     1       2.624   7.201  18.696  0.00  0.00    +0.000 A 
ATOM     14  C   UNL     1       3.193   5.879  18.745  0.00  0.00    +0.000 A 
ENDROOT
BRANCH  10  15
ATOM     15  C   UNL     1       0.855  10.961  18.766  0.00  0.00    +0.000 A 
ATOM     16  C   UNL     1      -0.507  11.145  18.481  0.00  0.00    +0.000 A 
ATOM     17  C   UNL     1      -1.053  12.428  18.446  0.00  0.00    +0.000 A 
ATOM     18  C   UNL     1      -0.252  13.532  18.730  0.00  0.00    +0.000 A 
ATOM     19  C   UNL     1       1.097  13.354  19.037  0.00  0.00    +0.000 A 
ATOM     20  C   UNL     1       1.654  12.075  19.041  0.00  0.00    +0.000 A 
ENDBRANCH  10  15
BRANCH   1  21
ATOM     21  N   UNL     1       4.525   5.356  16.638  0.00  0.00    +0.000 N 
ATOM     22  H   UNL     1       4.743   4.482  16.172  0.00  0.00    +0.000 HD
BRANCH  21  23
ATOM     23  C   UNL     1       5.503   6.399  16.454  0.00  0.00    +0.000 C 
BRANCH  23  25
ATOM     24  C   UNL     1       7.513   6.948  17.794  0.00  0.00    +0.000 C 
ATOM     25  C   UNL     1       6.825   6.041  17.077  0.00  0.00    +0.000 C 
ATOM     26  C   UNL     1       7.395   4.693  16.745  0.00  0.00    +0.000 C 
ENDBRANCH  23  25
ENDBRANCH  21  23
ENDBRANCH   1  21
TORSDOF 4
ENDMDL
MODEL 9
REMARK VINA RESULT:      -7.3      6.269      9.655
REMARK  Name = 
REMARK  5 active torsions:
REMARK  status: ('A' for Active; 'I' for Inactive)
REMARK    1  A    between atoms: C_2  and  C_3
REMARK    2  A    between atoms: C_2  and  C_4
REMARK    3  A    between atoms: C_4  and  N_5
REMARK    4  A    between atoms: N_5  and  C_6
REMARK    5  A    between atoms: N_15  and  C_16
REMARK                            x       y       z     vdW  Elec       q    Type
REMARK                         _______ _______ _______ _____ _____    ______ ____
ROOT
ATOM      1  C   UNL     1       0.031  11.685  19.733  0.00  0.00    +0.000 A 
ATOM      2  N   UNL     1      -0.567  12.469  20.663  0.00  0.00    +0.000 NA
ATOM      3  C   UNL     1      -0.565  12.101  21.950  0.00  0.00    +0.000 A 
ATOM      4  N   UNL     1      -0.083  10.973  22.464  0.00  0.00    +0.000 NA
ATOM      5  C   UNL     1       0.449  10.169  21.531  0.00  0.00    +0.000 A 
ATOM      6  S   UNL     1       1.092   8.655  21.997  0.00  0.00    +0.000 S 
ATOM      7  C   UNL     1       1.520   8.291  20.405  0.00  0.00    +0.000 A 
ATOM      8  C   UNL     1       2.176   7.075  19.989  0.00  0.00    +0.000 A 
ATOM      9  O   UNL     1       2.498   6.187  20.769  0.00  0.00    +0.000 OA
ATOM     10  N   UNL     1       2.360   7.010  18.598  0.00  0.00    +0.000 N 
ATOM     11  C   UNL     1       1.960   8.057  17.794  0.00  0.00    +0.000 A 
ATOM     12  N   UNL     1       1.379   9.148  18.171  0.00  0.00    +0.000 NA
ATOM     13  C   UNL     1       1.151   9.278  19.543  0.00  0.00    +0.000 A 
ATOM     14  C   UNL     1       0.546  10.428  20.163  0.00  0.00    +0.000 A 
ENDROOT
BRANCH  10  15
ATOM     15  C   UNL     1       2.936   5.865  17.984  0.00  0.00    +0.000 A 
ATOM     16  C   UNL     1       4.272   5.901  17.555  0.00  0.00    +0.000 A 
ATOM     17  C   UNL     1       4.850   4.782  16.955  0.00  0.00    +0.000 A 
ATOM     18  C   UNL     1       4.111   3.611  16.811  0.00  0.00    +0.000 A 
ATOM     19  C   UNL     1       2.790   3.560  17.257  0.00  0.00    +0.000 A 
ATOM     20  C   UNL     1       2.198   4.687  17.828  0.00  0.00    +0.000 A 
ENDBRANCH  10  15
BRANCH   1  21
ATOM     21  N   UNL     1       0.061  12.261  18.462  0.00  0.00    +0.000 N 
ATOM     22  H   UNL     1       0.808  12.945  18.423  0.00  0.00    +0.000 HD
BRANCH  21  23
ATOM     23  C   UNL     1      -1.170  12.675  17.837  0.00  0.00    +0.000 C 
BRANCH  23  25
ATOM     24  C   UNL     1      -3.340  11.641  18.435  0.00  0.00    +0.000 C 
ATOM     25  C   UNL     1      -2.170  11.553  17.776  0.00  0.00    +0.000 C 
ATOM     26  C   UNL     1      -1.746  10.296  17.075  0.00  0.00    +0.000 C 
ENDBRANCH  23  25
ENDBRANCH  21  23
ENDBRANCH   1  21
TORSDOF 4
ENDMDL
