MODEL 1
REMARK VINA RESULT:      -6.8      0.000      0.000
REMARK  Name = 
REMARK  6 active torsions:
REMARK  status: ('A' for Active; 'I' for Inactive)
REMARK    1  A    between atoms: C_2  and  C_3
REMARK    2  A    between atoms: C_2  and  C_15
REMARK    3  A    between atoms: C_4  and  N_5
REMARK    4  A    between atoms: N_5  and  C_6
REMARK    5  A    between atoms: C_6  and  C_7
REMARK    6  A    between atoms: C_7  and  C_9
REMARK                            x       y       z     vdW  Elec       q    Type
REMARK                         _______ _______ _______ _____ _____    ______ ____
ROOT
ATOM      1  C   UNL     1       3.604   6.636  18.237  0.00  0.00    +0.000 C 
ATOM      2  C   UNL     1       2.734   6.718  19.251  0.00  0.00    +0.000 C 
ENDROOT
BRANCH   1   4
ATOM      3  O   UNL     1       5.284   5.256  19.211  0.00  0.00    +0.000 OA
ATOM      4  C   UNL     1       4.755   5.690  18.197  0.00  0.00    +0.000 C 
BRANCH   4   5
ATOM      5  C   UNL     1       5.254   5.279  16.851  0.00  0.00    +0.000 A 
ATOM      6  C   UNL     1       5.198   6.134  15.738  0.00  0.00    +0.000 A 
ATOM      7  C   UNL     1       5.661   5.701  14.494  0.00  0.00    +0.000 A 
ATOM      8  C   UNL     1       6.166   4.414  14.357  0.00  0.00    +0.000 A 
ATOM      9  F   UNL     1       6.604   4.001  13.160  0.00  0.00    +0.000 F 
ATOM     10  C   UNL     1       6.213   3.546  15.442  0.00  0.00    +0.000 A 
ATOM     11  C   UNL     1       5.752   3.977  16.690  0.00  0.00    +0.000 A 
ENDBRANCH   4   5
ENDBRANCH   1   4
BRANCH   2  12
ATOM     12  N   UNL     1       2.732   6.089  20.477  0.00  0.00    +0.000 N 
ATOM     13  H   UNL     1       3.508   5.410  20.512  0.00  0.00    +0.000 HD
BRANCH  12  14
ATOM     14  C   UNL     1       1.551   5.340  20.950  0.00  0.00    +0.000 C 
BRANCH  14  15
ATOM     15  C   UNL     1       1.919   3.864  21.137  0.00  0.00    +0.000 C 
ATOM     16  O   UNL     1       1.852   3.294  22.226  0.00  0.00    +0.000 OA
BRANCH  15  17
ATOM     17  C   UNL     1       2.457   3.103  19.973  0.00  0.00    +0.000 A 
ATOM     18  C   UNL     1       3.678   2.436  20.136  0.00  0.00    +0.000 A 
ATOM     19  C   UNL     1       4.236   1.713  19.082  0.00  0.00    +0.000 A 
ATOM     20  C   UNL     1       3.573   1.643  17.859  0.00  0.00    +0.000 A 
ATOM     21  C   UNL     1       2.349   2.292  17.692  0.00  0.00    +0.000 A 
ATOM     22  C   UNL     1       1.788   3.025  18.744  0.00  0.00    +0.000 A 
ENDBRANCH  15  17
ENDBRANCH  14  15
ENDBRANCH  12  14
ENDBRANCH   2  12
TORSDOF 6
ENDMDL
MODEL 2
REMARK VINA RESULT:      -6.6      2.770      5.334
REMARK  Name = 
REMARK  6 active torsions:
REMARK  status: ('A' for Active; 'I' for Inactive)
REMARK    1  A    between atoms: C_2  and  C_3
REMARK    2  A    between atoms: C_2  and  C_15
REMARK    3  A    between atoms: C_4  and  N_5
REMARK    4  A    between atoms: N_5  and  C_6
REMARK    5  A    between atoms: C_6  and  C_7
REMARK    6  A    between atoms: C_7  and  C_9
REMARK                            x       y       z     vdW  Elec       q    Type
REMARK                         _______ _______ _______ _____ _____    ______ ____
ROOT
ATOM      1  C   UNL     1       0.863   3.823  20.030  0.00  0.00    +0.000 C 
ATOM      2  C   UNL     1       1.251   2.626  19.575  0.00  0.00    +0.000 C 
ENDROOT
BRANCH   1   4
ATOM      3  O   UNL     1       2.492   4.577  21.597  0.00  0.00    +0.000 OA
ATOM      4  C   UNL     1       1.785   4.828  20.631  0.00  0.00    +0.000 C 
BRANCH   4   5
ATOM      5  C   UNL     1       1.820   6.183  20.003  0.00  0.00    +0.000 A 
ATOM      6  C   UNL     1       2.280   6.389  18.693  0.00  0.00    +0.000 A 
ATOM      7  C   UNL     1       2.310   7.676  18.151  0.00  0.00    +0.000 A 
ATOM      8  C   UNL     1       1.896   8.757  18.921  0.00  0.00    +0.000 A 
ATOM      9  F   UNL     1       1.932   9.990  18.399  0.00  0.00    +0.000 F 
ATOM     10  C   UNL     1       1.455   8.575  20.226  0.00  0.00    +0.000 A 
ATOM     11  C   UNL     1       1.421   7.288  20.771  0.00  0.00    +0.000 A 
ENDBRANCH   4   5
ENDBRANCH   1   4
BRANCH   2  12
ATOM     12  N   UNL     1       2.479   2.004  19.637  0.00  0.00    +0.000 N 
ATOM     13  H   UNL     1       3.105   2.547  20.251  0.00  0.00    +0.000 HD
BRANCH  12  14
ATOM     14  C   UNL     1       3.271   1.751  18.417  0.00  0.00    +0.000 C 
BRANCH  14  15
ATOM     15  C   UNL     1       3.261   2.999  17.529  0.00  0.00    +0.000 C 
ATOM     16  O   UNL     1       2.398   3.201  16.674  0.00  0.00    +0.000 OA
BRANCH  15  17
ATOM     17  C   UNL     1       4.382   3.975  17.643  0.00  0.00    +0.000 A 
ATOM     18  C   UNL     1       4.743   4.694  16.497  0.00  0.00    +0.000 A 
ATOM     19  C   UNL     1       5.788   5.616  16.539  0.00  0.00    +0.000 A 
ATOM     20  C   UNL     1       6.476   5.833  17.730  0.00  0.00    +0.000 A 
ATOM     21  C   UNL     1       6.115   5.132  18.882  0.00  0.00    +0.000 A 
ATOM     22  C   UNL     1       5.071   4.200  18.843  0.00  0.00    +0.000 A 
ENDBRANCH  15  17
ENDBRANCH  14  15
ENDBRANCH  12  14
ENDBRANCH   2  12
TORSDOF 6
ENDMDL
MODEL 3
REMARK VINA RESULT:      -6.5      2.765      6.067
REMARK  Name = 
REMARK  6 active torsions:
REMARK  status: ('A' for Active; 'I' for Inactive)
REMARK    1  A    between atoms: C_2  and  C_3
REMARK    2  A    between atoms: C_2  and  C_15
REMARK    3  A    between atoms: C_4  and  N_5
REMARK    4  A    between atoms: N_5  and  C_6
REMARK    5  A    between atoms: C_6  and  C_7
REMARK    6  A    between atoms: C_7  and  C_9
REMARK                            x       y       z     vdW  Elec       q    Type
REMARK                         _______ _______ _______ _____ _____    ______ ____
ROOT
ATOM      1  C   UNL     1       3.048   7.365  17.741  0.00  0.00    +0.000 C 
ATOM      2  C   UNL     1       4.279   7.061  17.311  0.00  0.00    +0.000 C 
ENDROOT
BRANCH   1   4
ATOM      3  O   UNL     1       2.255   7.659  19.969  0.00  0.00    +0.000 OA
ATOM      4  C   UNL     1       2.477   6.899  19.037  0.00  0.00    +0.000 C 
BRANCH   4   5
ATOM      5  C   UNL     1       2.177   5.441  19.165  0.00  0.00    +0.000 A 
ATOM      6  C   UNL     1       2.267   4.764  20.392  0.00  0.00    +0.000 A 
ATOM      7  C   UNL     1       1.993   3.396  20.463  0.00  0.00    +0.000 A 
ATOM      8  C   UNL     1       1.644   2.703  19.310  0.00  0.00    +0.000 A 
ATOM      9  F   UNL     1       1.388   1.391  19.383  0.00  0.00    +0.000 F 
ATOM     10  C   UNL     1       1.568   3.352  18.084  0.00  0.00    +0.000 A 
ATOM     11  C   UNL     1       1.839   4.722  18.009  0.00  0.00    +0.000 A 
ENDBRANCH   4   5
ENDBRANCH   1   4
BRANCH   2  12
ATOM     12  N   UNL     1       5.227   6.216  17.846  0.00  0.00    +0.000 N 
ATOM     13  H   UNL     1       6.077   6.757  18.069  0.00  0.00    +0.000 HD
BRANCH  12  14
ATOM     14  C   UNL     1       5.712   5.039  17.098  0.00  0.00    +0.000 C 
BRANCH  14  15
ATOM     15  C   UNL     1       6.770   5.476  16.080  0.00  0.00    +0.000 C 
ATOM     16  O   UNL     1       7.630   6.320  16.335  0.00  0.00    +0.000 OA
BRANCH  15  17
ATOM     17  C   UNL     1       6.713   4.922  14.698  0.00  0.00    +0.000 A 
ATOM     18  C   UNL     1       5.690   4.014  14.398  0.00  0.00    +0.000 A 
ATOM     19  C   UNL     1       5.589   3.455  13.125  0.00  0.00    +0.000 A 
ATOM     20  C   UNL     1       6.505   3.808  12.136  0.00  0.00    +0.000 A 
ATOM     21  C   UNL     1       7.520   4.722  12.421  0.00  0.00    +0.000 A 
ATOM     22  C   UNL     1       7.630   5.280  13.700  0.00  0.00    +0.000 A 
ENDBRANCH  15  17
ENDBRANCH  14  15
ENDBRANCH  12  14
ENDBRANCH   2  12
TORSDOF 6
ENDMDL
MODEL 4
REMARK VINA RESULT:      -6.5      3.292      4.966
REMARK  Name = 
REMARK  6 active torsions:
REMARK  status: ('A' for Active; 'I' for Inactive)
REMARK    1  A    between atoms: C_2  and  C_3
REMARK    2  A    between atoms: C_2  and  C_15
REMARK    3  A    between atoms: C_4  and  N_5
REMARK    4  A    between atoms: N_5  and  C_6
REMARK    5  A    between atoms: C_6  and  C_7
REMARK    6  A    between atoms: C_7  and  C_9
REMARK                            x       y       z     vdW  Elec       q    Type
REMARK                         _______ _______ _______ _____ _____    ______ ____
ROOT
ATOM      1  C   UNL     1       5.477   5.715  18.169  0.00  0.00    +0.000 C 
ATOM      2  C   UNL     1       5.711   4.422  17.913  0.00  0.00    +0.000 C 
ENDROOT
BRANCH   1   4
ATOM      3  O   UNL     1       4.623   6.736  16.193  0.00  0.00    +0.000 OA
ATOM      4  C   UNL     1       4.521   6.560  17.399  0.00  0.00    +0.000 C 
BRANCH   4   5
ATOM      5  C   UNL     1       3.409   7.201  18.163  0.00  0.00    +0.000 A 
ATOM      6  C   UNL     1       2.766   8.366  17.713  0.00  0.00    +0.000 A 
ATOM      7  C   UNL     1       1.741   8.941  18.468  0.00  0.00    +0.000 A 
ATOM      8  C   UNL     1       1.368   8.363  19.675  0.00  0.00    +0.000 A 
ATOM      9  F   UNL     1       0.388   8.921  20.398  0.00  0.00    +0.000 F 
ATOM     10  C   UNL     1       2.004   7.220  20.146  0.00  0.00    +0.000 A 
ATOM     11  C   UNL     1       3.029   6.640  19.392  0.00  0.00    +0.000 A 
ENDBRANCH   4   5
ENDBRANCH   1   4
BRANCH   2  12
ATOM     12  N   UNL     1       5.260   3.621  16.886  0.00  0.00    +0.000 N 
ATOM     13  H   UNL     1       5.421   4.100  15.986  0.00  0.00    +0.000 HD
BRANCH  12  14
ATOM     14  C   UNL     1       3.857   3.167  16.829  0.00  0.00    +0.000 C 
BRANCH  14  15
ATOM     15  C   UNL     1       3.583   2.196  17.983  0.00  0.00    +0.000 C 
ATOM     16  O   UNL     1       3.926   1.014  17.953  0.00  0.00    +0.000 OA
BRANCH  15  17
ATOM     17  C   UNL     1       2.800   2.674  19.158  0.00  0.00    +0.000 A 
ATOM     18  C   UNL     1       1.528   3.210  18.922  0.00  0.00    +0.000 A 
ATOM     19  C   UNL     1       0.751   3.681  19.979  0.00  0.00    +0.000 A 
ATOM     20  C   UNL     1       1.235   3.610  21.283  0.00  0.00    +0.000 A 
ATOM     21  C   UNL     1       2.496   3.065  21.530  0.00  0.00    +0.000 A 
ATOM     22  C   UNL     1       3.283   2.598  20.471  0.00  0.00    +0.000 A 
ENDBRANCH  15  17
ENDBRANCH  14  15
ENDBRANCH  12  14
ENDBRANCH   2  12
TORSDOF 6
ENDMDL
MODEL 5
REMARK VINA RESULT:      -6.5      3.498      6.797
REMARK  Name = 
REMARK  6 active torsions:
REMARK  status: ('A' for Active; 'I' for Inactive)
REMARK    1  A    between atoms: C_2  and  C_3
REMARK    2  A    between atoms: C_2  and  C_15
REMARK    3  A    between atoms: C_4  and  N_5
REMARK    4  A    between atoms: N_5  and  C_6
REMARK    5  A    between atoms: C_6  and  C_7
REMARK    6  A    between atoms: C_7  and  C_9
REMARK                            x       y       z     vdW  Elec       q    Type
REMARK                         _______ _______ _______ _____ _____    ______ ____
ROOT
ATOM      1  C   UNL     1       6.374   4.409  17.805  0.00  0.00    +0.000 C 
ATOM      2  C   UNL     1       7.192   4.592  16.761  0.00  0.00    +0.000 C 
ENDROOT
BRANCH   1   4
ATOM      3  O   UNL     1       4.976   6.331  17.970  0.00  0.00    +0.000 OA
ATOM      4  C   UNL     1       5.072   5.112  17.979  0.00  0.00    +0.000 C 
BRANCH   4   5
ATOM      5  C   UNL     1       3.858   4.262  18.169  0.00  0.00    +0.000 A 
ATOM      6  C   UNL     1       3.934   2.945  18.649  0.00  0.00    +0.000 A 
ATOM      7  C   UNL     1       2.774   2.181  18.796  0.00  0.00    +0.000 A 
ATOM      8  C   UNL     1       1.543   2.725  18.451  0.00  0.00    +0.000 A 
ATOM      9  F   UNL     1       0.434   1.986  18.588  0.00  0.00    +0.000 F 
ATOM     10  C   UNL     1       1.449   4.020  17.956  0.00  0.00    +0.000 A 
ATOM     11  C   UNL     1       2.608   4.789  17.810  0.00  0.00    +0.000 A 
ENDBRANCH   4   5
ENDBRANCH   1   4
BRANCH   2  12
ATOM     12  N   UNL     1       7.117   5.485  15.715  0.00  0.00    +0.000 N 
ATOM     13  H   UNL     1       6.838   6.411  16.077  0.00  0.00    +0.000 HD
BRANCH  12  14
ATOM     14  C   UNL     1       6.222   5.243  14.565  0.00  0.00    +0.000 C 
BRANCH  14  15
ATOM     15  C   UNL     1       7.056   4.871  13.335  0.00  0.00    +0.000 C 
ATOM     16  O   UNL     1       8.030   5.528  12.968  0.00  0.00    +0.000 OA
BRANCH  15  17
ATOM     17  C   UNL     1       6.628   3.715  12.497  0.00  0.00    +0.000 A 
ATOM     18  C   UNL     1       7.626   2.944  11.887  0.00  0.00    +0.000 A 
ATOM     19  C   UNL     1       7.288   1.855  11.085  0.00  0.00    +0.000 A 
ATOM     20  C   UNL     1       5.950   1.520  10.894  0.00  0.00    +0.000 A 
ATOM     21  C   UNL     1       4.948   2.274  11.509  0.00  0.00    +0.000 A 
ATOM     22  C   UNL     1       5.282   3.373  12.309  0.00  0.00    +0.000 A 
ENDBRANCH  15  17
ENDBRANCH  14  15
ENDBRANCH  12  14
ENDBRANCH   2  12
TORSDOF 6
ENDMDL
MODEL 6
REMARK VINA RESULT:      -6.5      3.259      6.019
REMARK  Name = 
REMARK  6 active torsions:
REMARK  status: ('A' for Active; 'I' for Inactive)
REMARK    1  A    between atoms: C_2  and  C_3
REMARK    2  A    between atoms: C_2  and  C_15
REMARK    3  A    between atoms: C_4  and  N_5
REMARK    4  A    between atoms: N_5  and  C_6
REMARK    5  A    between atoms: C_6  and  C_7
REMARK    6  A    between atoms: C_7  and  C_9
REMARK                            x       y       z     vdW  Elec       q    Type
REMARK                         _______ _______ _______ _____ _____    ______ ____
ROOT
ATOM      1  C   UNL     1       2.045   4.564  19.332  0.00  0.00    +0.000 C 
ATOM      2  C   UNL     1       1.998   3.789  18.242  0.00  0.00    +0.000 C 
ENDROOT
BRANCH   1   4
ATOM      3  O   UNL     1       4.147   5.601  19.754  0.00  0.00    +0.000 OA
ATOM      4  C   UNL     1       2.960   5.729  19.491  0.00  0.00    +0.000 C 
BRANCH   4   5
ATOM      5  C   UNL     1       2.370   7.090  19.314  0.00  0.00    +0.000 A 
ATOM      6  C   UNL     1       1.722   7.767  20.360  0.00  0.00    +0.000 A 
ATOM      7  C   UNL     1       1.171   9.032  20.145  0.00  0.00    +0.000 A 
ATOM      8  C   UNL     1       1.252   9.613  18.885  0.00  0.00    +0.000 A 
ATOM      9  F   UNL     1       0.716  10.824  18.682  0.00  0.00    +0.000 F 
ATOM     10  C   UNL     1       1.872   8.951  17.833  0.00  0.00    +0.000 A 
ATOM     11  C   UNL     1       2.429   7.686  18.044  0.00  0.00    +0.000 A 
ENDBRANCH   4   5
ENDBRANCH   1   4
BRANCH   2  12
ATOM     12  N   UNL     1       2.791   3.785  17.116  0.00  0.00    +0.000 N 
ATOM     13  H   UNL     1       2.339   3.216  16.383  0.00  0.00    +0.000 HD
BRANCH  12  14
ATOM     14  C   UNL     1       4.186   3.304  17.164  0.00  0.00    +0.000 C 
BRANCH  14  15
ATOM     15  C   UNL     1       5.080   4.234  16.338  0.00  0.00    +0.000 C 
ATOM     16  O   UNL     1       5.093   4.225  15.107  0.00  0.00    +0.000 OA
BRANCH  15  17
ATOM     17  C   UNL     1       6.035   5.133  17.047  0.00  0.00    +0.000 A 
ATOM     18  C   UNL     1       5.981   6.503  16.758  0.00  0.00    +0.000 A 
ATOM     19  C   UNL     1       6.853   7.393  17.383  0.00  0.00    +0.000 A 
ATOM     20  C   UNL     1       7.781   6.923  18.310  0.00  0.00    +0.000 A 
ATOM     21  C   UNL     1       7.833   5.562  18.614  0.00  0.00    +0.000 A 
ATOM     22  C   UNL     1       6.965   4.663  17.984  0.00  0.00    +0.000 A 
ENDBRANCH  15  17
ENDBRANCH  14  15
ENDBRANCH  12  14
ENDBRANCH   2  12
TORSDOF 6
ENDMDL
MODEL 7
REMARK VINA RESULT:      -6.4      3.294      6.508
REMARK  Name = 
REMARK  6 active torsions:
REMARK  status: ('A' for Active; 'I' for Inactive)
REMARK    1  A    between atoms: C_2  and  C_3
REMARK    2  A    between atoms: C_2  and  C_15
REMARK    3  A    between atoms: C_4  and  N_5
REMARK    4  A    between atoms: N_5  and  C_6
REMARK    5  A    between atoms: C_6  and  C_7
REMARK    6  A    between atoms: C_7  and  C_9
REMARK                            x       y       z     vdW  Elec       q    Type
REMARK                         _______ _______ _______ _____ _____    ______ ____
ROOT
ATOM      1  C   UNL     1       6.180   5.306  18.574  0.00  0.00    +0.000 C 
ATOM      2  C   UNL     1       7.268   5.023  17.848  0.00  0.00    +0.000 C 
ENDROOT
BRANCH   1   4
ATOM      3  O   UNL     1       4.632   6.660  17.371  0.00  0.00    +0.000 OA
ATOM      4  C   UNL     1       4.847   5.628  17.990  0.00  0.00    +0.000 C 
BRANCH   4   5
ATOM      5  C   UNL     1       3.755   4.628  18.190  0.00  0.00    +0.000 A 
ATOM      6  C   UNL     1       4.014   3.306  18.585  0.00  0.00    +0.000 A 
ATOM      7  C   UNL     1       2.962   2.400  18.744  0.00  0.00    +0.000 A 
ATOM      8  C   UNL     1       1.658   2.808  18.496  0.00  0.00    +0.000 A 
ATOM      9  F   UNL     1       0.654   1.934  18.645  0.00  0.00    +0.000 F 
ATOM     10  C   UNL     1       1.383   4.108  18.086  0.00  0.00    +0.000 A 
ATOM     11  C   UNL     1       2.432   5.019  17.928  0.00  0.00    +0.000 A 
ENDBRANCH   4   5
ENDBRANCH   1   4
BRANCH   2  12
ATOM     12  N   UNL     1       7.466   5.063  16.485  0.00  0.00    +0.000 N 
ATOM     13  H   UNL     1       7.255   6.012  16.138  0.00  0.00    +0.000 HD
BRANCH  12  14
ATOM     14  C   UNL     1       6.734   4.156  15.579  0.00  0.00    +0.000 C 
BRANCH  14  15
ATOM     15  C   UNL     1       7.017   4.545  14.124  0.00  0.00    +0.000 C 
ATOM     16  O   UNL     1       7.709   5.516  13.817  0.00  0.00    +0.000 OA
BRANCH  15  17
ATOM     17  C   UNL     1       6.365   3.769  13.030  0.00  0.00    +0.000 A 
ATOM     18  C   UNL     1       4.995   3.965  12.815  0.00  0.00    +0.000 A 
ATOM     19  C   UNL     1       4.328   3.263  11.812  0.00  0.00    +0.000 A 
ATOM     20  C   UNL     1       5.028   2.365  11.009  0.00  0.00    +0.000 A 
ATOM     21  C   UNL     1       6.396   2.172  11.207  0.00  0.00    +0.000 A 
ATOM     22  C   UNL     1       7.069   2.870  12.217  0.00  0.00    +0.000 A 
ENDBRANCH  15  17
ENDBRANCH  14  15
ENDBRANCH  12  14
ENDBRANCH   2  12
TORSDOF 6
ENDMDL
MODEL 8
REMARK VINA RESULT:      -6.4      2.199      4.279
REMARK  Name = 
REMARK  6 active torsions:
REMARK  status: ('A' for Active; 'I' for Inactive)
REMARK    1  A    between atoms: C_2  and  C_3
REMARK    2  A    between atoms: C_2  and  C_15
REMARK    3  A    between atoms: C_4  and  N_5
REMARK    4  A    between atoms: N_5  and  C_6
REMARK    5  A    between atoms: C_6  and  C_7
REMARK    6  A    between atoms: C_7  and  C_9
REMARK                            x       y       z     vdW  Elec       q    Type
REMARK                         _______ _______ _______ _____ _____    ______ ____
ROOT
ATOM      1  C   UNL     1       2.122   2.121  17.741  0.00  0.00    +0.000 C 
ATOM      2  C   UNL     1       1.136   2.376  18.609  0.00  0.00    +0.000 C 
ENDROOT
BRANCH   1   4
ATOM      3  O   UNL     1       4.089   0.999  18.481  0.00  0.00    +0.000 OA
ATOM      4  C   UNL     1       3.563   2.040  18.113  0.00  0.00    +0.000 C 
BRANCH   4   5
ATOM      5  C   UNL     1       4.364   3.297  18.020  0.00  0.00    +0.000 A 
ATOM      6  C   UNL     1       5.002   3.862  19.136  0.00  0.00    +0.000 A 
ATOM      7  C   UNL     1       5.728   5.049  19.007  0.00  0.00    +0.000 A 
ATOM      8  C   UNL     1       5.804   5.677  17.770  0.00  0.00    +0.000 A 
ATOM      9  F   UNL     1       6.496   6.818  17.652  0.00  0.00    +0.000 F 
ATOM     10  C   UNL     1       5.164   5.144  16.658  0.00  0.00    +0.000 A 
ATOM     11  C   UNL     1       4.438   3.954  16.782  0.00  0.00    +0.000 A 
ENDBRANCH   4   5
ENDBRANCH   1   4
BRANCH   2  12
ATOM     12  N   UNL     1       1.189   2.717  19.943  0.00  0.00    +0.000 N 
ATOM     13  H   UNL     1       0.688   2.004  20.497  0.00  0.00    +0.000 HD
BRANCH  12  14
ATOM     14  C   UNL     1       0.661   4.009  20.424  0.00  0.00    +0.000 C 
BRANCH  14  15
ATOM     15  C   UNL     1       1.824   4.967  20.705  0.00  0.00    +0.000 C 
ATOM     16  O   UNL     1       2.684   4.738  21.555  0.00  0.00    +0.000 OA
BRANCH  15  17
ATOM     17  C   UNL     1       1.877   6.268  19.979  0.00  0.00    +0.000 A 
ATOM     18  C   UNL     1       1.479   7.419  20.670  0.00  0.00    +0.000 A 
ATOM     19  C   UNL     1       1.499   8.664  20.043  0.00  0.00    +0.000 A 
ATOM     20  C   UNL     1       1.928   8.770  18.722  0.00  0.00    +0.000 A 
ATOM     21  C   UNL     1       2.341   7.631  18.029  0.00  0.00    +0.000 A 
ATOM     22  C   UNL     1       2.315   6.378  18.652  0.00  0.00    +0.000 A 
ENDBRANCH  15  17
ENDBRANCH  14  15
ENDBRANCH  12  14
ENDBRANCH   2  12
TORSDOF 6
ENDMDL
MODEL 9
REMARK VINA RESULT:      -6.4      3.569      5.720
REMARK  Name = 
REMARK  6 active torsions:
REMARK  status: ('A' for Active; 'I' for Inactive)
REMARK    1  A    between atoms: C_2  and  C_3
REMARK    2  A    between atoms: C_2  and  C_15
REMARK    3  A    between atoms: C_4  and  N_5
REMARK    4  A    between atoms: N_5  and  C_6
REMARK    5  A    between atoms: C_6  and  C_7
REMARK    6  A    between atoms: C_7  and  C_9
REMARK                            x       y       z     vdW  Elec       q    Type
REMARK                         _______ _______ _______ _____ _____    ______ ____
ROOT
ATOM      1  C   UNL     1       3.929   7.305  17.682  0.00  0.00    +0.000 C 
ATOM      2  C   UNL     1       4.694   6.386  17.079  0.00  0.00    +0.000 C 
ENDROOT
BRANCH   1   4
ATOM      3  O   UNL     1       1.855   6.131  17.684  0.00  0.00    +0.000 OA
ATOM      4  C   UNL     1       2.517   7.072  18.098  0.00  0.00    +0.000 C 
BRANCH   4   5
ATOM      5  C   UNL     1       1.920   8.047  19.060  0.00  0.00    +0.000 A 
ATOM      6  C   UNL     1       1.747   7.747  20.420  0.00  0.00    +0.000 A 
ATOM      7  C   UNL     1       1.170   8.683  21.281  0.00  0.00    +0.000 A 
ATOM      8  C   UNL     1       0.753   9.911  20.782  0.00  0.00    +0.000 A 
ATOM      9  F   UNL     1       0.194  10.804  21.609  0.00  0.00    +0.000 F 
ATOM     10  C   UNL     1       0.898  10.220  19.434  0.00  0.00    +0.000 A 
ATOM     11  C   UNL     1       1.478   9.286  18.570  0.00  0.00    +0.000 A 
ENDBRANCH   4   5
ENDBRANCH   1   4
BRANCH   2  12
ATOM     12  N   UNL     1       4.379   5.127  16.616  0.00  0.00    +0.000 N 
ATOM     13  H   UNL     1       3.374   4.951  16.770  0.00  0.00    +0.000 HD
BRANCH  12  14
ATOM     14  C   UNL     1       5.060   3.927  17.140  0.00  0.00    +0.000 C 
BRANCH  14  15
ATOM     15  C   UNL     1       4.773   3.786  18.639  0.00  0.00    +0.000 C 
ATOM     16  O   UNL     1       5.660   3.805  19.491  0.00  0.00    +0.000 OA
BRANCH  15  17
ATOM     17  C   UNL     1       3.372   3.533  19.084  0.00  0.00    +0.000 A 
ATOM     18  C   UNL     1       2.931   4.171  20.250  0.00  0.00    +0.000 A 
ATOM     19  C   UNL     1       1.635   3.969  20.721  0.00  0.00    +0.000 A 
ATOM     20  C   UNL     1       0.764   3.134  20.024  0.00  0.00    +0.000 A 
ATOM     21  C   UNL     1       1.189   2.505  18.853  0.00  0.00    +0.000 A 
ATOM     22  C   UNL     1       2.492   2.699  18.380  0.00  0.00    +0.000 A 
ENDBRANCH  15  17
ENDBRANCH  14  15
ENDBRANCH  12  14
ENDBRANCH   2  12
TORSDOF 6
ENDMDL
