MODEL 1
REMARK VINA RESULT:      -7.3      0.000      0.000
REMARK  Name = 
REMARK  9 active torsions:
REMARK  status: ('A' for Active; 'I' for Inactive)
REMARK    1  A    between atoms: C_2  and  C_3
REMARK    2  A    between atoms: C_8  and  S_9
REMARK    3  A    between atoms: S_9  and  C_10
REMARK    4  A    between atoms: C_10  and  C_11
REMARK    5  A    between atoms: C_11  and  O_12
REMARK    6  A    between atoms: C_11  and  C_13
REMARK    7  A    between atoms: C_13  and  S_14
REMARK    8  A    between atoms: S_14  and  C_17
REMARK    9  A    between atoms: C_17  and  C_18
REMARK                            x       y       z     vdW  Elec       q    Type
REMARK                         _______ _______ _______ _____ _____    ______ ____
ROOT
ATOM      1  C   UNL     1       1.833   7.501  20.265  0.00  0.00    +0.000 C 
ENDROOT
BRANCH   1   2
ATOM      2  S   UNL     1       1.633   5.673  20.382  0.00  0.00    +0.000 S 
BRANCH   2   8
ATOM      3  C   UNL     1       2.398   3.959  18.308  0.00  0.00    +0.000 A 
ATOM      4  C   UNL     1       3.252   3.622  17.253  0.00  0.00    +0.000 A 
ATOM      5  C   UNL     1       4.316   4.461  16.913  0.00  0.00    +0.000 A 
ATOM      6  C   UNL     1       4.501   5.614  17.673  0.00  0.00    +0.000 A 
ATOM      7  N   UNL     1       3.681   5.952  18.695  0.00  0.00    +0.000 NA
ATOM      8  C   UNL     1       2.646   5.136  19.008  0.00  0.00    +0.000 A 
ATOM      9  C   UNL     1       5.600   6.596  17.362  0.00  0.00    +0.000 C 
ATOM     10  C   UNL     1       6.717   5.993  16.516  0.00  0.00    +0.000 C 
ATOM     11  C   UNL     1       6.126   5.244  15.328  0.00  0.00    +0.000 C 
ATOM     12  C   UNL     1       5.263   4.077  15.807  0.00  0.00    +0.000 C 
BRANCH   3  14
ATOM     13  N   UNL     1       0.418   2.378  18.843  0.00  0.00    +0.000 NA
ATOM     14  C   UNL     1       1.312   3.077  18.627  0.00  0.00    +0.000 C 
ENDBRANCH   3  14
ENDBRANCH   2   8
ENDBRANCH   1   2
BRANCH   1  15
ATOM     15  C   UNL     1       1.066   8.231  21.383  0.00  0.00    +0.000 C 
BRANCH  15  16
ATOM     16  O   UNL     1       2.021   8.825  22.264  0.00  0.00    +0.000 OA
ATOM     17  H   UNL     1       2.527   9.488  21.757  0.00  0.00    +0.000 HD
ENDBRANCH  15  16
BRANCH  15  18
ATOM     18  C   UNL     1       0.093   9.281  20.857  0.00  0.00    +0.000 C 
BRANCH  18  19
ATOM     19  S   UNL     1       0.119  10.801  21.788  0.00  0.00    +0.000 S 
ATOM     20  O   UNL     1      -0.009  10.406  23.181  0.00  0.00    +0.000 OA
ATOM     21  O   UNL     1       1.281  11.553  21.353  0.00  0.00    +0.000 OA
BRANCH  19  22
ATOM     22  C   UNL     1      -1.385  11.650  21.300  0.00  0.00    +0.000 C 
BRANCH  22  23
ATOM     23  C   UNL     1      -1.881  12.523  22.414  0.00  0.00    +0.000 A 
ATOM     24  C   UNL     1      -1.081  13.573  22.890  0.00  0.00    +0.000 A 
ATOM     25  C   UNL     1      -1.544  14.413  23.902  0.00  0.00    +0.000 A 
ATOM     26  C   UNL     1      -2.810  14.209  24.447  0.00  0.00    +0.000 A 
ATOM     27  C   UNL     1      -3.612  13.168  23.983  0.00  0.00    +0.000 A 
ATOM     28  C   UNL     1      -3.151  12.326  22.971  0.00  0.00    +0.000 A 
ENDBRANCH  22  23
ENDBRANCH  19  22
ENDBRANCH  18  19
ENDBRANCH  15  18
ENDBRANCH   1  15
TORSDOF 9
ENDMDL
MODEL 2
REMARK VINA RESULT:      -6.9      4.667      9.866
REMARK  Name = 
REMARK  9 active torsions:
REMARK  status: ('A' for Active; 'I' for Inactive)
REMARK    1  A    between atoms: C_2  and  C_3
REMARK    2  A    between atoms: C_8  and  S_9
REMARK    3  A    between atoms: S_9  and  C_10
REMARK    4  A    between atoms: C_10  and  C_11
REMARK    5  A    between atoms: C_11  and  O_12
REMARK    6  A    between atoms: C_11  and  C_13
REMARK    7  A    between atoms: C_13  and  S_14
REMARK    8  A    between atoms: S_14  and  C_17
REMARK    9  A    between atoms: C_17  and  C_18
REMARK                            x       y       z     vdW  Elec       q    Type
REMARK                         _______ _______ _______ _____ _____    ______ ____
ROOT
ATOM      1  C   UNL     1       4.260   4.413  17.510  0.00  0.00    +0.000 C 
ENDROOT
BRANCH   1   2
ATOM      2  S   UNL     1       2.583   3.986  18.143  0.00  0.00    +0.000 S 
BRANCH   2   8
ATOM      3  C   UNL     1       1.951   5.514  20.399  0.00  0.00    +0.000 A 
ATOM      4  C   UNL     1       1.622   6.736  20.996  0.00  0.00    +0.000 A 
ATOM      5  C   UNL     1       1.528   7.894  20.221  0.00  0.00    +0.000 A 
ATOM      6  C   UNL     1       1.746   7.777  18.849  0.00  0.00    +0.000 A 
ATOM      7  N   UNL     1       2.066   6.601  18.261  0.00  0.00    +0.000 NA
ATOM      8  C   UNL     1       2.166   5.487  19.024  0.00  0.00    +0.000 A 
ATOM      9  C   UNL     1       1.699   8.975  17.937  0.00  0.00    +0.000 C 
ATOM     10  C   UNL     1       0.944  10.154  18.542  0.00  0.00    +0.000 C 
ATOM     11  C   UNL     1       1.425  10.410  19.965  0.00  0.00    +0.000 C 
ATOM     12  C   UNL     1       1.130   9.202  20.854  0.00  0.00    +0.000 C 
BRANCH   3  14
ATOM     13  N   UNL     1       2.166   3.404  21.885  0.00  0.00    +0.000 NA
ATOM     14  C   UNL     1       2.044   4.345  21.225  0.00  0.00    +0.000 C 
ENDBRANCH   3  14
ENDBRANCH   2   8
ENDBRANCH   1   2
BRANCH   1  15
ATOM     15  C   UNL     1       5.254   4.670  18.657  0.00  0.00    +0.000 C 
BRANCH  15  16
ATOM     16  O   UNL     1       5.914   3.439  18.960  0.00  0.00    +0.000 OA
ATOM     17  H   UNL     1       5.280   2.712  18.807  0.00  0.00    +0.000 HD
ENDBRANCH  15  16
BRANCH  15  18
ATOM     18  C   UNL     1       6.270   5.762  18.338  0.00  0.00    +0.000 C 
BRANCH  18  19
ATOM     19  S   UNL     1       7.058   5.554  16.752  0.00  0.00    +0.000 S 
ATOM     20  O   UNL     1       7.673   6.836  16.453  0.00  0.00    +0.000 OA
ATOM     21  O   UNL     1       7.879   4.360  16.832  0.00  0.00    +0.000 OA
BRANCH  19  22
ATOM     22  C   UNL     1       5.700   5.296  15.608  0.00  0.00    +0.000 C 
BRANCH  22  23
ATOM     23  C   UNL     1       6.209   4.781  14.295  0.00  0.00    +0.000 A 
ATOM     24  C   UNL     1       5.491   3.794  13.603  0.00  0.00    +0.000 A 
ATOM     25  C   UNL     1       5.935   3.331  12.366  0.00  0.00    +0.000 A 
ATOM     26  C   UNL     1       7.103   3.848  11.811  0.00  0.00    +0.000 A 
ATOM     27  C   UNL     1       7.826   4.828  12.490  0.00  0.00    +0.000 A 
ATOM     28  C   UNL     1       7.383   5.293  13.728  0.00  0.00    +0.000 A 
ENDBRANCH  22  23
ENDBRANCH  19  22
ENDBRANCH  18  19
ENDBRANCH  15  18
ENDBRANCH   1  15
TORSDOF 9
ENDMDL
MODEL 3
REMARK VINA RESULT:      -6.9      2.848      3.926
REMARK  Name = 
REMARK  9 active torsions:
REMARK  status: ('A' for Active; 'I' for Inactive)
REMARK    1  A    between atoms: C_2  and  C_3
REMARK    2  A    between atoms: C_8  and  S_9
REMARK    3  A    between atoms: S_9  and  C_10
REMARK    4  A    between atoms: C_10  and  C_11
REMARK    5  A    between atoms: C_11  and  O_12
REMARK    6  A    between atoms: C_11  and  C_13
REMARK    7  A    between atoms: C_13  and  S_14
REMARK    8  A    between atoms: S_14  and  C_17
REMARK    9  A    between atoms: C_17  and  C_18
REMARK                            x       y       z     vdW  Elec       q    Type
REMARK                         _______ _______ _______ _____ _____    ______ ____
ROOT
ATOM      1  C   UNL     1       1.772   8.582  18.730  0.00  0.00    +0.000 C 
ENDROOT
BRANCH   1   2
ATOM      2  S   UNL     1       2.222   7.188  19.848  0.00  0.00    +0.000 S 
BRANCH   2   8
ATOM      3  C   UNL     1       2.633   4.748  18.543  0.00  0.00    +0.000 A 
ATOM      4  C   UNL     1       3.323   3.957  17.619  0.00  0.00    +0.000 A 
ATOM      5  C   UNL     1       4.364   4.503  16.864  0.00  0.00    +0.000 A 
ATOM      6  C   UNL     1       4.695   5.838  17.087  0.00  0.00    +0.000 A 
ATOM      7  N   UNL     1       4.034   6.614  17.976  0.00  0.00    +0.000 NA
ATOM      8  C   UNL     1       3.019   6.077  18.694  0.00  0.00    +0.000 A 
ATOM      9  C   UNL     1       5.781   6.523  16.298  0.00  0.00    +0.000 C 
ATOM     10  C   UNL     1       6.749   5.544  15.642  0.00  0.00    +0.000 C 
ATOM     11  C   UNL     1       5.975   4.452  14.913  0.00  0.00    +0.000 C 
ATOM     12  C   UNL     1       5.139   3.641  15.902  0.00  0.00    +0.000 C 
BRANCH   3  14
ATOM     13  N   UNL     1       0.736   3.674  19.941  0.00  0.00    +0.000 NA
ATOM     14  C   UNL     1       1.565   4.157  19.298  0.00  0.00    +0.000 C 
ENDBRANCH   3  14
ENDBRANCH   2   8
ENDBRANCH   1   2
BRANCH   1  15
ATOM     15  C   UNL     1       0.881   9.618  19.440  0.00  0.00    +0.000 C 
BRANCH  15  16
ATOM     16  O   UNL     1       1.117   9.519  20.846  0.00  0.00    +0.000 OA
ATOM     17  H   UNL     1       0.791   8.649  21.146  0.00  0.00    +0.000 HD
ENDBRANCH  15  16
BRANCH  15  18
ATOM     18  C   UNL     1       1.114  11.044  18.954  0.00  0.00    +0.000 C 
BRANCH  18  19
ATOM     19  S   UNL     1      -0.310  12.100  19.144  0.00  0.00    +0.000 S 
ATOM     20  O   UNL     1      -0.126  12.776  20.417  0.00  0.00    +0.000 OA
ATOM     21  O   UNL     1      -0.436  12.877  17.924  0.00  0.00    +0.000 OA
BRANCH  19  22
ATOM     22  C   UNL     1      -1.691  10.964  19.299  0.00  0.00    +0.000 C 
BRANCH  22  23
ATOM     23  C   UNL     1      -2.422  10.844  17.994  0.00  0.00    +0.000 A 
ATOM     24  C   UNL     1      -1.925  10.002  16.988  0.00  0.00    +0.000 A 
ATOM     25  C   UNL     1      -2.613   9.856  15.784  0.00  0.00    +0.000 A 
ATOM     26  C   UNL     1      -3.801  10.552  15.576  0.00  0.00    +0.000 A 
ATOM     27  C   UNL     1      -4.303  11.392  16.568  0.00  0.00    +0.000 A 
ATOM     28  C   UNL     1      -3.617  11.540  17.773  0.00  0.00    +0.000 A 
ENDBRANCH  22  23
ENDBRANCH  19  22
ENDBRANCH  18  19
ENDBRANCH  15  18
ENDBRANCH   1  15
TORSDOF 9
ENDMDL
MODEL 4
REMARK VINA RESULT:      -6.8      3.800      9.200
REMARK  Name = 
REMARK  9 active torsions:
REMARK  status: ('A' for Active; 'I' for Inactive)
REMARK    1  A    between atoms: C_2  and  C_3
REMARK    2  A    between atoms: C_8  and  S_9
REMARK    3  A    between atoms: S_9  and  C_10
REMARK    4  A    between atoms: C_10  and  C_11
REMARK    5  A    between atoms: C_11  and  O_12
REMARK    6  A    between atoms: C_11  and  C_13
REMARK    7  A    between atoms: C_13  and  S_14
REMARK    8  A    between atoms: S_14  and  C_17
REMARK    9  A    between atoms: C_17  and  C_18
REMARK                            x       y       z     vdW  Elec       q    Type
REMARK                         _______ _______ _______ _____ _____    ______ ____
ROOT
ATOM      1  C   UNL     1       1.789   8.727  18.552  0.00  0.00    +0.000 C 
ENDROOT
BRANCH   1   2
ATOM      2  S   UNL     1       1.202   9.559  20.089  0.00  0.00    +0.000 S 
BRANCH   2   8
ATOM      3  C   UNL     1      -1.058  11.196  20.271  0.00  0.00    +0.000 A 
ATOM      4  C   UNL     1      -2.249  11.699  19.738  0.00  0.00    +0.000 A 
ATOM      5  C   UNL     1      -2.681  11.294  18.473  0.00  0.00    +0.000 A 
ATOM      6  C   UNL     1      -1.900  10.365  17.788  0.00  0.00    +0.000 A 
ATOM      7  N   UNL     1      -0.745   9.872  18.292  0.00  0.00    +0.000 NA
ATOM      8  C   UNL     1      -0.331  10.280  19.515  0.00  0.00    +0.000 A 
ATOM      9  C   UNL     1      -2.265   9.893  16.405  0.00  0.00    +0.000 C 
ATOM     10  C   UNL     1      -3.733  10.130  16.064  0.00  0.00    +0.000 C 
ATOM     11  C   UNL     1      -4.128  11.559  16.414  0.00  0.00    +0.000 C 
ATOM     12  C   UNL     1      -3.986  11.799  17.917  0.00  0.00    +0.000 C 
BRANCH   3  14
ATOM     13  N   UNL     1      -0.350  12.009  22.626  0.00  0.00    +0.000 NA
ATOM     14  C   UNL     1      -0.642  11.637  21.571  0.00  0.00    +0.000 C 
ENDBRANCH   3  14
ENDBRANCH   2   8
ENDBRANCH   1   2
BRANCH   1  15
ATOM     15  C   UNL     1       2.726   7.546  18.866  0.00  0.00    +0.000 C 
BRANCH  15  16
ATOM     16  O   UNL     1       2.334   6.987  20.122  0.00  0.00    +0.000 OA
ATOM     17  H   UNL     1       2.814   7.463  20.826  0.00  0.00    +0.000 HD
ENDBRANCH  15  16
BRANCH  15  18
ATOM     18  C   UNL     1       2.727   6.477  17.778  0.00  0.00    +0.000 C 
BRANCH  18  19
ATOM     19  S   UNL     1       4.160   5.418  17.828  0.00  0.00    +0.000 S 
ATOM     20  O   UNL     1       4.869   5.663  16.583  0.00  0.00    +0.000 OA
ATOM     21  O   UNL     1       4.825   5.651  19.096  0.00  0.00    +0.000 OA
BRANCH  19  22
ATOM     22  C   UNL     1       3.488   3.754  17.779  0.00  0.00    +0.000 C 
BRANCH  22  23
ATOM     23  C   UNL     1       2.760   3.443  19.053  0.00  0.00    +0.000 A 
ATOM     24  C   UNL     1       1.372   3.631  19.130  0.00  0.00    +0.000 A 
ATOM     25  C   UNL     1       0.679   3.314  20.297  0.00  0.00    +0.000 A 
ATOM     26  C   UNL     1       1.368   2.808  21.397  0.00  0.00    +0.000 A 
ATOM     27  C   UNL     1       2.747   2.619  21.332  0.00  0.00    +0.000 A 
ATOM     28  C   UNL     1       3.443   2.936  20.165  0.00  0.00    +0.000 A 
ENDBRANCH  22  23
ENDBRANCH  19  22
ENDBRANCH  18  19
ENDBRANCH  15  18
ENDBRANCH   1  15
TORSDOF 9
ENDMDL
MODEL 5
REMARK VINA RESULT:      -6.7      4.739      8.708
REMARK  Name = 
REMARK  9 active torsions:
REMARK  status: ('A' for Active; 'I' for Inactive)
REMARK    1  A    between atoms: C_2  and  C_3
REMARK    2  A    between atoms: C_8  and  S_9
REMARK    3  A    between atoms: S_9  and  C_10
REMARK    4  A    between atoms: C_10  and  C_11
REMARK    5  A    between atoms: C_11  and  O_12
REMARK    6  A    between atoms: C_11  and  C_13
REMARK    7  A    between atoms: C_13  and  S_14
REMARK    8  A    between atoms: S_14  and  C_17
REMARK    9  A    between atoms: C_17  and  C_18
REMARK                            x       y       z     vdW  Elec       q    Type
REMARK                         _______ _______ _______ _____ _____    ______ ____
ROOT
ATOM      1  C   UNL     1       3.848   2.418  17.856  0.00  0.00    +0.000 C 
ENDROOT
BRANCH   1   2
ATOM      2  S   UNL     1       2.054   2.479  18.274  0.00  0.00    +0.000 S 
BRANCH   2   8
ATOM      3  C   UNL     1       1.705   4.350  20.324  0.00  0.00    +0.000 A 
ATOM      4  C   UNL     1       1.615   5.672  20.771  0.00  0.00    +0.000 A 
ATOM      5  C   UNL     1       1.759   6.730  19.870  0.00  0.00    +0.000 A 
ATOM      6  C   UNL     1       1.967   6.416  18.528  0.00  0.00    +0.000 A 
ATOM      7  N   UNL     1       2.058   5.140  18.085  0.00  0.00    +0.000 NA
ATOM      8  C   UNL     1       1.928   4.123  18.969  0.00  0.00    +0.000 A 
ATOM      9  C   UNL     1       2.168   7.487  17.489  0.00  0.00    +0.000 C 
ATOM     10  C   UNL     1       1.651   8.852  17.932  0.00  0.00    +0.000 C 
ATOM     11  C   UNL     1       2.155   9.172  19.335  0.00  0.00    +0.000 C 
ATOM     12  C   UNL     1       1.617   8.154  20.340  0.00  0.00    +0.000 C 
BRANCH   3  14
ATOM     13  N   UNL     1       1.480   2.442  22.062  0.00  0.00    +0.000 NA
ATOM     14  C   UNL     1       1.557   3.287  21.277  0.00  0.00    +0.000 C 
ENDBRANCH   3  14
ENDBRANCH   2   8
ENDBRANCH   1   2
BRANCH   1  15
ATOM     15  C   UNL     1       4.705   3.123  18.923  0.00  0.00    +0.000 C 
BRANCH  15  16
ATOM     16  O   UNL     1       5.088   2.154  19.900  0.00  0.00    +0.000 OA
ATOM     17  H   UNL     1       4.274   1.786  20.294  0.00  0.00    +0.000 HD
ENDBRANCH  15  16
BRANCH  15  18
ATOM     18  C   UNL     1       5.934   3.816  18.342  0.00  0.00    +0.000 C 
BRANCH  18  19
ATOM     19  S   UNL     1       6.213   5.443  19.013  0.00  0.00    +0.000 S 
ATOM     20  O   UNL     1       5.052   5.729  19.838  0.00  0.00    +0.000 OA
ATOM     21  O   UNL     1       7.538   5.444  19.606  0.00  0.00    +0.000 OA
BRANCH  19  22
ATOM     22  C   UNL     1       6.174   6.529  17.585  0.00  0.00    +0.000 C 
BRANCH  22  23
ATOM     23  C   UNL     1       6.135   5.729  16.317  0.00  0.00    +0.000 A 
ATOM     24  C   UNL     1       7.331   5.342  15.696  0.00  0.00    +0.000 A 
ATOM     25  C   UNL     1       7.309   4.570  14.535  0.00  0.00    +0.000 A 
ATOM     26  C   UNL     1       6.090   4.181  13.985  0.00  0.00    +0.000 A 
ATOM     27  C   UNL     1       4.895   4.561  14.593  0.00  0.00    +0.000 A 
ATOM     28  C   UNL     1       4.915   5.334  15.754  0.00  0.00    +0.000 A 
ENDBRANCH  22  23
ENDBRANCH  19  22
ENDBRANCH  18  19
ENDBRANCH  15  18
ENDBRANCH   1  15
TORSDOF 9
ENDMDL
MODEL 6
REMARK VINA RESULT:      -6.7      1.861      3.689
REMARK  Name = 
REMARK  9 active torsions:
REMARK  status: ('A' for Active; 'I' for Inactive)
REMARK    1  A    between atoms: C_2  and  C_3
REMARK    2  A    between atoms: C_8  and  S_9
REMARK    3  A    between atoms: S_9  and  C_10
REMARK    4  A    between atoms: C_10  and  C_11
REMARK    5  A    between atoms: C_11  and  O_12
REMARK    6  A    between atoms: C_11  and  C_13
REMARK    7  A    between atoms: C_13  and  S_14
REMARK    8  A    between atoms: S_14  and  C_17
REMARK    9  A    between atoms: C_17  and  C_18
REMARK                            x       y       z     vdW  Elec       q    Type
REMARK                         _______ _______ _______ _____ _____    ______ ____
ROOT
ATOM      1  C   UNL     1       1.388   8.591  18.177  0.00  0.00    +0.000 C 
ENDROOT
BRANCH   1   2
ATOM      2  S   UNL     1       3.149   8.202  17.796  0.00  0.00    +0.000 S 
BRANCH   2   8
ATOM      3  C   UNL     1       4.013   5.608  17.206  0.00  0.00    +0.000 A 
ATOM      4  C   UNL     1       3.916   4.222  17.362  0.00  0.00    +0.000 A 
ATOM      5  C   UNL     1       2.961   3.676  18.223  0.00  0.00    +0.000 A 
ATOM      6  C   UNL     1       2.108   4.556  18.886  0.00  0.00    +0.000 A 
ATOM      7  N   UNL     1       2.193   5.899  18.745  0.00  0.00    +0.000 NA
ATOM      8  C   UNL     1       3.131   6.417  17.916  0.00  0.00    +0.000 A 
ATOM      9  C   UNL     1       1.069   4.064  19.860  0.00  0.00    +0.000 C 
ATOM     10  C   UNL     1       0.729   2.589  19.674  0.00  0.00    +0.000 C 
ATOM     11  C   UNL     1       2.008   1.765  19.581  0.00  0.00    +0.000 C 
ATOM     12  C   UNL     1       2.824   2.182  18.358  0.00  0.00    +0.000 C 
BRANCH   3  14
ATOM     13  N   UNL     1       5.780   6.559  15.568  0.00  0.00    +0.000 NA
ATOM     14  C   UNL     1       5.010   6.135  16.317  0.00  0.00    +0.000 C 
ENDBRANCH   3  14
ENDBRANCH   2   8
ENDBRANCH   1   2
BRANCH   1  15
ATOM     15  C   UNL     1       1.249   9.937  18.913  0.00  0.00    +0.000 C 
BRANCH  15  16
ATOM     16  O   UNL     1       0.623  10.867  18.027  0.00  0.00    +0.000 OA
ATOM     17  H   UNL     1       0.501  10.426  17.165  0.00  0.00    +0.000 HD
ENDBRANCH  15  16
BRANCH  15  18
ATOM     18  C   UNL     1       0.468   9.828  20.219  0.00  0.00    +0.000 C 
BRANCH  18  19
ATOM     19  S   UNL     1      -0.197  11.383  20.778  0.00  0.00    +0.000 S 
ATOM     20  O   UNL     1       0.905  12.327  20.707  0.00  0.00    +0.000 OA
ATOM     21  O   UNL     1      -1.411  11.631  20.021  0.00  0.00    +0.000 OA
BRANCH  19  22
ATOM     22  C   UNL     1      -0.593  11.105  22.507  0.00  0.00    +0.000 C 
BRANCH  22  23
ATOM     23  C   UNL     1      -1.484  12.195  23.024  0.00  0.00    +0.000 A 
ATOM     24  C   UNL     1      -2.822  11.915  23.342  0.00  0.00    +0.000 A 
ATOM     25  C   UNL     1      -3.651  12.910  23.855  0.00  0.00    +0.000 A 
ATOM     26  C   UNL     1      -3.151  14.196  24.054  0.00  0.00    +0.000 A 
ATOM     27  C   UNL     1      -1.824  14.486  23.740  0.00  0.00    +0.000 A 
ATOM     28  C   UNL     1      -0.993  13.491  23.226  0.00  0.00    +0.000 A 
ENDBRANCH  22  23
ENDBRANCH  19  22
ENDBRANCH  18  19
ENDBRANCH  15  18
ENDBRANCH   1  15
TORSDOF 9
ENDMDL
MODEL 7
REMARK VINA RESULT:      -6.7      2.184      3.806
REMARK  Name = 
REMARK  9 active torsions:
REMARK  status: ('A' for Active; 'I' for Inactive)
REMARK    1  A    between atoms: C_2  and  C_3
REMARK    2  A    between atoms: C_8  and  S_9
REMARK    3  A    between atoms: S_9  and  C_10
REMARK    4  A    between atoms: C_10  and  C_11
REMARK    5  A    between atoms: C_11  and  O_12
REMARK    6  A    between atoms: C_11  and  C_13
REMARK    7  A    between atoms: C_13  and  S_14
REMARK    8  A    between atoms: S_14  and  C_17
REMARK    9  A    between atoms: C_17  and  C_18
REMARK                            x       y       z     vdW  Elec       q    Type
REMARK                         _______ _______ _______ _____ _____    ______ ____
ROOT
ATOM      1  C   UNL     1       1.732   8.930  18.809  0.00  0.00    +0.000 C 
ENDROOT
BRANCH   1   2
ATOM      2  S   UNL     1       2.886   8.260  17.537  0.00  0.00    +0.000 S 
BRANCH   2   8
ATOM      3  C   UNL     1       4.100   5.742  17.628  0.00  0.00    +0.000 A 
ATOM      4  C   UNL     1       4.220   4.461  18.177  0.00  0.00    +0.000 A 
ATOM      5  C   UNL     1       3.398   4.070  19.238  0.00  0.00    +0.000 A 
ATOM      6  C   UNL     1       2.456   4.987  19.699  0.00  0.00    +0.000 A 
ATOM      7  N   UNL     1       2.332   6.230  19.178  0.00  0.00    +0.000 NA
ATOM      8  C   UNL     1       3.141   6.601  18.157  0.00  0.00    +0.000 A 
ATOM      9  C   UNL     1       1.549   4.670  20.860  0.00  0.00    +0.000 C 
ATOM     10  C   UNL     1       1.426   3.174  21.128  0.00  0.00    +0.000 C 
ATOM     11  C   UNL     1       2.808   2.532  21.158  0.00  0.00    +0.000 C 
ATOM     12  C   UNL     1       3.494   2.677  19.800  0.00  0.00    +0.000 C 
BRANCH   3  14
ATOM     13  N   UNL     1       5.668   6.448  15.692  0.00  0.00    +0.000 NA
ATOM     14  C   UNL     1       4.963   6.112  16.543  0.00  0.00    +0.000 C 
ENDBRANCH   3  14
ENDBRANCH   2   8
ENDBRANCH   1   2
BRANCH   1  15
ATOM     15  C   UNL     1       1.082  10.248  18.351  0.00  0.00    +0.000 C 
BRANCH  15  16
ATOM     16  O   UNL     1      -0.231   9.955  17.869  0.00  0.00    +0.000 OA
ATOM     17  H   UNL     1      -0.872  10.245  18.545  0.00  0.00    +0.000 HD
ENDBRANCH  15  16
BRANCH  15  18
ATOM     18  C   UNL     1       1.029  11.304  19.450  0.00  0.00    +0.000 C 
BRANCH  18  19
ATOM     19  S   UNL     1      -0.460  11.234  20.428  0.00  0.00    +0.000 S 
ATOM     20  O   UNL     1      -1.494  11.841  19.607  0.00  0.00    +0.000 OA
ATOM     21  O   UNL     1      -0.611   9.865  20.886  0.00  0.00    +0.000 OA
BRANCH  19  22
ATOM     22  C   UNL     1      -0.132  12.318  21.820  0.00  0.00    +0.000 C 
BRANCH  22  23
ATOM     23  C   UNL     1      -1.417  12.777  22.443  0.00  0.00    +0.000 A 
ATOM     24  C   UNL     1      -2.224  11.864  23.138  0.00  0.00    +0.000 A 
ATOM     25  C   UNL     1      -3.403  12.284  23.750  0.00  0.00    +0.000 A 
ATOM     26  C   UNL     1      -3.788  13.620  23.671  0.00  0.00    +0.000 A 
ATOM     27  C   UNL     1      -2.995  14.537  22.982  0.00  0.00    +0.000 A 
ATOM     28  C   UNL     1      -1.814  14.118  22.369  0.00  0.00    +0.000 A 
ENDBRANCH  22  23
ENDBRANCH  19  22
ENDBRANCH  18  19
ENDBRANCH  15  18
ENDBRANCH   1  15
TORSDOF 9
ENDMDL
MODEL 8
REMARK VINA RESULT:      -6.7      2.755      4.463
REMARK  Name = 
REMARK  9 active torsions:
REMARK  status: ('A' for Active; 'I' for Inactive)
REMARK    1  A    between atoms: C_2  and  C_3
REMARK    2  A    between atoms: C_8  and  S_9
REMARK    3  A    between atoms: S_9  and  C_10
REMARK    4  A    between atoms: C_10  and  C_11
REMARK    5  A    between atoms: C_11  and  O_12
REMARK    6  A    between atoms: C_11  and  C_13
REMARK    7  A    between atoms: C_13  and  S_14
REMARK    8  A    between atoms: S_14  and  C_17
REMARK    9  A    between atoms: C_17  and  C_18
REMARK                            x       y       z     vdW  Elec       q    Type
REMARK                         _______ _______ _______ _____ _____    ______ ____
ROOT
ATOM      1  C   UNL     1       1.491   8.697  18.477  0.00  0.00    +0.000 C 
ENDROOT
BRANCH   1   2
ATOM      2  S   UNL     1       3.016   8.159  17.593  0.00  0.00    +0.000 S 
BRANCH   2   8
ATOM      3  C   UNL     1       4.489   5.858  18.190  0.00  0.00    +0.000 A 
ATOM      4  C   UNL     1       4.618   4.620  18.828  0.00  0.00    +0.000 A 
ATOM      5  C   UNL     1       3.581   4.126  19.623  0.00  0.00    +0.000 A 
ATOM      6  C   UNL     1       2.425   4.896  19.731  0.00  0.00    +0.000 A 
ATOM      7  N   UNL     1       2.289   6.097  19.121  0.00  0.00    +0.000 NA
ATOM      8  C   UNL     1       3.305   6.570  18.361  0.00  0.00    +0.000 A 
ATOM      9  C   UNL     1       1.267   4.464  20.592  0.00  0.00    +0.000 C 
ATOM     10  C   UNL     1       1.281   2.971  20.905  0.00  0.00    +0.000 C 
ATOM     11  C   UNL     1       2.667   2.549  21.378  0.00  0.00    +0.000 C 
ATOM     12  C   UNL     1       3.699   2.773  20.273  0.00  0.00    +0.000 C 
BRANCH   3  14
ATOM     13  N   UNL     1       6.429   6.764  16.733  0.00  0.00    +0.000 NA
ATOM     14  C   UNL     1       5.576   6.337  17.384  0.00  0.00    +0.000 C 
ENDBRANCH   3  14
ENDBRANCH   2   8
ENDBRANCH   1   2
BRANCH   1  15
ATOM     15  C   UNL     1       1.283  10.220  18.379  0.00  0.00    +0.000 C 
BRANCH  15  16
ATOM     16  O   UNL     1       2.153  10.724  17.363  0.00  0.00    +0.000 OA
ATOM     17  H   UNL     1       3.073  10.574  17.653  0.00  0.00    +0.000 HD
ENDBRANCH  15  16
BRANCH  15  18
ATOM     18  C   UNL     1      -0.163  10.611  18.093  0.00  0.00    +0.000 C 
BRANCH  18  19
ATOM     19  S   UNL     1      -0.669  12.107  18.919  0.00  0.00    +0.000 S 
ATOM     20  O   UNL     1      -0.420  13.179  17.970  0.00  0.00    +0.000 OA
ATOM     21  O   UNL     1      -2.011  11.887  19.425  0.00  0.00    +0.000 OA
BRANCH  19  22
ATOM     22  C   UNL     1       0.485  12.278  20.282  0.00  0.00    +0.000 C 
BRANCH  22  23
ATOM     23  C   UNL     1       0.152  11.310  21.378  0.00  0.00    +0.000 A 
ATOM     24  C   UNL     1       0.939  10.163  21.563  0.00  0.00    +0.000 A 
ATOM     25  C   UNL     1       0.661   9.273  22.598  0.00  0.00    +0.000 A 
ATOM     26  C   UNL     1      -0.408   9.520  23.457  0.00  0.00    +0.000 A 
ATOM     27  C   UNL     1      -1.198  10.655  23.282  0.00  0.00    +0.000 A 
ATOM     28  C   UNL     1      -0.921  11.547  22.246  0.00  0.00    +0.000 A 
ENDBRANCH  22  23
ENDBRANCH  19  22
ENDBRANCH  18  19
ENDBRANCH  15  18
ENDBRANCH   1  15
TORSDOF 9
ENDMDL
MODEL 9
REMARK VINA RESULT:      -6.7      6.114      9.514
REMARK  Name = 
REMARK  9 active torsions:
REMARK  status: ('A' for Active; 'I' for Inactive)
REMARK    1  A    between atoms: C_2  and  C_3
REMARK    2  A    between atoms: C_8  and  S_9
REMARK    3  A    between atoms: S_9  and  C_10
REMARK    4  A    between atoms: C_10  and  C_11
REMARK    5  A    between atoms: C_11  and  O_12
REMARK    6  A    between atoms: C_11  and  C_13
REMARK    7  A    between atoms: C_13  and  S_14
REMARK    8  A    between atoms: S_14  and  C_17
REMARK    9  A    between atoms: C_17  and  C_18
REMARK                            x       y       z     vdW  Elec       q    Type
REMARK                         _______ _______ _______ _____ _____    ______ ____
ROOT
ATOM      1  C   UNL     1      -0.388  10.899  19.671  0.00  0.00    +0.000 C 
ENDROOT
BRANCH   1   2
ATOM      2  S   UNL     1       0.207  12.384  20.586  0.00  0.00    +0.000 S 
BRANCH   2   8
ATOM      3  C   UNL     1      -1.529  11.923  22.730  0.00  0.00    +0.000 A 
ATOM      4  C   UNL     1      -2.656  12.263  23.485  0.00  0.00    +0.000 A 
ATOM      5  C   UNL     1      -3.420  13.382  23.145  0.00  0.00    +0.000 A 
ATOM      6  C   UNL     1      -3.032  14.116  22.026  0.00  0.00    +0.000 A 
ATOM      7  N   UNL     1      -1.943  13.799  21.288  0.00  0.00    +0.000 NA
ATOM      8  C   UNL     1      -1.204  12.719  21.634  0.00  0.00    +0.000 A 
ATOM      9  C   UNL     1      -3.773  15.357  21.601  0.00  0.00    +0.000 C 
ATOM     10  C   UNL     1      -5.185  15.433  22.173  0.00  0.00    +0.000 C 
ATOM     11  C   UNL     1      -5.160  15.143  23.669  0.00  0.00    +0.000 C 
ATOM     12  C   UNL     1      -4.660  13.722  23.930  0.00  0.00    +0.000 C 
BRANCH   3  14
ATOM     13  N   UNL     1      -0.117   9.852  23.382  0.00  0.00    +0.000 NA
ATOM     14  C   UNL     1      -0.764  10.771  23.110  0.00  0.00    +0.000 C 
ENDBRANCH   3  14
ENDBRANCH   2   8
ENDBRANCH   1   2
BRANCH   1  15
ATOM     15  C   UNL     1      -0.849  11.254  18.245  0.00  0.00    +0.000 C 
BRANCH  15  16
ATOM     16  O   UNL     1      -0.648  10.110  17.413  0.00  0.00    +0.000 OA
ATOM     17  H   UNL     1      -0.266  10.415  16.568  0.00  0.00    +0.000 HD
ENDBRANCH  15  16
BRANCH  15  18
ATOM     18  C   UNL     1      -2.300  11.717  18.183  0.00  0.00    +0.000 C 
BRANCH  18  19
ATOM     19  S   UNL     1      -3.294  10.780  17.038  0.00  0.00    +0.000 S 
ATOM     20  O   UNL     1      -2.639  10.918  15.749  0.00  0.00    +0.000 OA
ATOM     21  O   UNL     1      -3.486   9.461  17.613  0.00  0.00    +0.000 OA
BRANCH  19  22
ATOM     22  C   UNL     1      -4.857  11.660  16.976  0.00  0.00    +0.000 C 
BRANCH  22  23
ATOM     23  C   UNL     1      -5.563  11.571  18.297  0.00  0.00    +0.000 A 
ATOM     24  C   UNL     1      -6.590  10.633  18.480  0.00  0.00    +0.000 A 
ATOM     25  C   UNL     1      -7.232  10.518  19.712  0.00  0.00    +0.000 A 
ATOM     26  C   UNL     1      -6.854  11.340  20.770  0.00  0.00    +0.000 A 
ATOM     27  C   UNL     1      -5.836  12.277  20.599  0.00  0.00    +0.000 A 
ATOM     28  C   UNL     1      -5.193  12.395  19.368  0.00  0.00    +0.000 A 
ENDBRANCH  22  23
ENDBRANCH  19  22
ENDBRANCH  18  19
ENDBRANCH  15  18
ENDBRANCH   1  15
TORSDOF 9
ENDMDL
