MODEL 1
REMARK VINA RESULT:      -7.1      0.000      0.000
REMARK  Name = 
REMARK  6 active torsions:
REMARK  status: ('A' for Active; 'I' for Inactive)
REMARK    1  A    between atoms: C_1  and  C_2
REMARK    2  A    between atoms: C_2  and  C_3
REMARK    3  A    between atoms: C_4  and  C_5
REMARK    4  A    between atoms: C_5  and  O_6
REMARK    5  A    between atoms: C_7  and  C_8
REMARK    6  A    between atoms: C_8  and  O_9
REMARK                            x       y       z     vdW  Elec       q    Type
REMARK                         _______ _______ _______ _____ _____    ______ ____
ROOT
ATOM      1  C   UNL     1       2.882   4.105  20.250  0.00  0.00    +0.000 A 
ATOM      2  C   UNL     1       3.604   3.439  19.263  0.00  0.00    +0.000 A 
ATOM      3  C   UNL     1       3.785   4.357  18.178  0.00  0.00    +0.000 A 
ATOM      4  C   UNL     1       3.166   5.541  18.540  0.00  0.00    +0.000 A 
ATOM      5  N   UNL     1       2.638   5.386  19.796  0.00  0.00    +0.000 N 
ATOM      6  C   UNL     1       1.924   6.437  20.529  0.00  0.00    +0.000 C 
ATOM      7  C   UNL     1       1.795   7.742  19.781  0.00  0.00    +0.000 A 
ATOM      8  C   UNL     1       1.124   8.819  20.389  0.00  0.00    +0.000 A 
ATOM      9  C   UNL     1       0.979  10.040  19.726  0.00  0.00    +0.000 A 
ATOM     10  C   UNL     1       1.496  10.204  18.447  0.00  0.00    +0.000 A 
ATOM     11  C   UNL     1       2.160   9.149  17.829  0.00  0.00    +0.000 A 
ATOM     12  C   UNL     1       2.311   7.918  18.489  0.00  0.00    +0.000 A 
ATOM     13  C   UNL     1       3.037   6.810  17.768  0.00  0.00    +0.000 C 
ENDROOT
BRANCH   1  15
ATOM     14  C   UNL     1       1.195   2.693  21.452  0.00  0.00    +0.000 C 
ATOM     15  C   UNL     1       2.414   3.592  21.580  0.00  0.00    +0.000 C 
ENDBRANCH   1  15
BRANCH   2  16
ATOM     16  C   UNL     1       4.113   2.030  19.304  0.00  0.00    +0.000 C 
BRANCH  16  17
ATOM     17  O   UNL     1       5.246   1.914  20.156  0.00  0.00    +0.000 OA
ATOM     18  H   UNL     1       5.926   1.479  19.608  0.00  0.00    +0.000 HD
ENDBRANCH  16  17
ENDBRANCH   2  16
BRANCH   3  19
ATOM     19  C   UNL     1       4.504   4.081  16.897  0.00  0.00    +0.000 C 
BRANCH  19  20
ATOM     20  O   UNL     1       5.902   3.937  17.125  0.00  0.00    +0.000 OA
ATOM     21  H   UNL     1       6.094   4.494  17.902  0.00  0.00    +0.000 HD
ENDBRANCH  19  20
ENDBRANCH   3  19
TORSDOF 5
ENDMDL
MODEL 2
REMARK VINA RESULT:      -7.1      1.188      3.219
REMARK  Name = 
REMARK  6 active torsions:
REMARK  status: ('A' for Active; 'I' for Inactive)
REMARK    1  A    between atoms: C_1  and  C_2
REMARK    2  A    between atoms: C_2  and  C_3
REMARK    3  A    between atoms: C_4  and  C_5
REMARK    4  A    between atoms: C_5  and  O_6
REMARK    5  A    between atoms: C_7  and  C_8
REMARK    6  A    between atoms: C_8  and  O_9
REMARK                            x       y       z     vdW  Elec       q    Type
REMARK                         _______ _______ _______ _____ _____    ______ ____
ROOT
ATOM      1  C   UNL     1       3.586   4.465  18.262  0.00  0.00    +0.000 A 
ATOM      2  C   UNL     1       3.373   3.525  19.267  0.00  0.00    +0.000 A 
ATOM      3  C   UNL     1       2.623   4.174  20.301  0.00  0.00    +0.000 A 
ATOM      4  C   UNL     1       2.410   5.479  19.892  0.00  0.00    +0.000 A 
ATOM      5  N   UNL     1       2.981   5.642  18.655  0.00  0.00    +0.000 N 
ATOM      6  C   UNL     1       2.942   6.889  17.883  0.00  0.00    +0.000 C 
ATOM      7  C   UNL     1       2.218   8.024  18.567  0.00  0.00    +0.000 A 
ATOM      8  C   UNL     1       2.124   9.269  17.918  0.00  0.00    +0.000 A 
ATOM      9  C   UNL     1       1.468  10.344  18.522  0.00  0.00    +0.000 A 
ATOM     10  C   UNL     1       0.899  10.196  19.782  0.00  0.00    +0.000 A 
ATOM     11  C   UNL     1       0.985   8.973  20.439  0.00  0.00    +0.000 A 
ATOM     12  C   UNL     1       1.644   7.886  19.839  0.00  0.00    +0.000 A 
ATOM     13  C   UNL     1       1.708   6.586  20.601  0.00  0.00    +0.000 C 
ENDROOT
BRANCH   1  15
ATOM     14  C   UNL     1       5.819   4.562  17.126  0.00  0.00    +0.000 C 
ATOM     15  C   UNL     1       4.329   4.305  16.967  0.00  0.00    +0.000 C 
ENDBRANCH   1  15
BRANCH   2  16
ATOM     16  C   UNL     1       3.827   2.097  19.288  0.00  0.00    +0.000 C 
BRANCH  16  17
ATOM     17  O   UNL     1       5.101   1.969  19.907  0.00  0.00    +0.000 OA
ATOM     18  H   UNL     1       5.049   2.532  20.702  0.00  0.00    +0.000 HD
ENDBRANCH  16  17
ENDBRANCH   2  16
BRANCH   3  19
ATOM     19  C   UNL     1       2.162   3.554  21.580  0.00  0.00    +0.000 C 
BRANCH  19  20
ATOM     20  O   UNL     1       0.938   2.853  21.388  0.00  0.00    +0.000 OA
ATOM     21  H   UNL     1       0.463   2.929  22.235  0.00  0.00    +0.000 HD
ENDBRANCH  19  20
ENDBRANCH   3  19
TORSDOF 5
ENDMDL
MODEL 3
REMARK VINA RESULT:      -6.8      1.106      1.300
REMARK  Name = 
REMARK  6 active torsions:
REMARK  status: ('A' for Active; 'I' for Inactive)
REMARK    1  A    between atoms: C_1  and  C_2
REMARK    2  A    between atoms: C_2  and  C_3
REMARK    3  A    between atoms: C_4  and  C_5
REMARK    4  A    between atoms: C_5  and  O_6
REMARK    5  A    between atoms: C_7  and  C_8
REMARK    6  A    between atoms: C_8  and  O_9
REMARK                            x       y       z     vdW  Elec       q    Type
REMARK                         _______ _______ _______ _____ _____    ______ ____
ROOT
ATOM      1  C   UNL     1       2.794   5.090  20.003  0.00  0.00    +0.000 A 
ATOM      2  C   UNL     1       3.644   4.666  18.985  0.00  0.00    +0.000 A 
ATOM      3  C   UNL     1       3.751   5.744  18.047  0.00  0.00    +0.000 A 
ATOM      4  C   UNL     1       2.963   6.778  18.523  0.00  0.00    +0.000 A 
ATOM      5  N   UNL     1       2.402   6.381  19.710  0.00  0.00    +0.000 N 
ATOM      6  C   UNL     1       1.519   7.219  20.529  0.00  0.00    +0.000 C 
ATOM      7  C   UNL     1       1.252   8.590  19.956  0.00  0.00    +0.000 A 
ATOM      8  C   UNL     1       0.415   9.477  20.658  0.00  0.00    +0.000 A 
ATOM      9  C   UNL     1       0.139  10.751  20.156  0.00  0.00    +0.000 A 
ATOM     10  C   UNL     1       0.689  11.158  18.947  0.00  0.00    +0.000 A 
ATOM     11  C   UNL     1       1.517  10.294  18.238  0.00  0.00    +0.000 A 
ATOM     12  C   UNL     1       1.800   9.010  18.736  0.00  0.00    +0.000 A 
ATOM     13  C   UNL     1       2.701   8.116  17.922  0.00  0.00    +0.000 C 
ENDROOT
BRANCH   1  15
ATOM     14  C   UNL     1       1.234   3.342  20.898  0.00  0.00    +0.000 C 
ATOM     15  C   UNL     1       2.336   4.338  21.219  0.00  0.00    +0.000 C 
ENDBRANCH   1  15
BRANCH   2  16
ATOM     16  C   UNL     1       4.335   3.341  18.870  0.00  0.00    +0.000 C 
BRANCH  16  17
ATOM     17  O   UNL     1       5.737   3.470  19.070  0.00  0.00    +0.000 OA
ATOM     18  H   UNL     1       6.117   2.648  18.705  0.00  0.00    +0.000 HD
ENDBRANCH  16  17
ENDBRANCH   2  16
BRANCH   3  19
ATOM     19  C   UNL     1       4.560   5.745  16.791  0.00  0.00    +0.000 C 
BRANCH  19  20
ATOM     20  O   UNL     1       5.950   5.838  17.086  0.00  0.00    +0.000 OA
ATOM     21  H   UNL     1       6.071   6.723  17.475  0.00  0.00    +0.000 HD
ENDBRANCH  19  20
ENDBRANCH   3  19
TORSDOF 5
ENDMDL
MODEL 4
REMARK VINA RESULT:      -6.6      2.823      5.290
REMARK  Name = 
REMARK  6 active torsions:
REMARK  status: ('A' for Active; 'I' for Inactive)
REMARK    1  A    between atoms: C_1  and  C_2
REMARK    2  A    between atoms: C_2  and  C_3
REMARK    3  A    between atoms: C_4  and  C_5
REMARK    4  A    between atoms: C_5  and  O_6
REMARK    5  A    between atoms: C_7  and  C_8
REMARK    6  A    between atoms: C_8  and  O_9
REMARK                            x       y       z     vdW  Elec       q    Type
REMARK                         _______ _______ _______ _____ _____    ______ ____
ROOT
ATOM      1  C   UNL     1       2.415   5.953  19.888  0.00  0.00    +0.000 A 
ATOM      2  C   UNL     1       1.930   7.258  19.903  0.00  0.00    +0.000 A 
ATOM      3  C   UNL     1       2.450   7.917  18.743  0.00  0.00    +0.000 A 
ATOM      4  C   UNL     1       3.234   6.996  18.069  0.00  0.00    +0.000 A 
ATOM      5  N   UNL     1       3.195   5.811  18.758  0.00  0.00    +0.000 N 
ATOM      6  C   UNL     1       3.886   4.587  18.338  0.00  0.00    +0.000 C 
ATOM      7  C   UNL     1       4.679   4.725  17.060  0.00  0.00    +0.000 A 
ATOM      8  C   UNL     1       5.386   3.612  16.567  0.00  0.00    +0.000 A 
ATOM      9  C   UNL     1       6.136   3.703  15.392  0.00  0.00    +0.000 A 
ATOM     10  C   UNL     1       6.195   4.903  14.694  0.00  0.00    +0.000 A 
ATOM     11  C   UNL     1       5.505   6.014  15.168  0.00  0.00    +0.000 A 
ATOM     12  C   UNL     1       4.748   5.932  16.350  0.00  0.00    +0.000 A 
ATOM     13  C   UNL     1       4.024   7.169  16.817  0.00  0.00    +0.000 C 
ENDROOT
BRANCH   1  15
ATOM     14  C   UNL     1       0.992   3.986  20.512  0.00  0.00    +0.000 C 
ATOM     15  C   UNL     1       2.185   4.853  20.882  0.00  0.00    +0.000 C 
ENDBRANCH   1  15
BRANCH   2  16
ATOM     16  C   UNL     1       1.027   7.880  20.925  0.00  0.00    +0.000 C 
BRANCH  16  17
ATOM     17  O   UNL     1       1.772   8.526  21.949  0.00  0.00    +0.000 OA
ATOM     18  H   UNL     1       2.532   7.936  22.114  0.00  0.00    +0.000 HD
ENDBRANCH  16  17
ENDBRANCH   2  16
BRANCH   3  19
ATOM     19  C   UNL     1       2.196   9.334  18.342  0.00  0.00    +0.000 C 
BRANCH  19  20
ATOM     20  O   UNL     1       0.945   9.451  17.672  0.00  0.00    +0.000 OA
ATOM     21  H   UNL     1       0.806   8.591  17.237  0.00  0.00    +0.000 HD
ENDBRANCH  19  20
ENDBRANCH   3  19
TORSDOF 5
ENDMDL
MODEL 5
REMARK VINA RESULT:      -6.4      3.683      5.153
REMARK  Name = 
REMARK  6 active torsions:
REMARK  status: ('A' for Active; 'I' for Inactive)
REMARK    1  A    between atoms: C_1  and  C_2
REMARK    2  A    between atoms: C_2  and  C_3
REMARK    3  A    between atoms: C_4  and  C_5
REMARK    4  A    between atoms: C_5  and  O_6
REMARK    5  A    between atoms: C_7  and  C_8
REMARK    6  A    between atoms: C_8  and  O_9
REMARK                            x       y       z     vdW  Elec       q    Type
REMARK                         _______ _______ _______ _____ _____    ______ ____
ROOT
ATOM      1  C   UNL     1       6.577   4.983  17.617  0.00  0.00    +0.000 A 
ATOM      2  C   UNL     1       6.710   4.789  16.244  0.00  0.00    +0.000 A 
ATOM      3  C   UNL     1       5.470   4.252  15.770  0.00  0.00    +0.000 A 
ATOM      4  C   UNL     1       4.631   4.136  16.865  0.00  0.00    +0.000 A 
ATOM      5  N   UNL     1       5.301   4.593  17.972  0.00  0.00    +0.000 N 
ATOM      6  C   UNL     1       4.728   4.649  19.321  0.00  0.00    +0.000 C 
ATOM      7  C   UNL     1       3.308   4.144  19.418  0.00  0.00    +0.000 A 
ATOM      8  C   UNL     1       2.661   4.149  20.668  0.00  0.00    +0.000 A 
ATOM      9  C   UNL     1       1.350   3.684  20.798  0.00  0.00    +0.000 A 
ATOM     10  C   UNL     1       0.667   3.204  19.686  0.00  0.00    +0.000 A 
ATOM     11  C   UNL     1       1.292   3.189  18.444  0.00  0.00    +0.000 A 
ATOM     12  C   UNL     1       2.611   3.655  18.304  0.00  0.00    +0.000 A 
ATOM     13  C   UNL     1       3.238   3.612  16.933  0.00  0.00    +0.000 C 
ENDROOT
BRANCH   1  15
ATOM     14  C   UNL     1       7.887   6.982  18.375  0.00  0.00    +0.000 C 
ATOM     15  C   UNL     1       7.587   5.508  18.595  0.00  0.00    +0.000 C 
ENDBRANCH   1  15
BRANCH   2  16
ATOM     16  C   UNL     1       7.911   5.082  15.398  0.00  0.00    +0.000 C 
BRANCH  16  17
ATOM     17  O   UNL     1       7.534   5.587  14.123  0.00  0.00    +0.000 OA
ATOM     18  H   UNL     1       8.099   5.106  13.488  0.00  0.00    +0.000 HD
ENDBRANCH  16  17
ENDBRANCH   2  16
BRANCH   3  19
ATOM     19  C   UNL     1       5.148   3.885  14.358  0.00  0.00    +0.000 C 
BRANCH  19  20
ATOM     20  O   UNL     1       6.197   3.110  13.787  0.00  0.00    +0.000 OA
ATOM     21  H   UNL     1       5.772   2.572  13.096  0.00  0.00    +0.000 HD
ENDBRANCH  19  20
ENDBRANCH   3  19
TORSDOF 5
ENDMDL
MODEL 6
REMARK VINA RESULT:      -6.4      2.541      5.694
REMARK  Name = 
REMARK  6 active torsions:
REMARK  status: ('A' for Active; 'I' for Inactive)
REMARK    1  A    between atoms: C_1  and  C_2
REMARK    2  A    between atoms: C_2  and  C_3
REMARK    3  A    between atoms: C_4  and  C_5
REMARK    4  A    between atoms: C_5  and  O_6
REMARK    5  A    between atoms: C_7  and  C_8
REMARK    6  A    between atoms: C_8  and  O_9
REMARK                            x       y       z     vdW  Elec       q    Type
REMARK                         _______ _______ _______ _____ _____    ______ ____
ROOT
ATOM      1  C   UNL     1       2.413   7.760  18.983  0.00  0.00    +0.000 A 
ATOM      2  C   UNL     1       1.862   7.097  20.077  0.00  0.00    +0.000 A 
ATOM      3  C   UNL     1       2.304   5.736  20.014  0.00  0.00    +0.000 A 
ATOM      4  C   UNL     1       3.100   5.618  18.888  0.00  0.00    +0.000 A 
ATOM      5  N   UNL     1       3.173   6.846  18.281  0.00  0.00    +0.000 N 
ATOM      6  C   UNL     1       3.949   7.124  17.067  0.00  0.00    +0.000 C 
ATOM      7  C   UNL     1       4.678   5.928  16.504  0.00  0.00    +0.000 A 
ATOM      8  C   UNL     1       5.450   6.081  15.338  0.00  0.00    +0.000 A 
ATOM      9  C   UNL     1       6.134   4.995  14.784  0.00  0.00    +0.000 A 
ATOM     10  C   UNL     1       6.055   3.743  15.382  0.00  0.00    +0.000 A 
ATOM     11  C   UNL     1       5.294   3.573  16.534  0.00  0.00    +0.000 A 
ATOM     12  C   UNL     1       4.603   4.659  17.098  0.00  0.00    +0.000 A 
ATOM     13  C   UNL     1       3.791   4.415  18.345  0.00  0.00    +0.000 C 
ENDROOT
BRANCH   1  15
ATOM     14  C   UNL     1       0.899   9.459  17.932  0.00  0.00    +0.000 C 
ATOM     15  C   UNL     1       2.251   9.195  18.574  0.00  0.00    +0.000 C 
ENDBRANCH   1  15
BRANCH   2  16
ATOM     16  C   UNL     1       0.975   7.675  21.138  0.00  0.00    +0.000 C 
BRANCH  16  17
ATOM     17  O   UNL     1       1.708   8.515  22.022  0.00  0.00    +0.000 OA
ATOM     18  H   UNL     1       1.052   8.816  22.680  0.00  0.00    +0.000 HD
ENDBRANCH  16  17
ENDBRANCH   2  16
BRANCH   3  19
ATOM     19  C   UNL     1       1.963   4.650  20.983  0.00  0.00    +0.000 C 
BRANCH  19  20
ATOM     20  O   UNL     1       0.754   4.000  20.605  0.00  0.00    +0.000 OA
ATOM     21  H   UNL     1       0.108   4.717  20.470  0.00  0.00    +0.000 HD
ENDBRANCH  19  20
ENDBRANCH   3  19
TORSDOF 5
ENDMDL
MODEL 7
REMARK VINA RESULT:      -6.2      1.396      2.030
REMARK  Name = 
REMARK  6 active torsions:
REMARK  status: ('A' for Active; 'I' for Inactive)
REMARK    1  A    between atoms: C_1  and  C_2
REMARK    2  A    between atoms: C_2  and  C_3
REMARK    3  A    between atoms: C_4  and  C_5
REMARK    4  A    between atoms: C_5  and  O_6
REMARK    5  A    between atoms: C_7  and  C_8
REMARK    6  A    between atoms: C_8  and  O_9
REMARK                            x       y       z     vdW  Elec       q    Type
REMARK                         _______ _______ _______ _____ _____    ______ ____
ROOT
ATOM      1  C   UNL     1       3.665   4.793  18.944  0.00  0.00    +0.000 A 
ATOM      2  C   UNL     1       4.430   4.858  17.783  0.00  0.00    +0.000 A 
ATOM      3  C   UNL     1       4.231   6.159  17.217  0.00  0.00    +0.000 A 
ATOM      4  C   UNL     1       3.353   6.834  18.048  0.00  0.00    +0.000 A 
ATOM      5  N   UNL     1       3.029   6.009  19.094  0.00  0.00    +0.000 N 
ATOM      6  C   UNL     1       2.137   6.384  20.197  0.00  0.00    +0.000 C 
ATOM      7  C   UNL     1       1.572   7.780  20.096  0.00  0.00    +0.000 A 
ATOM      8  C   UNL     1       0.700   8.243  21.100  0.00  0.00    +0.000 A 
ATOM      9  C   UNL     1       0.152   9.527  21.037  0.00  0.00    +0.000 A 
ATOM     10  C   UNL     1       0.462  10.366  19.973  0.00  0.00    +0.000 A 
ATOM     11  C   UNL     1       1.319   9.924  18.971  0.00  0.00    +0.000 A 
ATOM     12  C   UNL     1       1.875   8.634  19.026  0.00  0.00    +0.000 A 
ATOM     13  C   UNL     1       2.795   8.209  17.909  0.00  0.00    +0.000 C 
ENDROOT
BRANCH   1  15
ATOM     14  C   UNL     1       2.403   2.693  19.475  0.00  0.00    +0.000 C 
ATOM     15  C   UNL     1       3.505   3.649  19.902  0.00  0.00    +0.000 C 
ENDBRANCH   1  15
BRANCH   2  16
ATOM     16  C   UNL     1       5.309   3.787  17.213  0.00  0.00    +0.000 C 
BRANCH  16  17
ATOM     17  O   UNL     1       6.686   4.101  17.386  0.00  0.00    +0.000 OA
ATOM     18  H   UNL     1       6.884   3.852  18.309  0.00  0.00    +0.000 HD
ENDBRANCH  16  17
ENDBRANCH   2  16
BRANCH   3  19
ATOM     19  C   UNL     1       4.854   6.682  15.963  0.00  0.00    +0.000 C 
BRANCH  19  20
ATOM     20  O   UNL     1       6.257   6.857  16.133  0.00  0.00    +0.000 OA
ATOM     21  H   UNL     1       6.375   7.802  16.336  0.00  0.00    +0.000 HD
ENDBRANCH  19  20
ENDBRANCH   3  19
TORSDOF 5
ENDMDL
MODEL 8
REMARK VINA RESULT:      -6.1      3.614      5.539
REMARK  Name = 
REMARK  6 active torsions:
REMARK  status: ('A' for Active; 'I' for Inactive)
REMARK    1  A    between atoms: C_1  and  C_2
REMARK    2  A    between atoms: C_2  and  C_3
REMARK    3  A    between atoms: C_4  and  C_5
REMARK    4  A    between atoms: C_5  and  O_6
REMARK    5  A    between atoms: C_7  and  C_8
REMARK    6  A    between atoms: C_8  and  O_9
REMARK                            x       y       z     vdW  Elec       q    Type
REMARK                         _______ _______ _______ _____ _____    ______ ____
ROOT
ATOM      1  C   UNL     1       5.452   5.361  16.598  0.00  0.00    +0.000 A 
ATOM      2  C   UNL     1       6.570   5.837  17.278  0.00  0.00    +0.000 A 
ATOM      3  C   UNL     1       6.368   5.562  18.669  0.00  0.00    +0.000 A 
ATOM      4  C   UNL     1       5.138   4.936  18.786  0.00  0.00    +0.000 A 
ATOM      5  N   UNL     1       4.600   4.805  17.531  0.00  0.00    +0.000 N 
ATOM      6  C   UNL     1       3.310   4.167  17.247  0.00  0.00    +0.000 C 
ATOM      7  C   UNL     1       2.584   3.656  18.468  0.00  0.00    +0.000 A 
ATOM      8  C   UNL     1       1.334   3.028  18.312  0.00  0.00    +0.000 A 
ATOM      9  C   UNL     1       0.630   2.548  19.419  0.00  0.00    +0.000 A 
ATOM     10  C   UNL     1       1.158   2.689  20.696  0.00  0.00    +0.000 A 
ATOM     11  C   UNL     1       2.391   3.309  20.870  0.00  0.00    +0.000 A 
ATOM     12  C   UNL     1       3.107   3.795  19.762  0.00  0.00    +0.000 A 
ATOM     13  C   UNL     1       4.437   4.461  20.012  0.00  0.00    +0.000 C 
ENDROOT
BRANCH   1  15
ATOM     14  C   UNL     1       5.801   4.265  14.370  0.00  0.00    +0.000 C 
ATOM     15  C   UNL     1       5.153   5.412  15.128  0.00  0.00    +0.000 C 
ENDBRANCH   1  15
BRANCH   2  16
ATOM     16  C   UNL     1       7.774   6.508  16.690  0.00  0.00    +0.000 C 
BRANCH  16  17
ATOM     17  O   UNL     1       7.797   7.894  17.004  0.00  0.00    +0.000 OA
ATOM     18  H   UNL     1       8.416   7.969  17.755  0.00  0.00    +0.000 HD
ENDBRANCH  16  17
ENDBRANCH   2  16
BRANCH   3  19
ATOM     19  C   UNL     1       7.308   5.895  19.781  0.00  0.00    +0.000 C 
BRANCH  19  20
ATOM     20  O   UNL     1       8.484   5.095  19.703  0.00  0.00    +0.000 OA
ATOM     21  H   UNL     1       8.166   4.186  19.558  0.00  0.00    +0.000 HD
ENDBRANCH  19  20
ENDBRANCH   3  19
TORSDOF 5
ENDMDL
MODEL 9
REMARK VINA RESULT:      -6.0      4.031      7.277
REMARK  Name = 
REMARK  6 active torsions:
REMARK  status: ('A' for Active; 'I' for Inactive)
REMARK    1  A    between atoms: C_1  and  C_2
REMARK    2  A    between atoms: C_2  and  C_3
REMARK    3  A    between atoms: C_4  and  C_5
REMARK    4  A    between atoms: C_5  and  O_6
REMARK    5  A    between atoms: C_7  and  C_8
REMARK    6  A    between atoms: C_8  and  O_9
REMARK                            x       y       z     vdW  Elec       q    Type
REMARK                         _______ _______ _______ _____ _____    ______ ____
ROOT
ATOM      1  C   UNL     1       0.373  10.847  19.606  0.00  0.00    +0.000 A 
ATOM      2  C   UNL     1      -0.250  10.837  20.851  0.00  0.00    +0.000 A 
ATOM      3  C   UNL     1       0.077   9.592  21.480  0.00  0.00    +0.000 A 
ATOM      4  C   UNL     1       0.880   8.890  20.597  0.00  0.00    +0.000 A 
ATOM      5  N   UNL     1       1.066   9.659  19.477  0.00  0.00    +0.000 N 
ATOM      6  C   UNL     1       1.884   9.261  18.326  0.00  0.00    +0.000 C 
ATOM      7  C   UNL     1       2.520   7.897  18.454  0.00  0.00    +0.000 A 
ATOM      8  C   UNL     1       3.323   7.413  17.405  0.00  0.00    +0.000 A 
ATOM      9  C   UNL     1       3.922   6.153  17.485  0.00  0.00    +0.000 A 
ATOM     10  C   UNL     1       3.728   5.358  18.608  0.00  0.00    +0.000 A 
ATOM     11  C   UNL     1       2.935   5.821  19.654  0.00  0.00    +0.000 A 
ATOM     12  C   UNL     1       2.328   7.086  19.582  0.00  0.00    +0.000 A 
ATOM     13  C   UNL     1       1.477   7.533  20.744  0.00  0.00    +0.000 C 
ENDROOT
BRANCH   1  15
ATOM     14  C   UNL     1       1.328  13.029  18.824  0.00  0.00    +0.000 C 
ATOM     15  C   UNL     1       0.340  11.908  18.545  0.00  0.00    +0.000 C 
ENDBRANCH   1  15
BRANCH   2  16
ATOM     16  C   UNL     1      -1.103  11.915  21.448  0.00  0.00    +0.000 C 
BRANCH  16  17
ATOM     17  O   UNL     1      -0.457  12.534  22.554  0.00  0.00    +0.000 OA
ATOM     18  H   UNL     1      -0.172  11.793  23.122  0.00  0.00    +0.000 HD
ENDBRANCH  16  17
ENDBRANCH   2  16
BRANCH   3  19
ATOM     19  C   UNL     1      -0.371   9.140  22.831  0.00  0.00    +0.000 C 
BRANCH  19  20
ATOM     20  O   UNL     1       0.380   9.787  23.853  0.00  0.00    +0.000 OA
ATOM     21  H   UNL     1       1.309   9.559  23.673  0.00  0.00    +0.000 HD
ENDBRANCH  19  20
ENDBRANCH   3  19
TORSDOF 5
ENDMDL
