MODEL 1
REMARK VINA RESULT:      -8.5      0.000      0.000
REMARK  Name = 
REMARK  6 active torsions:
REMARK  status: ('A' for Active; 'I' for Inactive)
REMARK    1  A    between atoms: C_1  and  C_2
REMARK    2  A    between atoms: C_4  and  C_5
REMARK    3  A    between atoms: C_13  and  C_14
REMARK    4  A    between atoms: N_16  and  C_17
REMARK    5  A    between atoms: C_17  and  C_18
REMARK    6  A    between atoms: C_18  and  C_19
REMARK                            x       y       z     vdW  Elec       q    Type
REMARK                         _______ _______ _______ _____ _____    ______ ____
ROOT
ATOM      1  C   UNL     1       8.240   5.541  19.255  0.00  0.00    +0.000 C 
ATOM      2  C   UNL     1       7.999   6.862  18.637  0.00  0.00    +0.000 A 
ATOM      3  O   UNL     1       8.876   7.836  19.027  0.00  0.00    +0.000 OA
ATOM      4  C   UNL     1       8.520   9.000  18.414  0.00  0.00    +0.000 A 
ATOM      5  C   UNL     1       7.426   8.765  17.613  0.00  0.00    +0.000 A 
ATOM      6  C   UNL     1       7.068   7.384  17.749  0.00  0.00    +0.000 A 
ENDROOT
BRANCH   4   7
ATOM      7  C   UNL     1       9.303  10.189  18.743  0.00  0.00    +0.000 A 
ATOM      8  C   UNL     1       9.994  10.906  17.754  0.00  0.00    +0.000 A 
ATOM      9  C   UNL     1      10.788  12.010  18.089  0.00  0.00    +0.000 A 
ATOM     10  C   UNL     1      10.891  12.410  19.420  0.00  0.00    +0.000 A 
ATOM     11 CL   UNL     1      11.892  13.744  19.838  0.00  0.00    +0.000 Cl
ATOM     12  C   UNL     1      10.196  11.727  20.413  0.00  0.00    +0.000 A 
ATOM     13  C   UNL     1       9.405  10.625  20.074  0.00  0.00    +0.000 A 
ENDBRANCH   4   7
BRANCH   6  14
ATOM     14  C   UNL     1       5.939   6.772  17.061  0.00  0.00    +0.000 C 
ATOM     15  O   UNL     1       5.871   6.777  15.834  0.00  0.00    +0.000 OA
ATOM     16  N   UNL     1       4.960   6.189  17.832  0.00  0.00    +0.000 N 
ATOM     17  H   UNL     1       4.974   6.282  18.835  0.00  0.00    +0.000 HD
BRANCH  16  18
ATOM     18  C   UNL     1       3.782   5.623  17.204  0.00  0.00    +0.000 C 
BRANCH  18  19
ATOM     19  C   UNL     1       2.484   5.925  17.958  0.00  0.00    +0.000 C 
BRANCH  19  20
ATOM     20  C   UNL     1       2.015   4.794  18.843  0.00  0.00    +0.000 A 
ATOM     21  C   UNL     1       1.993   4.929  20.239  0.00  0.00    +0.000 A 
ATOM     22  C   UNL     1       1.569   3.873  21.048  0.00  0.00    +0.000 A 
ATOM     23  C   UNL     1       1.151   2.675  20.471  0.00  0.00    +0.000 A 
ATOM     24  C   UNL     1       1.147   2.537  19.085  0.00  0.00    +0.000 A 
ATOM     25  C   UNL     1       1.573   3.590  18.274  0.00  0.00    +0.000 A 
ENDBRANCH  19  20
ENDBRANCH  18  19
ENDBRANCH  16  18
ENDBRANCH   6  14
TORSDOF 5
ENDMDL
MODEL 2
REMARK VINA RESULT:      -8.4      0.614      1.040
REMARK  Name = 
REMARK  6 active torsions:
REMARK  status: ('A' for Active; 'I' for Inactive)
REMARK    1  A    between atoms: C_1  and  C_2
REMARK    2  A    between atoms: C_4  and  C_5
REMARK    3  A    between atoms: C_13  and  C_14
REMARK    4  A    between atoms: N_16  and  C_17
REMARK    5  A    between atoms: C_17  and  C_18
REMARK    6  A    between atoms: C_18  and  C_19
REMARK                            x       y       z     vdW  Elec       q    Type
REMARK                         _______ _______ _______ _____ _____    ______ ____
ROOT
ATOM      1  C   UNL     1       8.211   5.582  19.271  0.00  0.00    +0.000 C 
ATOM      2  C   UNL     1       7.899   6.858  18.591  0.00  0.00    +0.000 A 
ATOM      3  O   UNL     1       8.719   7.896  18.935  0.00  0.00    +0.000 OA
ATOM      4  C   UNL     1       8.301   9.008  18.268  0.00  0.00    +0.000 A 
ATOM      5  C   UNL     1       7.225   8.675  17.479  0.00  0.00    +0.000 A 
ATOM      6  C   UNL     1       6.943   7.284  17.679  0.00  0.00    +0.000 A 
ENDROOT
BRANCH   4   7
ATOM      7  C   UNL     1       9.016  10.253  18.541  0.00  0.00    +0.000 A 
ATOM      8  C   UNL     1       9.858  10.383  19.656  0.00  0.00    +0.000 A 
ATOM      9  C   UNL     1      10.492  11.599  19.940  0.00  0.00    +0.000 A 
ATOM     10  C   UNL     1      10.294  12.695  19.102  0.00  0.00    +0.000 A 
ATOM     11 CL   UNL     1      11.045  14.198  19.467  0.00  0.00    +0.000 Cl
ATOM     12  C   UNL     1       9.483  12.580  17.979  0.00  0.00    +0.000 A 
ATOM     13  C   UNL     1       8.851  11.364  17.699  0.00  0.00    +0.000 A 
ENDBRANCH   4   7
BRANCH   6  14
ATOM     14  C   UNL     1       5.852   6.578  17.020  0.00  0.00    +0.000 C 
ATOM     15  O   UNL     1       5.592   6.785  15.837  0.00  0.00    +0.000 OA
ATOM     16  N   UNL     1       5.132   5.675  17.767  0.00  0.00    +0.000 N 
ATOM     17  H   UNL     1       5.286   5.591  18.758  0.00  0.00    +0.000 HD
BRANCH  16  18
ATOM     18  C   UNL     1       3.994   4.993  17.181  0.00  0.00    +0.000 C 
BRANCH  18  19
ATOM     19  C   UNL     1       2.649   5.443  17.760  0.00  0.00    +0.000 C 
BRANCH  19  20
ATOM     20  C   UNL     1       2.146   4.569  18.885  0.00  0.00    +0.000 A 
ATOM     21  C   UNL     1       2.516   4.818  20.215  0.00  0.00    +0.000 A 
ATOM     22  C   UNL     1       2.054   3.996  21.246  0.00  0.00    +0.000 A 
ATOM     23  C   UNL     1       1.209   2.926  20.961  0.00  0.00    +0.000 A 
ATOM     24  C   UNL     1       0.817   2.682  19.647  0.00  0.00    +0.000 A 
ATOM     25  C   UNL     1       1.279   3.500  18.614  0.00  0.00    +0.000 A 
ENDBRANCH  19  20
ENDBRANCH  18  19
ENDBRANCH  16  18
ENDBRANCH   6  14
TORSDOF 5
ENDMDL
MODEL 3
REMARK VINA RESULT:      -8.2      4.108      7.476
REMARK  Name = 
REMARK  6 active torsions:
REMARK  status: ('A' for Active; 'I' for Inactive)
REMARK    1  A    between atoms: C_1  and  C_2
REMARK    2  A    between atoms: C_4  and  C_5
REMARK    3  A    between atoms: C_13  and  C_14
REMARK    4  A    between atoms: N_16  and  C_17
REMARK    5  A    between atoms: C_17  and  C_18
REMARK    6  A    between atoms: C_18  and  C_19
REMARK                            x       y       z     vdW  Elec       q    Type
REMARK                         _______ _______ _______ _____ _____    ______ ____
ROOT
ATOM      1  C   UNL     1       1.333   3.405  20.912  0.00  0.00    +0.000 C 
ATOM      2  C   UNL     1       1.933   4.641  20.365  0.00  0.00    +0.000 A 
ATOM      3  O   UNL     1       1.357   5.795  20.817  0.00  0.00    +0.000 OA
ATOM      4  C   UNL     1       1.978   6.846  20.213  0.00  0.00    +0.000 A 
ATOM      5  C   UNL     1       2.968   6.364  19.389  0.00  0.00    +0.000 A 
ATOM      6  C   UNL     1       2.951   4.934  19.468  0.00  0.00    +0.000 A 
ENDROOT
BRANCH   4   7
ATOM      7  C   UNL     1       1.470   8.182  20.519  0.00  0.00    +0.000 A 
ATOM      8  C   UNL     1       1.127   8.551  21.829  0.00  0.00    +0.000 A 
ATOM      9  C   UNL     1       0.587   9.815  22.101  0.00  0.00    +0.000 A 
ATOM     10  C   UNL     1       0.393  10.723  21.062  0.00  0.00    +0.000 A 
ATOM     11 CL   UNL     1      -0.302  12.262  21.390  0.00  0.00    +0.000 Cl
ATOM     12  C   UNL     1       0.748  10.386  19.761  0.00  0.00    +0.000 A 
ATOM     13  C   UNL     1       1.287   9.123  19.493  0.00  0.00    +0.000 A 
ENDBRANCH   4   7
BRANCH   6  14
ATOM     14  C   UNL     1       3.852   4.072  18.712  0.00  0.00    +0.000 C 
ATOM     15  O   UNL     1       4.547   3.234  19.282  0.00  0.00    +0.000 OA
ATOM     16  N   UNL     1       3.890   4.230  17.346  0.00  0.00    +0.000 N 
ATOM     17  H   UNL     1       3.396   4.986  16.903  0.00  0.00    +0.000 HD
BRANCH  16  18
ATOM     18  C   UNL     1       4.815   3.445  16.551  0.00  0.00    +0.000 C 
BRANCH  18  19
ATOM     19  C   UNL     1       5.912   4.283  15.888  0.00  0.00    +0.000 C 
BRANCH  19  20
ATOM     20  C   UNL     1       6.627   5.216  16.838  0.00  0.00    +0.000 A 
ATOM     21  C   UNL     1       6.525   6.607  16.700  0.00  0.00    +0.000 A 
ATOM     22  C   UNL     1       7.199   7.460  17.576  0.00  0.00    +0.000 A 
ATOM     23  C   UNL     1       7.973   6.931  18.607  0.00  0.00    +0.000 A 
ATOM     24  C   UNL     1       8.065   5.550  18.768  0.00  0.00    +0.000 A 
ATOM     25  C   UNL     1       7.393   4.696  17.892  0.00  0.00    +0.000 A 
ENDBRANCH  19  20
ENDBRANCH  18  19
ENDBRANCH  16  18
ENDBRANCH   6  14
TORSDOF 5
ENDMDL
MODEL 4
REMARK VINA RESULT:      -8.2      4.076      7.374
REMARK  Name = 
REMARK  6 active torsions:
REMARK  status: ('A' for Active; 'I' for Inactive)
REMARK    1  A    between atoms: C_1  and  C_2
REMARK    2  A    between atoms: C_4  and  C_5
REMARK    3  A    between atoms: C_13  and  C_14
REMARK    4  A    between atoms: N_16  and  C_17
REMARK    5  A    between atoms: C_17  and  C_18
REMARK    6  A    between atoms: C_18  and  C_19
REMARK                            x       y       z     vdW  Elec       q    Type
REMARK                         _______ _______ _______ _____ _____    ______ ____
ROOT
ATOM      1  C   UNL     1       2.106   3.527  21.046  0.00  0.00    +0.000 C 
ATOM      2  C   UNL     1       2.421   4.721  20.232  0.00  0.00    +0.000 A 
ATOM      3  O   UNL     1       1.843   5.876  20.677  0.00  0.00    +0.000 OA
ATOM      4  C   UNL     1       2.186   6.881  19.824  0.00  0.00    +0.000 A 
ATOM      5  C   UNL     1       3.004   6.371  18.843  0.00  0.00    +0.000 A 
ATOM      6  C   UNL     1       3.165   4.969  19.086  0.00  0.00    +0.000 A 
ENDROOT
BRANCH   4   7
ATOM      7  C   UNL     1       1.618   8.201  20.091  0.00  0.00    +0.000 A 
ATOM      8  C   UNL     1       1.218   8.578  21.383  0.00  0.00    +0.000 A 
ATOM      9  C   UNL     1       0.623   9.824  21.616  0.00  0.00    +0.000 A 
ATOM     10  C   UNL     1       0.429  10.708  20.556  0.00  0.00    +0.000 A 
ATOM     11 CL   UNL     1      -0.333  12.224  20.835  0.00  0.00    +0.000 Cl
ATOM     12  C   UNL     1       0.839  10.364  19.273  0.00  0.00    +0.000 A 
ATOM     13  C   UNL     1       1.434   9.118  19.044  0.00  0.00    +0.000 A 
ENDBRANCH   4   7
BRANCH   6  14
ATOM     14  C   UNL     1       3.954   4.087  18.236  0.00  0.00    +0.000 C 
ATOM     15  O   UNL     1       4.323   2.987  18.641  0.00  0.00    +0.000 OA
ATOM     16  N   UNL     1       4.265   4.528  16.971  0.00  0.00    +0.000 N 
ATOM     17  H   UNL     1       4.047   5.469  16.687  0.00  0.00    +0.000 HD
BRANCH  16  18
ATOM     18  C   UNL     1       5.103   3.720  16.106  0.00  0.00    +0.000 C 
BRANCH  18  19
ATOM     19  C   UNL     1       6.405   4.414  15.696  0.00  0.00    +0.000 C 
BRANCH  19  20
ATOM     20  C   UNL     1       7.003   5.279  16.782  0.00  0.00    +0.000 A 
ATOM     21  C   UNL     1       7.552   4.709  17.940  0.00  0.00    +0.000 A 
ATOM     22  C   UNL     1       8.091   5.518  18.942  0.00  0.00    +0.000 A 
ATOM     23  C   UNL     1       8.099   6.903  18.793  0.00  0.00    +0.000 A 
ATOM     24  C   UNL     1       7.577   7.479  17.638  0.00  0.00    +0.000 A 
ATOM     25  C   UNL     1       7.035   6.673  16.635  0.00  0.00    +0.000 A 
ENDBRANCH  19  20
ENDBRANCH  18  19
ENDBRANCH  16  18
ENDBRANCH   6  14
TORSDOF 5
ENDMDL
MODEL 5
REMARK VINA RESULT:      -8.1      1.250      1.844
REMARK  Name = 
REMARK  6 active torsions:
REMARK  status: ('A' for Active; 'I' for Inactive)
REMARK    1  A    between atoms: C_1  and  C_2
REMARK    2  A    between atoms: C_4  and  C_5
REMARK    3  A    between atoms: C_13  and  C_14
REMARK    4  A    between atoms: N_16  and  C_17
REMARK    5  A    between atoms: C_17  and  C_18
REMARK    6  A    between atoms: C_18  and  C_19
REMARK                            x       y       z     vdW  Elec       q    Type
REMARK                         _______ _______ _______ _____ _____    ______ ____
ROOT
ATOM      1  C   UNL     1       8.157   5.596  19.613  0.00  0.00    +0.000 C 
ATOM      2  C   UNL     1       8.051   6.765  18.714  0.00  0.00    +0.000 A 
ATOM      3  O   UNL     1       8.632   7.903  19.198  0.00  0.00    +0.000 OA
ATOM      4  C   UNL     1       8.433   8.902  18.293  0.00  0.00    +0.000 A 
ATOM      5  C   UNL     1       7.742   8.395  17.217  0.00  0.00    +0.000 A 
ATOM      6  C   UNL     1       7.479   7.010  17.473  0.00  0.00    +0.000 A 
ENDROOT
BRANCH   4   7
ATOM      7  C   UNL     1       8.931  10.229  18.649  0.00  0.00    +0.000 A 
ATOM      8  C   UNL     1       9.545  10.472  19.887  0.00  0.00    +0.000 A 
ATOM      9  C   UNL     1       9.966  11.760  20.240  0.00  0.00    +0.000 A 
ATOM     10  C   UNL     1       9.782  12.817  19.351  0.00  0.00    +0.000 A 
ATOM     11 CL   UNL     1      10.267  14.405  19.796  0.00  0.00    +0.000 Cl
ATOM     12  C   UNL     1       9.196  12.594  18.109  0.00  0.00    +0.000 A 
ATOM     13  C   UNL     1       8.776  11.305  17.761  0.00  0.00    +0.000 A 
ENDBRANCH   4   7
BRANCH   6  14
ATOM     14  C   UNL     1       6.746   6.145  16.558  0.00  0.00    +0.000 C 
ATOM     15  O   UNL     1       7.182   5.903  15.434  0.00  0.00    +0.000 OA
ATOM     16  N   UNL     1       5.558   5.609  16.998  0.00  0.00    +0.000 N 
ATOM     17  H   UNL     1       5.161   5.896  17.877  0.00  0.00    +0.000 HD
BRANCH  16  18
ATOM     18  C   UNL     1       4.755   4.795  16.106  0.00  0.00    +0.000 C 
BRANCH  18  19
ATOM     19  C   UNL     1       4.576   3.353  16.592  0.00  0.00    +0.000 C 
BRANCH  19  20
ATOM     20  C   UNL     1       3.382   3.157  17.498  0.00  0.00    +0.000 A 
ATOM     21  C   UNL     1       2.294   4.041  17.460  0.00  0.00    +0.000 A 
ATOM     22  C   UNL     1       1.201   3.858  18.310  0.00  0.00    +0.000 A 
ATOM     23  C   UNL     1       1.178   2.783  19.197  0.00  0.00    +0.000 A 
ATOM     24  C   UNL     1       2.244   1.886  19.227  0.00  0.00    +0.000 A 
ATOM     25  C   UNL     1       3.339   2.069  18.381  0.00  0.00    +0.000 A 
ENDBRANCH  19  20
ENDBRANCH  18  19
ENDBRANCH  16  18
ENDBRANCH   6  14
TORSDOF 5
ENDMDL
MODEL 6
REMARK VINA RESULT:      -8.1      1.174      1.379
REMARK  Name = 
REMARK  6 active torsions:
REMARK  status: ('A' for Active; 'I' for Inactive)
REMARK    1  A    between atoms: C_1  and  C_2
REMARK    2  A    between atoms: C_4  and  C_5
REMARK    3  A    between atoms: C_13  and  C_14
REMARK    4  A    between atoms: N_16  and  C_17
REMARK    5  A    between atoms: C_17  and  C_18
REMARK    6  A    between atoms: C_18  and  C_19
REMARK                            x       y       z     vdW  Elec       q    Type
REMARK                         _______ _______ _______ _____ _____    ______ ____
ROOT
ATOM      1  C   UNL     1       8.198   5.558  19.690  0.00  0.00    +0.000 C 
ATOM      2  C   UNL     1       8.100   6.739  18.806  0.00  0.00    +0.000 A 
ATOM      3  O   UNL     1       8.705   7.862  19.296  0.00  0.00    +0.000 OA
ATOM      4  C   UNL     1       8.510   8.875  18.406  0.00  0.00    +0.000 A 
ATOM      5  C   UNL     1       7.798   8.392  17.332  0.00  0.00    +0.000 A 
ATOM      6  C   UNL     1       7.516   7.008  17.576  0.00  0.00    +0.000 A 
ENDROOT
BRANCH   4   7
ATOM      7  C   UNL     1       9.034  10.189  18.770  0.00  0.00    +0.000 A 
ATOM      8  C   UNL     1       9.157  11.216  17.821  0.00  0.00    +0.000 A 
ATOM      9  C   UNL     1       9.715  12.453  18.169  0.00  0.00    +0.000 A 
ATOM     10  C   UNL     1      10.147  12.675  19.475  0.00  0.00    +0.000 A 
ATOM     11 CL   UNL     1      10.863  14.181  19.896  0.00  0.00    +0.000 Cl
ATOM     12  C   UNL     1      10.013  11.678  20.437  0.00  0.00    +0.000 A 
ATOM     13  C   UNL     1       9.456  10.444  20.085  0.00  0.00    +0.000 A 
ENDBRANCH   4   7
BRANCH   6  14
ATOM     14  C   UNL     1       6.757   6.166  16.660  0.00  0.00    +0.000 C 
ATOM     15  O   UNL     1       7.190   5.905  15.539  0.00  0.00    +0.000 OA
ATOM     16  N   UNL     1       5.549   5.673  17.097  0.00  0.00    +0.000 N 
ATOM     17  H   UNL     1       5.159   5.976  17.974  0.00  0.00    +0.000 HD
BRANCH  16  18
ATOM     18  C   UNL     1       4.722   4.884  16.204  0.00  0.00    +0.000 C 
BRANCH  18  19
ATOM     19  C   UNL     1       4.464   3.462  16.711  0.00  0.00    +0.000 C 
BRANCH  19  20
ATOM     20  C   UNL     1       3.460   3.388  17.837  0.00  0.00    +0.000 A 
ATOM     21  C   UNL     1       3.801   2.820  19.074  0.00  0.00    +0.000 A 
ATOM     22  C   UNL     1       2.861   2.746  20.104  0.00  0.00    +0.000 A 
ATOM     23  C   UNL     1       1.575   3.248  19.914  0.00  0.00    +0.000 A 
ATOM     24  C   UNL     1       1.232   3.834  18.698  0.00  0.00    +0.000 A 
ATOM     25  C   UNL     1       2.168   3.907  17.666  0.00  0.00    +0.000 A 
ENDBRANCH  19  20
ENDBRANCH  18  19
ENDBRANCH  16  18
ENDBRANCH   6  14
TORSDOF 5
ENDMDL
MODEL 7
REMARK VINA RESULT:      -8.0      1.034      1.394
REMARK  Name = 
REMARK  6 active torsions:
REMARK  status: ('A' for Active; 'I' for Inactive)
REMARK    1  A    between atoms: C_1  and  C_2
REMARK    2  A    between atoms: C_4  and  C_5
REMARK    3  A    between atoms: C_13  and  C_14
REMARK    4  A    between atoms: N_16  and  C_17
REMARK    5  A    between atoms: C_17  and  C_18
REMARK    6  A    between atoms: C_18  and  C_19
REMARK                            x       y       z     vdW  Elec       q    Type
REMARK                         _______ _______ _______ _____ _____    ______ ____
ROOT
ATOM      1  C   UNL     1       8.256   5.371  19.455  0.00  0.00    +0.000 C 
ATOM      2  C   UNL     1       7.928   6.560  18.640  0.00  0.00    +0.000 A 
ATOM      3  O   UNL     1       8.605   7.693  18.997  0.00  0.00    +0.000 OA
ATOM      4  C   UNL     1       8.186   8.711  18.194  0.00  0.00    +0.000 A 
ATOM      5  C   UNL     1       7.254   8.223  17.308  0.00  0.00    +0.000 A 
ATOM      6  C   UNL     1       7.067   6.830  17.585  0.00  0.00    +0.000 A 
ENDROOT
BRANCH   4   7
ATOM      7  C   UNL     1       8.751  10.034  18.451  0.00  0.00    +0.000 A 
ATOM      8  C   UNL     1       8.485  11.120  17.602  0.00  0.00    +0.000 A 
ATOM      9  C   UNL     1       9.079  12.368  17.826  0.00  0.00    +0.000 A 
ATOM     10  C   UNL     1       9.939  12.543  18.908  0.00  0.00    +0.000 A 
ATOM     11 CL   UNL     1      10.695  14.066  19.164  0.00  0.00    +0.000 Cl
ATOM     12  C   UNL     1      10.198  11.486  19.774  0.00  0.00    +0.000 A 
ATOM     13  C   UNL     1       9.603  10.240  19.548  0.00  0.00    +0.000 A 
ENDBRANCH   4   7
BRANCH   6  14
ATOM     14  C   UNL     1       6.135   5.980  16.856  0.00  0.00    +0.000 C 
ATOM     15  O   UNL     1       5.926   6.157  15.658  0.00  0.00    +0.000 OA
ATOM     16  N   UNL     1       5.506   4.975  17.554  0.00  0.00    +0.000 N 
ATOM     17  H   UNL     1       5.606   4.905  18.553  0.00  0.00    +0.000 HD
BRANCH  16  18
ATOM     18  C   UNL     1       4.520   4.141  16.895  0.00  0.00    +0.000 C 
BRANCH  18  19
ATOM     19  C   UNL     1       3.076   4.497  17.262  0.00  0.00    +0.000 C 
BRANCH  19  20
ATOM     20  C   UNL     1       2.723   4.206  18.702  0.00  0.00    +0.000 A 
ATOM     21  C   UNL     1       2.813   2.906  19.220  0.00  0.00    +0.000 A 
ATOM     22  C   UNL     1       2.472   2.645  20.549  0.00  0.00    +0.000 A 
ATOM     23  C   UNL     1       2.051   3.683  21.378  0.00  0.00    +0.000 A 
ATOM     24  C   UNL     1       1.979   4.982  20.881  0.00  0.00    +0.000 A 
ATOM     25  C   UNL     1       2.316   5.244  19.552  0.00  0.00    +0.000 A 
ENDBRANCH  19  20
ENDBRANCH  18  19
ENDBRANCH  16  18
ENDBRANCH   6  14
TORSDOF 5
ENDMDL
MODEL 8
REMARK VINA RESULT:      -8.0      1.205      1.952
REMARK  Name = 
REMARK  6 active torsions:
REMARK  status: ('A' for Active; 'I' for Inactive)
REMARK    1  A    between atoms: C_1  and  C_2
REMARK    2  A    between atoms: C_4  and  C_5
REMARK    3  A    between atoms: C_13  and  C_14
REMARK    4  A    between atoms: N_16  and  C_17
REMARK    5  A    between atoms: C_17  and  C_18
REMARK    6  A    between atoms: C_18  and  C_19
REMARK                            x       y       z     vdW  Elec       q    Type
REMARK                         _______ _______ _______ _____ _____    ______ ____
ROOT
ATOM      1  C   UNL     1       8.160   5.460  19.353  0.00  0.00    +0.000 C 
ATOM      2  C   UNL     1       7.944   6.708  18.590  0.00  0.00    +0.000 A 
ATOM      3  O   UNL     1       8.660   7.779  19.044  0.00  0.00    +0.000 OA
ATOM      4  C   UNL     1       8.343   8.860  18.279  0.00  0.00    +0.000 A 
ATOM      5  C   UNL     1       7.438   8.474  17.318  0.00  0.00    +0.000 A 
ATOM      6  C   UNL     1       7.160   7.082  17.506  0.00  0.00    +0.000 A 
ENDROOT
BRANCH   4   7
ATOM      7  C   UNL     1       8.964  10.134  18.639  0.00  0.00    +0.000 A 
ATOM      8  C   UNL     1       9.612  10.308  19.871  0.00  0.00    +0.000 A 
ATOM      9  C   UNL     1      10.153  11.550  20.229  0.00  0.00    +0.000 A 
ATOM     10  C   UNL     1      10.055  12.627  19.350  0.00  0.00    +0.000 A 
ATOM     11 CL   UNL     1      10.688  14.160  19.802  0.00  0.00    +0.000 Cl
ATOM     12  C   UNL     1       9.437  12.469  18.115  0.00  0.00    +0.000 A 
ATOM     13  C   UNL     1       8.898  11.227  17.761  0.00  0.00    +0.000 A 
ENDBRANCH   4   7
BRANCH   6  14
ATOM     14  C   UNL     1       6.226   6.325  16.682  0.00  0.00    +0.000 C 
ATOM     15  O   UNL     1       5.632   6.862  15.749  0.00  0.00    +0.000 OA
ATOM     16  N   UNL     1       6.038   4.997  16.984  0.00  0.00    +0.000 N 
ATOM     17  H   UNL     1       6.448   4.595  17.811  0.00  0.00    +0.000 HD
BRANCH  16  18
ATOM     18  C   UNL     1       5.071   4.213  16.239  0.00  0.00    +0.000 C 
BRANCH  18  19
ATOM     19  C   UNL     1       4.058   3.488  17.129  0.00  0.00    +0.000 C 
BRANCH  19  20
ATOM     20  C   UNL     1       3.403   4.378  18.160  0.00  0.00    +0.000 A 
ATOM     21  C   UNL     1       2.884   5.632  17.807  0.00  0.00    +0.000 A 
ATOM     22  C   UNL     1       2.292   6.452  18.770  0.00  0.00    +0.000 A 
ATOM     23  C   UNL     1       2.201   6.023  20.092  0.00  0.00    +0.000 A 
ATOM     24  C   UNL     1       2.693   4.770  20.450  0.00  0.00    +0.000 A 
ATOM     25  C   UNL     1       3.288   3.950  19.490  0.00  0.00    +0.000 A 
ENDBRANCH  19  20
ENDBRANCH  18  19
ENDBRANCH  16  18
ENDBRANCH   6  14
TORSDOF 5
ENDMDL
MODEL 9
REMARK VINA RESULT:      -7.9      1.118      1.507
REMARK  Name = 
REMARK  6 active torsions:
REMARK  status: ('A' for Active; 'I' for Inactive)
REMARK    1  A    between atoms: C_1  and  C_2
REMARK    2  A    between atoms: C_4  and  C_5
REMARK    3  A    between atoms: C_13  and  C_14
REMARK    4  A    between atoms: N_16  and  C_17
REMARK    5  A    between atoms: C_17  and  C_18
REMARK    6  A    between atoms: C_18  and  C_19
REMARK                            x       y       z     vdW  Elec       q    Type
REMARK                         _______ _______ _______ _____ _____    ______ ____
ROOT
ATOM      1  C   UNL     1       8.090   5.477  19.363  0.00  0.00    +0.000 C 
ATOM      2  C   UNL     1       7.938   6.751  18.628  0.00  0.00    +0.000 A 
ATOM      3  O   UNL     1       8.716   7.771  19.100  0.00  0.00    +0.000 OA
ATOM      4  C   UNL     1       8.454   8.885  18.361  0.00  0.00    +0.000 A 
ATOM      5  C   UNL     1       7.522   8.571  17.399  0.00  0.00    +0.000 A 
ATOM      6  C   UNL     1       7.169   7.192  17.559  0.00  0.00    +0.000 A 
ENDROOT
BRANCH   4   7
ATOM      7  C   UNL     1       9.147  10.114  18.743  0.00  0.00    +0.000 A 
ATOM      8  C   UNL     1       9.678  10.984  17.779  0.00  0.00    +0.000 A 
ATOM      9  C   UNL     1      10.390  12.128  18.158  0.00  0.00    +0.000 A 
ATOM     10  C   UNL     1      10.570  12.416  19.510  0.00  0.00    +0.000 A 
ATOM     11 CL   UNL     1      11.473  13.802  19.978  0.00  0.00    +0.000 Cl
ATOM     12  C   UNL     1      10.031  11.579  20.482  0.00  0.00    +0.000 A 
ATOM     13  C   UNL     1       9.321  10.437  20.098  0.00  0.00    +0.000 A 
ENDBRANCH   4   7
BRANCH   6  14
ATOM     14  C   UNL     1       6.189   6.507  16.726  0.00  0.00    +0.000 C 
ATOM     15  O   UNL     1       5.543   7.121  15.879  0.00  0.00    +0.000 OA
ATOM     16  N   UNL     1       6.017   5.156  16.920  0.00  0.00    +0.000 N 
ATOM     17  H   UNL     1       6.474   4.685  17.684  0.00  0.00    +0.000 HD
BRANCH  16  18
ATOM     18  C   UNL     1       5.009   4.436  16.166  0.00  0.00    +0.000 C 
BRANCH  18  19
ATOM     19  C   UNL     1       4.528   3.157  16.856  0.00  0.00    +0.000 C 
BRANCH  19  20
ATOM     20  C   UNL     1       3.503   3.396  17.940  0.00  0.00    +0.000 A 
ATOM     21  C   UNL     1       2.181   3.738  17.622  0.00  0.00    +0.000 A 
ATOM     22  C   UNL     1       1.245   3.969  18.633  0.00  0.00    +0.000 A 
ATOM     23  C   UNL     1       1.616   3.847  19.970  0.00  0.00    +0.000 A 
ATOM     24  C   UNL     1       2.921   3.486  20.297  0.00  0.00    +0.000 A 
ATOM     25  C   UNL     1       3.859   3.258  19.290  0.00  0.00    +0.000 A 
ENDBRANCH  19  20
ENDBRANCH  18  19
ENDBRANCH  16  18
ENDBRANCH   6  14
TORSDOF 5
ENDMDL
