MODEL 1
REMARK VINA RESULT:      -7.5      0.000      0.000
REMARK  Name = 
REMARK  4 active torsions:
REMARK  status: ('A' for Active; 'I' for Inactive)
REMARK    1  A    between atoms: C_1  and  N_2
REMARK    2  A    between atoms: C_3  and  C_4
REMARK    3  A    between atoms: C_7  and  C_8
REMARK    4  A    between atoms: N_9  and  N_10
REMARK                            x       y       z     vdW  Elec       q    Type
REMARK                         _______ _______ _______ _____ _____    ______ ____
ROOT
ATOM      1  C   UNL     1       2.247   7.977  18.607  0.00  0.00    +0.000 A 
ATOM      2  C   UNL     1       1.959   7.861  19.967  0.00  0.00    +0.000 A 
ATOM      3  C   UNL     1       1.041   8.725  20.561  0.00  0.00    +0.000 A 
ATOM      4  C   UNL     1       0.418   9.723  19.803  0.00  0.00    +0.000 A 
ATOM      5  C   UNL     1       0.732   9.872  18.452  0.00  0.00    +0.000 A 
ATOM      6  C   UNL     1       1.657   9.005  17.856  0.00  0.00    +0.000 A 
ENDROOT
BRANCH   1   9
ATOM      7  C   UNL     1       1.937   4.753  18.175  0.00  0.00    +0.000 C 
ATOM      8  N   UNL     1       3.073   5.601  17.829  0.00  0.00    +0.000 N 
ATOM      9  C   UNL     1       3.183   7.003  17.957  0.00  0.00    +0.000 A 
ATOM     10  C   UNL     1       4.369   7.332  17.323  0.00  0.00    +0.000 A 
ATOM     11  N   UNL     1       4.963   6.166  16.900  0.00  0.00    +0.000 N 
ATOM     12  C   UNL     1       6.180   6.017  16.265  0.00  0.00    +0.000 A 
ATOM     13  C   UNL     1       6.546   4.769  15.910  0.00  0.00    +0.000 A 
ATOM     14  C   UNL     1       5.711   3.603  16.161  0.00  0.00    +0.000 A 
ATOM     15  C   UNL     1       4.535   3.745  16.797  0.00  0.00    +0.000 A 
ATOM     16  C   UNL     1       4.158   5.131  17.193  0.00  0.00    +0.000 A 
ENDBRANCH   1   9
BRANCH   4  17
ATOM     17  C   UNL     1      -0.587  10.604  20.436  0.00  0.00    +0.000 C 
ATOM     18  N   UNL     1      -1.146  11.530  19.731  0.00  0.00    +0.000 NA
BRANCH  18  19
ATOM     19  N   UNL     1      -2.026  12.347  20.374  0.00  0.00    +0.000 N 
ATOM     20  C   UNL     1      -3.313  12.562  19.945  0.00  0.00    +0.000 C 
ATOM     21  N   UNL     1      -4.117  13.354  20.566  0.00  0.00    +0.000 NA
ATOM     22  C   UNL     1      -5.494  13.455  20.051  0.00  0.00    +0.000 C 
ATOM     23  C   UNL     1      -5.659  13.000  18.605  0.00  0.00    +0.000 C 
ATOM     24  C   UNL     1      -4.966  11.665  18.421  0.00  0.00    +0.000 C 
ATOM     25  N   UNL     1      -3.602  11.844  18.824  0.00  0.00    +0.000 N 
ATOM     26  H   UNL     1      -1.786  12.850  21.224  0.00  0.00    +0.000 HD
ATOM     27  H   UNL     1      -2.956  11.071  18.709  0.00  0.00    +0.000 HD
ENDBRANCH  18  19
ENDBRANCH   4  17
TORSDOF 3
ENDMDL
MODEL 2
REMARK VINA RESULT:      -7.4      5.864      9.123
REMARK  Name = 
REMARK  4 active torsions:
REMARK  status: ('A' for Active; 'I' for Inactive)
REMARK    1  A    between atoms: C_1  and  N_2
REMARK    2  A    between atoms: C_3  and  C_4
REMARK    3  A    between atoms: C_7  and  C_8
REMARK    4  A    between atoms: N_9  and  N_10
REMARK                            x       y       z     vdW  Elec       q    Type
REMARK                         _______ _______ _______ _____ _____    ______ ____
ROOT
ATOM      1  C   UNL     1       5.552   5.960  18.167  0.00  0.00    +0.000 A 
ATOM      2  C   UNL     1       6.771   5.755  18.814  0.00  0.00    +0.000 A 
ATOM      3  C   UNL     1       7.807   6.674  18.654  0.00  0.00    +0.000 A 
ATOM      4  C   UNL     1       7.638   7.794  17.833  0.00  0.00    +0.000 A 
ATOM      5  C   UNL     1       6.436   7.984  17.150  0.00  0.00    +0.000 A 
ATOM      6  C   UNL     1       5.396   7.058  17.308  0.00  0.00    +0.000 A 
ENDROOT
BRANCH   1   9
ATOM      7  C   UNL     1       2.658   6.462  19.597  0.00  0.00    +0.000 C 
ATOM      8  N   UNL     1       3.194   5.212  19.068  0.00  0.00    +0.000 N 
ATOM      9  C   UNL     1       4.418   5.007  18.395  0.00  0.00    +0.000 A 
ATOM     10  C   UNL     1       4.367   3.699  17.942  0.00  0.00    +0.000 A 
ATOM     11  N   UNL     1       3.193   3.140  18.391  0.00  0.00    +0.000 N 
ATOM     12  C   UNL     1       2.752   1.843  18.217  0.00  0.00    +0.000 A 
ATOM     13  C   UNL     1       1.542   1.527  18.720  0.00  0.00    +0.000 A 
ATOM     14  C   UNL     1       0.701   2.492  19.415  0.00  0.00    +0.000 A 
ATOM     15  C   UNL     1       1.138   3.750  19.601  0.00  0.00    +0.000 A 
ATOM     16  C   UNL     1       2.485   4.072  19.050  0.00  0.00    +0.000 A 
ENDBRANCH   1   9
BRANCH   4  17
ATOM     17  C   UNL     1       8.730   8.783  17.709  0.00  0.00    +0.000 C 
ATOM     18  N   UNL     1       8.712   9.837  18.454  0.00  0.00    +0.000 NA
BRANCH  18  19
ATOM     19  N   UNL     1       9.713  10.742  18.266  0.00  0.00    +0.000 N 
ATOM     20  C   UNL     1      10.044  11.709  19.183  0.00  0.00    +0.000 C 
ATOM     21  N   UNL     1      10.986  12.561  18.970  0.00  0.00    +0.000 NA
ATOM     22  C   UNL     1      11.294  13.510  20.054  0.00  0.00    +0.000 C 
ATOM     23  C   UNL     1      10.176  13.682  21.076  0.00  0.00    +0.000 C 
ATOM     24  C   UNL     1       9.672  12.316  21.497  0.00  0.00    +0.000 C 
ATOM     25  N   UNL     1       9.271  11.633  20.303  0.00  0.00    +0.000 N 
ATOM     26  H   UNL     1      10.288  10.756  17.428  0.00  0.00    +0.000 HD
ATOM     27  H   UNL     1       8.840  10.719  20.388  0.00  0.00    +0.000 HD
ENDBRANCH  18  19
ENDBRANCH   4  17
TORSDOF 3
ENDMDL
MODEL 3
REMARK VINA RESULT:      -7.3      2.603      2.797
REMARK  Name = 
REMARK  4 active torsions:
REMARK  status: ('A' for Active; 'I' for Inactive)
REMARK    1  A    between atoms: C_1  and  N_2
REMARK    2  A    between atoms: C_3  and  C_4
REMARK    3  A    between atoms: C_7  and  C_8
REMARK    4  A    between atoms: N_9  and  N_10
REMARK                            x       y       z     vdW  Elec       q    Type
REMARK                         _______ _______ _______ _____ _____    ______ ____
ROOT
ATOM      1  C   UNL     1       2.243   7.818  18.947  0.00  0.00    +0.000 A 
ATOM      2  C   UNL     1       1.987   7.562  20.294  0.00  0.00    +0.000 A 
ATOM      3  C   UNL     1       1.131   8.397  21.011  0.00  0.00    +0.000 A 
ATOM      4  C   UNL     1       0.539   9.503  20.391  0.00  0.00    +0.000 A 
ATOM      5  C   UNL     1       0.823   9.789  19.055  0.00  0.00    +0.000 A 
ATOM      6  C   UNL     1       1.686   8.952  18.336  0.00  0.00    +0.000 A 
ENDROOT
BRANCH   1   9
ATOM      7  C   UNL     1       1.943   4.599  18.475  0.00  0.00    +0.000 C 
ATOM      8  N   UNL     1       3.010   5.479  18.012  0.00  0.00    +0.000 N 
ATOM      9  C   UNL     1       3.109   6.881  18.161  0.00  0.00    +0.000 A 
ATOM     10  C   UNL     1       4.200   7.251  17.393  0.00  0.00    +0.000 A 
ATOM     11  N   UNL     1       4.759   6.107  16.871  0.00  0.00    +0.000 N 
ATOM     12  C   UNL     1       5.890   6.001  16.086  0.00  0.00    +0.000 A 
ATOM     13  C   UNL     1       6.232   4.769  15.657  0.00  0.00    +0.000 A 
ATOM     14  C   UNL     1       5.458   3.579  15.979  0.00  0.00    +0.000 A 
ATOM     15  C   UNL     1       4.368   3.680  16.759  0.00  0.00    +0.000 A 
ATOM     16  C   UNL     1       4.017   5.049  17.235  0.00  0.00    +0.000 A 
ENDBRANCH   1   9
BRANCH   4  17
ATOM     17  C   UNL     1      -0.401  10.353  21.152  0.00  0.00    +0.000 C 
ATOM     18  N   UNL     1      -0.003  10.904  22.250  0.00  0.00    +0.000 NA
BRANCH  18  19
ATOM     19  N   UNL     1      -0.921  11.636  22.941  0.00  0.00    +0.000 N 
ATOM     20  C   UNL     1      -0.988  13.006  22.897  0.00  0.00    +0.000 C 
ATOM     21  N   UNL     1      -1.859  13.671  23.575  0.00  0.00    +0.000 NA
ATOM     22  C   UNL     1      -1.877  15.133  23.398  0.00  0.00    +0.000 C 
ATOM     23  C   UNL     1      -0.589  15.713  22.823  0.00  0.00    +0.000 C 
ATOM     24  C   UNL     1      -0.166  14.892  21.622  0.00  0.00    +0.000 C 
ATOM     25  N   UNL     1      -0.048  13.535  22.065  0.00  0.00    +0.000 N 
ATOM     26  H   UNL     1      -1.627  11.208  23.535  0.00  0.00    +0.000 HD
ATOM     27  H   UNL     1       0.294  12.839  21.411  0.00  0.00    +0.000 HD
ENDBRANCH  18  19
ENDBRANCH   4  17
TORSDOF 3
ENDMDL
MODEL 4
REMARK VINA RESULT:      -7.3      6.684      9.201
REMARK  Name = 
REMARK  4 active torsions:
REMARK  status: ('A' for Active; 'I' for Inactive)
REMARK    1  A    between atoms: C_1  and  N_2
REMARK    2  A    between atoms: C_3  and  C_4
REMARK    3  A    between atoms: C_7  and  C_8
REMARK    4  A    between atoms: N_9  and  N_10
REMARK                            x       y       z     vdW  Elec       q    Type
REMARK                         _______ _______ _______ _____ _____    ______ ____
ROOT
ATOM      1  C   UNL     1       5.612   5.999  18.279  0.00  0.00    +0.000 A 
ATOM      2  C   UNL     1       6.838   5.831  18.923  0.00  0.00    +0.000 A 
ATOM      3  C   UNL     1       7.866   6.750  18.715  0.00  0.00    +0.000 A 
ATOM      4  C   UNL     1       7.681   7.832  17.846  0.00  0.00    +0.000 A 
ATOM      5  C   UNL     1       6.472   7.983  17.167  0.00  0.00    +0.000 A 
ATOM      6  C   UNL     1       5.441   7.058  17.374  0.00  0.00    +0.000 A 
ENDROOT
BRANCH   1   9
ATOM      7  C   UNL     1       4.554   3.449  16.531  0.00  0.00    +0.000 C 
ATOM      8  N   UNL     1       3.994   3.986  17.768  0.00  0.00    +0.000 N 
ATOM      9  C   UNL     1       4.488   5.048  18.557  0.00  0.00    +0.000 A 
ATOM     10  C   UNL     1       3.712   5.037  19.704  0.00  0.00    +0.000 A 
ATOM     11  N   UNL     1       2.760   4.054  19.563  0.00  0.00    +0.000 N 
ATOM     12  C   UNL     1       1.747   3.725  20.443  0.00  0.00    +0.000 A 
ATOM     13  C   UNL     1       0.947   2.693  20.107  0.00  0.00    +0.000 A 
ATOM     14  C   UNL     1       1.120   1.928  18.881  0.00  0.00    +0.000 A 
ATOM     15  C   UNL     1       2.094   2.261  18.015  0.00  0.00    +0.000 A 
ATOM     16  C   UNL     1       2.957   3.414  18.399  0.00  0.00    +0.000 A 
ENDBRANCH   1   9
BRANCH   4  17
ATOM     17  C   UNL     1       8.765   8.823  17.670  0.00  0.00    +0.000 C 
ATOM     18  N   UNL     1       8.764   9.892  18.394  0.00  0.00    +0.000 NA
BRANCH  18  19
ATOM     19  N   UNL     1       9.754  10.797  18.159  0.00  0.00    +0.000 N 
ATOM     20  C   UNL     1      10.125  11.767  19.057  0.00  0.00    +0.000 C 
ATOM     21  N   UNL     1      11.056  12.619  18.798  0.00  0.00    +0.000 NA
ATOM     22  C   UNL     1      11.412  13.572  19.864  0.00  0.00    +0.000 C 
ATOM     23  C   UNL     1      10.340  13.747  20.934  0.00  0.00    +0.000 C 
ATOM     24  C   UNL     1       9.857  12.383  21.382  0.00  0.00    +0.000 C 
ATOM     25  N   UNL     1       9.403  11.695  20.210  0.00  0.00    +0.000 N 
ATOM     26  H   UNL     1      10.292  10.807  17.296  0.00  0.00    +0.000 HD
ATOM     27  H   UNL     1       8.977  10.781  20.318  0.00  0.00    +0.000 HD
ENDBRANCH  18  19
ENDBRANCH   4  17
TORSDOF 3
ENDMDL
MODEL 5
REMARK VINA RESULT:      -7.3      2.584      3.206
REMARK  Name = 
REMARK  4 active torsions:
REMARK  status: ('A' for Active; 'I' for Inactive)
REMARK    1  A    between atoms: C_1  and  N_2
REMARK    2  A    between atoms: C_3  and  C_4
REMARK    3  A    between atoms: C_7  and  C_8
REMARK    4  A    between atoms: N_9  and  N_10
REMARK                            x       y       z     vdW  Elec       q    Type
REMARK                         _______ _______ _______ _____ _____    ______ ____
ROOT
ATOM      1  C   UNL     1       2.315   7.783  18.726  0.00  0.00    +0.000 A 
ATOM      2  C   UNL     1       1.727   8.849  18.045  0.00  0.00    +0.000 A 
ATOM      3  C   UNL     1       0.890   9.734  18.724  0.00  0.00    +0.000 A 
ATOM      4  C   UNL     1       0.622   9.548  20.085  0.00  0.00    +0.000 A 
ATOM      5  C   UNL     1       1.173   8.461  20.763  0.00  0.00    +0.000 A 
ATOM      6  C   UNL     1       2.011   7.571  20.080  0.00  0.00    +0.000 A 
ENDROOT
BRANCH   1   9
ATOM      7  C   UNL     1       1.968   4.647  17.880  0.00  0.00    +0.000 C 
ATOM      8  N   UNL     1       3.137   5.502  17.701  0.00  0.00    +0.000 N 
ATOM      9  C   UNL     1       3.266   6.874  18.010  0.00  0.00    +0.000 A 
ATOM     10  C   UNL     1       4.491   7.249  17.484  0.00  0.00    +0.000 A 
ATOM     11  N   UNL     1       5.085   6.128  16.951  0.00  0.00    +0.000 N 
ATOM     12  C   UNL     1       6.332   6.029  16.366  0.00  0.00    +0.000 A 
ATOM     13  C   UNL     1       6.693   4.825  15.878  0.00  0.00    +0.000 A 
ATOM     14  C   UNL     1       5.824   3.658  15.937  0.00  0.00    +0.000 A 
ATOM     15  C   UNL     1       4.618   3.750  16.524  0.00  0.00    +0.000 A 
ATOM     16  C   UNL     1       4.246   5.086  17.070  0.00  0.00    +0.000 A 
ENDBRANCH   1   9
BRANCH   4  17
ATOM     17  C   UNL     1      -0.232  10.520  20.802  0.00  0.00    +0.000 C 
ATOM     18  N   UNL     1       0.318  11.364  21.610  0.00  0.00    +0.000 NA
BRANCH  18  19
ATOM     19  N   UNL     1      -0.515  12.205  22.284  0.00  0.00    +0.000 N 
ATOM     20  C   UNL     1      -0.324  13.562  22.362  0.00  0.00    +0.000 C 
ATOM     21  N   UNL     1      -1.121  14.329  23.022  0.00  0.00    +0.000 NA
ATOM     22  C   UNL     1      -0.852  15.777  22.979  0.00  0.00    +0.000 C 
ATOM     23  C   UNL     1       0.572  16.140  22.574  0.00  0.00    +0.000 C 
ATOM     24  C   UNL     1       0.957  15.345  21.342  0.00  0.00    +0.000 C 
ATOM     25  N   UNL     1       0.778  13.961  21.666  0.00  0.00    +0.000 N 
ATOM     26  H   UNL     1      -1.344  11.877  22.773  0.00  0.00    +0.000 HD
ATOM     27  H   UNL     1       1.050  13.263  20.982  0.00  0.00    +0.000 HD
ENDBRANCH  18  19
ENDBRANCH   4  17
TORSDOF 3
ENDMDL
MODEL 6
REMARK VINA RESULT:      -7.2      2.399      3.575
REMARK  Name = 
REMARK  4 active torsions:
REMARK  status: ('A' for Active; 'I' for Inactive)
REMARK    1  A    between atoms: C_1  and  N_2
REMARK    2  A    between atoms: C_3  and  C_4
REMARK    3  A    between atoms: C_7  and  C_8
REMARK    4  A    between atoms: N_9  and  N_10
REMARK                            x       y       z     vdW  Elec       q    Type
REMARK                         _______ _______ _______ _____ _____    ______ ____
ROOT
ATOM      1  C   UNL     1       0.683   9.196  20.928  0.00  0.00    +0.000 A 
ATOM      2  C   UNL     1       0.501   9.136  22.310  0.00  0.00    +0.000 A 
ATOM      3  C   UNL     1      -0.295  10.085  22.950  0.00  0.00    +0.000 A 
ATOM      4  C   UNL     1      -0.899  11.112  22.215  0.00  0.00    +0.000 A 
ATOM      5  C   UNL     1      -0.688  11.203  20.839  0.00  0.00    +0.000 A 
ATOM      6  C   UNL     1       0.114  10.250  20.197  0.00  0.00    +0.000 A 
ENDROOT
BRANCH   1   9
ATOM      7  C   UNL     1       2.167   9.270  18.018  0.00  0.00    +0.000 C 
ATOM      8  N   UNL     1       2.070   8.150  18.950  0.00  0.00    +0.000 N 
ATOM      9  C   UNL     1       1.483   8.136  20.234  0.00  0.00    +0.000 A 
ATOM     10  C   UNL     1       1.816   6.903  20.770  0.00  0.00    +0.000 A 
ATOM     11  N   UNL     1       2.510   6.198  19.814  0.00  0.00    +0.000 N 
ATOM     12  C   UNL     1       2.994   4.907  19.900  0.00  0.00    +0.000 A 
ATOM     13  C   UNL     1       3.681   4.432  18.841  0.00  0.00    +0.000 A 
ATOM     14  C   UNL     1       3.931   5.223  17.645  0.00  0.00    +0.000 A 
ATOM     15  C   UNL     1       3.444   6.473  17.554  0.00  0.00    +0.000 A 
ATOM     16  C   UNL     1       2.675   6.972  18.729  0.00  0.00    +0.000 A 
ENDBRANCH   1   9
BRANCH   4  17
ATOM     17  C   UNL     1      -1.776  12.084  22.901  0.00  0.00    +0.000 C 
ATOM     18  N   UNL     1      -2.912  11.686  23.369  0.00  0.00    +0.000 NA
BRANCH  18  19
ATOM     19  N   UNL     1      -3.705  12.631  23.947  0.00  0.00    +0.000 N 
ATOM     20  C   UNL     1      -4.883  13.073  23.397  0.00  0.00    +0.000 C 
ATOM     21  N   UNL     1      -5.604  13.980  23.961  0.00  0.00    +0.000 NA
ATOM     22  C   UNL     1      -6.880  14.327  23.311  0.00  0.00    +0.000 C 
ATOM     23  C   UNL     1      -6.963  13.934  21.840  0.00  0.00    +0.000 C 
ATOM     24  C   UNL     1      -6.490  12.503  21.679  0.00  0.00    +0.000 C 
ATOM     25  N   UNL     1      -5.168  12.437  22.226  0.00  0.00    +0.000 N 
ATOM     26  H   UNL     1      -3.476  13.069  24.836  0.00  0.00    +0.000 HD
ATOM     27  H   UNL     1      -4.654  11.566  22.150  0.00  0.00    +0.000 HD
ENDBRANCH  18  19
ENDBRANCH   4  17
TORSDOF 3
ENDMDL
MODEL 7
REMARK VINA RESULT:      -7.2      6.646      9.903
REMARK  Name = 
REMARK  4 active torsions:
REMARK  status: ('A' for Active; 'I' for Inactive)
REMARK    1  A    between atoms: C_1  and  N_2
REMARK    2  A    between atoms: C_3  and  C_4
REMARK    3  A    between atoms: C_7  and  C_8
REMARK    4  A    between atoms: N_9  and  N_10
REMARK                            x       y       z     vdW  Elec       q    Type
REMARK                         _______ _______ _______ _____ _____    ______ ____
ROOT
ATOM      1  C   UNL     1       8.626   9.242  18.454  0.00  0.00    +0.000 A 
ATOM      2  C   UNL     1       8.916   8.126  19.238  0.00  0.00    +0.000 A 
ATOM      3  C   UNL     1       8.260   6.918  19.002  0.00  0.00    +0.000 A 
ATOM      4  C   UNL     1       7.296   6.824  17.990  0.00  0.00    +0.000 A 
ATOM      5  C   UNL     1       6.972   7.947  17.229  0.00  0.00    +0.000 A 
ATOM      6  C   UNL     1       7.629   9.161  17.470  0.00  0.00    +0.000 A 
ENDROOT
BRANCH   1   9
ATOM      7  C   UNL     1       9.054  10.985  21.184  0.00  0.00    +0.000 C 
ATOM      8  N   UNL     1       9.512  11.301  19.835  0.00  0.00    +0.000 N 
ATOM      9  C   UNL     1       9.382  10.518  18.666  0.00  0.00    +0.000 A 
ATOM     10  C   UNL     1      10.136  11.173  17.707  0.00  0.00    +0.000 A 
ATOM     11  N   UNL     1      10.630  12.327  18.270  0.00  0.00    +0.000 N 
ATOM     12  C   UNL     1      11.393  13.305  17.664  0.00  0.00    +0.000 A 
ATOM     13  C   UNL     1      11.797  14.339  18.429  0.00  0.00    +0.000 A 
ATOM     14  C   UNL     1      11.470  14.447  19.843  0.00  0.00    +0.000 A 
ATOM     15  C   UNL     1      10.711  13.504  20.430  0.00  0.00    +0.000 A 
ATOM     16  C   UNL     1      10.263  12.379  19.561  0.00  0.00    +0.000 A 
ENDBRANCH   1   9
BRANCH   4  17
ATOM     17  C   UNL     1       6.641   5.526  17.722  0.00  0.00    +0.000 C 
ATOM     18  N   UNL     1       6.163   4.847  18.711  0.00  0.00    +0.000 NA
BRANCH  18  19
ATOM     19  N   UNL     1       5.615   3.635  18.418  0.00  0.00    +0.000 N 
ATOM     20  C   UNL     1       4.265   3.425  18.278  0.00  0.00    +0.000 C 
ATOM     21  N   UNL     1       3.776   2.263  18.016  0.00  0.00    +0.000 NA
ATOM     22  C   UNL     1       2.319   2.173  17.824  0.00  0.00    +0.000 C 
ATOM     23  C   UNL     1       1.533   3.337  18.417  0.00  0.00    +0.000 C 
ATOM     24  C   UNL     1       2.189   4.640  18.007  0.00  0.00    +0.000 C 
ATOM     25  N   UNL     1       3.553   4.575  18.442  0.00  0.00    +0.000 N 
ATOM     26  H   UNL     1       6.178   2.800  18.277  0.00  0.00    +0.000 HD
ATOM     27  H   UNL     1       4.142   5.391  18.315  0.00  0.00    +0.000 HD
ENDBRANCH  18  19
ENDBRANCH   4  17
TORSDOF 3
ENDMDL
MODEL 8
REMARK VINA RESULT:      -7.2      7.501     11.291
REMARK  Name = 
REMARK  4 active torsions:
REMARK  status: ('A' for Active; 'I' for Inactive)
REMARK    1  A    between atoms: C_1  and  N_2
REMARK    2  A    between atoms: C_3  and  C_4
REMARK    3  A    between atoms: C_7  and  C_8
REMARK    4  A    between atoms: N_9  and  N_10
REMARK                            x       y       z     vdW  Elec       q    Type
REMARK                         _______ _______ _______ _____ _____    ______ ____
ROOT
ATOM      1  C   UNL     1       9.153  12.388  18.290  0.00  0.00    +0.000 A 
ATOM      2  C   UNL     1       9.839  11.659  19.261  0.00  0.00    +0.000 A 
ATOM      3  C   UNL     1       9.615  10.290  19.394  0.00  0.00    +0.000 A 
ATOM      4  C   UNL     1       8.688   9.643  18.568  0.00  0.00    +0.000 A 
ATOM      5  C   UNL     1       7.967  10.372  17.622  0.00  0.00    +0.000 A 
ATOM      6  C   UNL     1       8.191  11.749  17.492  0.00  0.00    +0.000 A 
ENDROOT
BRANCH   1   9
ATOM      7  C   UNL     1      11.709  13.838  16.862  0.00  0.00    +0.000 C 
ATOM      8  N   UNL     1      10.582  14.469  17.542  0.00  0.00    +0.000 N 
ATOM      9  C   UNL     1       9.446  13.845  18.105  0.00  0.00    +0.000 A 
ATOM     10  C   UNL     1       8.600  14.885  18.455  0.00  0.00    +0.000 A 
ATOM     11  N   UNL     1       9.242  16.068  18.174  0.00  0.00    +0.000 N 
ATOM     12  C   UNL     1       8.790  17.352  18.407  0.00  0.00    +0.000 A 
ATOM     13  C   UNL     1       9.583  18.369  18.012  0.00  0.00    +0.000 A 
ATOM     14  C   UNL     1      10.865  18.159  17.355  0.00  0.00    +0.000 A 
ATOM     15  C   UNL     1      11.314  16.909  17.145  0.00  0.00    +0.000 A 
ATOM     16  C   UNL     1      10.428  15.801  17.603  0.00  0.00    +0.000 A 
ENDBRANCH   1   9
BRANCH   4  17
ATOM     17  C   UNL     1       8.494   8.182  18.690  0.00  0.00    +0.000 C 
ATOM     18  N   UNL     1       7.792   7.564  17.799  0.00  0.00    +0.000 NA
BRANCH  18  19
ATOM     19  N   UNL     1       7.600   6.228  17.984  0.00  0.00    +0.000 N 
ATOM     20  C   UNL     1       6.362   5.634  17.992  0.00  0.00    +0.000 C 
ATOM     21  N   UNL     1       6.212   4.369  18.186  0.00  0.00    +0.000 NA
ATOM     22  C   UNL     1       4.841   3.834  18.107  0.00  0.00    +0.000 C 
ATOM     23  C   UNL     1       3.746   4.881  18.283  0.00  0.00    +0.000 C 
ATOM     24  C   UNL     1       4.056   6.077  17.405  0.00  0.00    +0.000 C 
ATOM     25  N   UNL     1       5.364   6.534  17.769  0.00  0.00    +0.000 N 
ATOM     26  H   UNL     1       8.369   5.578  18.124  0.00  0.00    +0.000 HD
ATOM     27  H   UNL     1       5.723   7.376  17.332  0.00  0.00    +0.000 HD
ENDBRANCH  18  19
ENDBRANCH   4  17
TORSDOF 3
ENDMDL
MODEL 9
REMARK VINA RESULT:      -7.2      1.820      2.466
REMARK  Name = 
REMARK  4 active torsions:
REMARK  status: ('A' for Active; 'I' for Inactive)
REMARK    1  A    between atoms: C_1  and  N_2
REMARK    2  A    between atoms: C_3  and  C_4
REMARK    3  A    between atoms: C_7  and  C_8
REMARK    4  A    between atoms: N_9  and  N_10
REMARK                            x       y       z     vdW  Elec       q    Type
REMARK                         _______ _______ _______ _____ _____    ______ ____
ROOT
ATOM      1  C   UNL     1       2.324   7.813  18.596  0.00  0.00    +0.000 A 
ATOM      2  C   UNL     1       1.733   8.833  17.851  0.00  0.00    +0.000 A 
ATOM      3  C   UNL     1       0.889   9.752  18.474  0.00  0.00    +0.000 A 
ATOM      4  C   UNL     1       0.617   9.645  19.843  0.00  0.00    +0.000 A 
ATOM      5  C   UNL     1       1.171   8.603  20.586  0.00  0.00    +0.000 A 
ATOM      6  C   UNL     1       2.017   7.679  19.959  0.00  0.00    +0.000 A 
ENDROOT
BRANCH   1   9
ATOM      7  C   UNL     1       1.974   4.645  17.880  0.00  0.00    +0.000 C 
ATOM      8  N   UNL     1       3.151   5.485  17.687  0.00  0.00    +0.000 N 
ATOM      9  C   UNL     1       3.284   6.868  17.938  0.00  0.00    +0.000 A 
ATOM     10  C   UNL     1       4.521   7.213  17.420  0.00  0.00    +0.000 A 
ATOM     11  N   UNL     1       5.117   6.068  16.947  0.00  0.00    +0.000 N 
ATOM     12  C   UNL     1       6.375   5.936  16.391  0.00  0.00    +0.000 A 
ATOM     13  C   UNL     1       6.737   4.710  15.962  0.00  0.00    +0.000 A 
ATOM     14  C   UNL     1       5.860   3.552  16.056  0.00  0.00    +0.000 A 
ATOM     15  C   UNL     1       4.643   3.676  16.614  0.00  0.00    +0.000 A 
ATOM     16  C   UNL     1       4.270   5.036  17.095  0.00  0.00    +0.000 A 
ENDBRANCH   1   9
BRANCH   4  17
ATOM     17  C   UNL     1      -0.245  10.653  20.498  0.00  0.00    +0.000 C 
ATOM     18  N   UNL     1      -0.743  11.610  19.789  0.00  0.00    +0.000 NA
BRANCH  18  19
ATOM     19  N   UNL     1      -1.488  12.542  20.447  0.00  0.00    +0.000 N 
ATOM     20  C   UNL     1      -1.329  13.895  20.283  0.00  0.00    +0.000 C 
ATOM     21  N   UNL     1      -2.038  14.752  20.933  0.00  0.00    +0.000 NA
ATOM     22  C   UNL     1      -1.823  16.177  20.625  0.00  0.00    +0.000 C 
ATOM     23  C   UNL     1      -0.490  16.479  19.949  0.00  0.00    +0.000 C 
ATOM     24  C   UNL     1      -0.276  15.503  18.811  0.00  0.00    +0.000 C 
ATOM     25  N   UNL     1      -0.360  14.186  19.369  0.00  0.00    +0.000 N 
ATOM     26  H   UNL     1      -2.221  12.290  21.105  0.00  0.00    +0.000 HD
ATOM     27  H   UNL     1      -0.176  13.391  18.768  0.00  0.00    +0.000 HD
ENDBRANCH  18  19
ENDBRANCH   4  17
TORSDOF 3
ENDMDL
