MODEL 1
REMARK VINA RESULT:      -7.3      0.000      0.000
REMARK  Name = 
REMARK  7 active torsions:
REMARK  status: ('A' for Active; 'I' for Inactive)
REMARK    1  A    between atoms: C_1  and  O_2
REMARK    2  A    between atoms: O_2  and  C_3
REMARK    3  A    between atoms: C_6  and  C_7
REMARK    4  A    between atoms: C_10  and  C_11
REMARK    5  A    between atoms: C_11  and  O_12
REMARK    6  A    between atoms: O_12  and  C_13
REMARK    7  A    between atoms: C_15  and  N_16
REMARK                            x       y       z     vdW  Elec       q    Type
REMARK                         _______ _______ _______ _____ _____    ______ ____
ROOT
ATOM      1  C   UNL     1       2.582   7.365  18.517  0.00  0.00    +0.000 A 
ATOM      2  C   UNL     1       2.173   8.555  17.911  0.00  0.00    +0.000 A 
ATOM      3  N   UNL     1       1.448   9.531  18.520  0.00  0.00    +0.000 NA
ATOM      4  C   UNL     1       1.126   9.340  19.830  0.00  0.00    +0.000 A 
ATOM      5  C   UNL     1       1.518   8.205  20.525  0.00  0.00    +0.000 A 
ATOM      6  F   UNL     1       1.212   8.040  21.818  0.00  0.00    +0.000 F 
ATOM      7  C   UNL     1       2.239   7.215  19.868  0.00  0.00    +0.000 A 
ENDROOT
BRANCH   1  11
ATOM      8  C   UNL     1       5.003   4.536  16.492  0.00  0.00    +0.000 A 
ATOM      9  C   UNL     1       5.182   5.905  16.419  0.00  0.00    +0.000 A 
ATOM     10  N   UNL     1       4.389   6.811  17.045  0.00  0.00    +0.000 NA
ATOM     11  C   UNL     1       3.349   6.348  17.783  0.00  0.00    +0.000 A 
ATOM     12  C   UNL     1       3.056   4.992  17.852  0.00  0.00    +0.000 A 
ATOM     13  C   UNL     1       3.893   4.098  17.199  0.00  0.00    +0.000 A 
ATOM     14  F   UNL     1       3.624   2.787  17.293  0.00  0.00    +0.000 F 
BRANCH   8  16
ATOM     15  C   UNL     1       6.170   3.868  14.565  0.00  0.00    +0.000 C 
ATOM     16  O   UNL     1       5.800   3.591  15.913  0.00  0.00    +0.000 OA
ENDBRANCH   8  16
ENDBRANCH   1  11
BRANCH   4  17
ATOM     17  C   UNL     1       0.388  10.446  20.537  0.00  0.00    +0.000 C 
BRANCH  17  18
ATOM     18  O   UNL     1      -0.995  10.513  20.180  0.00  0.00    +0.000 OA
BRANCH  18  19
ATOM     19  C   UNL     1      -1.514  11.808  19.792  0.00  0.00    +0.000 C 
ATOM     20  C   UNL     1      -0.918  12.385  18.486  0.00  0.00    +0.000 C 
ATOM     21  C   UNL     1      -2.162  11.871  17.730  0.00  0.00    +0.000 C 
ATOM     22  C   UNL     1      -2.893  11.832  19.084  0.00  0.00    +0.000 C 
BRANCH  21  23
ATOM     23  N   UNL     1      -1.999  10.512  17.220  0.00  0.00    +0.000 NA
ATOM     24  C   UNL     1      -2.472  10.321  16.162  0.00  0.00    +0.000 C 
ATOM     25  S   UNL     1      -3.110  10.041  14.731  0.00  0.00    +0.000 S 
ENDBRANCH  21  23
ENDBRANCH  18  19
ENDBRANCH  17  18
ENDBRANCH   4  17
TORSDOF 6
ENDMDL
MODEL 2
REMARK VINA RESULT:      -7.1      3.413      8.717
REMARK  Name = 
REMARK  7 active torsions:
REMARK  status: ('A' for Active; 'I' for Inactive)
REMARK    1  A    between atoms: C_1  and  O_2
REMARK    2  A    between atoms: O_2  and  C_3
REMARK    3  A    between atoms: C_6  and  C_7
REMARK    4  A    between atoms: C_10  and  C_11
REMARK    5  A    between atoms: C_11  and  O_12
REMARK    6  A    between atoms: O_12  and  C_13
REMARK    7  A    between atoms: C_15  and  N_16
REMARK                            x       y       z     vdW  Elec       q    Type
REMARK                         _______ _______ _______ _____ _____    ______ ____
ROOT
ATOM      1  C   UNL     1       1.712   7.902  19.958  0.00  0.00    +0.000 A 
ATOM      2  C   UNL     1       1.956   6.585  20.353  0.00  0.00    +0.000 A 
ATOM      3  N   UNL     1       2.606   5.654  19.604  0.00  0.00    +0.000 NA
ATOM      4  C   UNL     1       3.081   6.054  18.391  0.00  0.00    +0.000 A 
ATOM      5  C   UNL     1       2.917   7.352  17.930  0.00  0.00    +0.000 A 
ATOM      6  F   UNL     1       3.407   7.737  16.744  0.00  0.00    +0.000 F 
ATOM      7  C   UNL     1       2.228   8.273  18.709  0.00  0.00    +0.000 A 
ENDROOT
BRANCH   1  11
ATOM      8  C   UNL     1      -0.590  10.586  22.296  0.00  0.00    +0.000 A 
ATOM      9  C   UNL     1      -0.458  10.669  20.922  0.00  0.00    +0.000 A 
ATOM     10  N   UNL     1       0.302   9.826  20.178  0.00  0.00    +0.000 NA
ATOM     11  C   UNL     1       0.983   8.844  20.819  0.00  0.00    +0.000 A 
ATOM     12  C   UNL     1       0.963   8.734  22.205  0.00  0.00    +0.000 A 
ATOM     13  C   UNL     1       0.172   9.614  22.929  0.00  0.00    +0.000 A 
ATOM     14  F   UNL     1       0.131   9.486  24.264  0.00  0.00    +0.000 F 
BRANCH   8  16
ATOM     15  C   UNL     1      -1.194  12.784  22.866  0.00  0.00    +0.000 C 
ATOM     16  O   UNL     1      -1.373  11.386  23.076  0.00  0.00    +0.000 OA
ENDBRANCH   8  16
ENDBRANCH   1  11
BRANCH   4  17
ATOM     17  C   UNL     1       3.868   5.055  17.584  0.00  0.00    +0.000 C 
BRANCH  17  18
ATOM     18  O   UNL     1       5.096   4.674  18.211  0.00  0.00    +0.000 OA
BRANCH  18  19
ATOM     19  C   UNL     1       6.277   5.437  17.864  0.00  0.00    +0.000 C 
ATOM     20  C   UNL     1       7.469   4.595  17.349  0.00  0.00    +0.000 C 
ATOM     21  C   UNL     1       7.051   4.946  15.905  0.00  0.00    +0.000 C 
ATOM     22  C   UNL     1       6.280   6.146  16.485  0.00  0.00    +0.000 C 
BRANCH  21  23
ATOM     23  N   UNL     1       6.110   3.986  15.335  0.00  0.00    +0.000 NA
ATOM     24  C   UNL     1       6.212   3.819  14.177  0.00  0.00    +0.000 C 
ATOM     25  S   UNL     1       6.334   3.584  12.607  0.00  0.00    +0.000 S 
ENDBRANCH  21  23
ENDBRANCH  18  19
ENDBRANCH  17  18
ENDBRANCH   4  17
TORSDOF 6
ENDMDL
MODEL 3
REMARK VINA RESULT:      -7.0      3.296      8.590
REMARK  Name = 
REMARK  7 active torsions:
REMARK  status: ('A' for Active; 'I' for Inactive)
REMARK    1  A    between atoms: C_1  and  O_2
REMARK    2  A    between atoms: O_2  and  C_3
REMARK    3  A    between atoms: C_6  and  C_7
REMARK    4  A    between atoms: C_10  and  C_11
REMARK    5  A    between atoms: C_11  and  O_12
REMARK    6  A    between atoms: O_12  and  C_13
REMARK    7  A    between atoms: C_15  and  N_16
REMARK                            x       y       z     vdW  Elec       q    Type
REMARK                         _______ _______ _______ _____ _____    ______ ____
ROOT
ATOM      1  C   UNL     1       1.777   7.952  19.941  0.00  0.00    +0.000 A 
ATOM      2  C   UNL     1       2.225   8.158  18.635  0.00  0.00    +0.000 A 
ATOM      3  N   UNL     1       2.858   7.227  17.871  0.00  0.00    +0.000 NA
ATOM      4  C   UNL     1       3.037   5.993  18.419  0.00  0.00    +0.000 A 
ATOM      5  C   UNL     1       2.594   5.685  19.697  0.00  0.00    +0.000 A 
ATOM      6  F   UNL     1       2.759   4.461  20.215  0.00  0.00    +0.000 F 
ATOM      7  C   UNL     1       1.971   6.665  20.460  0.00  0.00    +0.000 A 
ENDROOT
BRANCH   1  11
ATOM      8  C   UNL     1      -0.291  11.050  21.967  0.00  0.00    +0.000 A 
ATOM      9  C   UNL     1       0.175  11.146  20.668  0.00  0.00    +0.000 A 
ATOM     10  N   UNL     1       0.861  10.164  20.030  0.00  0.00    +0.000 NA
ATOM     11  C   UNL     1       1.116   9.018  20.708  0.00  0.00    +0.000 A 
ATOM     12  C   UNL     1       0.747   8.866  22.039  0.00  0.00    +0.000 A 
ATOM     13  C   UNL     1       0.044   9.892  22.655  0.00  0.00    +0.000 A 
ATOM     14  F   UNL     1      -0.337   9.729  23.931  0.00  0.00    +0.000 F 
BRANCH   8  16
ATOM     15  C   UNL     1      -0.623  13.340  22.374  0.00  0.00    +0.000 C 
ATOM     16  O   UNL     1      -1.018  11.995  22.630  0.00  0.00    +0.000 OA
ENDBRANCH   8  16
ENDBRANCH   1  11
BRANCH   4  17
ATOM     17  C   UNL     1       3.669   4.931  17.558  0.00  0.00    +0.000 C 
BRANCH  17  18
ATOM     18  O   UNL     1       4.953   4.518  18.033  0.00  0.00    +0.000 OA
BRANCH  18  19
ATOM     19  C   UNL     1       6.079   5.372  17.719  0.00  0.00    +0.000 C 
ATOM     20  C   UNL     1       7.335   4.631  17.199  0.00  0.00    +0.000 C 
ATOM     21  C   UNL     1       6.907   4.987  15.759  0.00  0.00    +0.000 C 
ATOM     22  C   UNL     1       6.045   6.113  16.358  0.00  0.00    +0.000 C 
BRANCH  21  23
ATOM     23  N   UNL     1       6.043   3.975  15.155  0.00  0.00    +0.000 NA
ATOM     24  C   UNL     1       6.186   3.829  13.998  0.00  0.00    +0.000 C 
ATOM     25  S   UNL     1       6.363   3.620  12.430  0.00  0.00    +0.000 S 
ENDBRANCH  21  23
ENDBRANCH  18  19
ENDBRANCH  17  18
ENDBRANCH   4  17
TORSDOF 6
ENDMDL
MODEL 4
REMARK VINA RESULT:      -7.0      3.481      8.553
REMARK  Name = 
REMARK  7 active torsions:
REMARK  status: ('A' for Active; 'I' for Inactive)
REMARK    1  A    between atoms: C_1  and  O_2
REMARK    2  A    between atoms: O_2  and  C_3
REMARK    3  A    between atoms: C_6  and  C_7
REMARK    4  A    between atoms: C_10  and  C_11
REMARK    5  A    between atoms: C_11  and  O_12
REMARK    6  A    between atoms: O_12  and  C_13
REMARK    7  A    between atoms: C_15  and  N_16
REMARK                            x       y       z     vdW  Elec       q    Type
REMARK                         _______ _______ _______ _____ _____    ______ ____
ROOT
ATOM      1  C   UNL     1       2.043   7.607  19.548  0.00  0.00    +0.000 A 
ATOM      2  C   UNL     1       2.017   6.253  19.887  0.00  0.00    +0.000 A 
ATOM      3  N   UNL     1       2.567   5.253  19.147  0.00  0.00    +0.000 NA
ATOM      4  C   UNL     1       3.219   5.611  18.005  0.00  0.00    +0.000 A 
ATOM      5  C   UNL     1       3.326   6.935  17.606  0.00  0.00    +0.000 A 
ATOM      6  F   UNL     1       3.988   7.274  16.492  0.00  0.00    +0.000 F 
ATOM      7  C   UNL     1       2.734   7.932  18.372  0.00  0.00    +0.000 A 
ENDROOT
BRANCH   1  11
ATOM      8  C   UNL     1       0.037  10.578  21.810  0.00  0.00    +0.000 A 
ATOM      9  C   UNL     1       0.421  10.733  20.490  0.00  0.00    +0.000 A 
ATOM     10  N   UNL     1       1.087   9.791  19.775  0.00  0.00    +0.000 NA
ATOM     11  C   UNL     1       1.408   8.628  20.393  0.00  0.00    +0.000 A 
ATOM     12  C   UNL     1       1.124   8.419  21.737  0.00  0.00    +0.000 A 
ATOM     13  C   UNL     1       0.438   9.405  22.432  0.00  0.00    +0.000 A 
ATOM     14  F   UNL     1       0.139   9.187  23.722  0.00  0.00    +0.000 F 
BRANCH   8  16
ATOM     15  C   UNL     1      -0.687  12.803  22.020  0.00  0.00    +0.000 C 
ATOM     16  O   UNL     1      -0.669  11.481  22.550  0.00  0.00    +0.000 OA
ENDBRANCH   8  16
ENDBRANCH   1  11
BRANCH   4  17
ATOM     17  C   UNL     1       3.896   4.522  17.216  0.00  0.00    +0.000 C 
BRANCH  17  18
ATOM     18  O   UNL     1       5.288   4.771  16.999  0.00  0.00    +0.000 OA
BRANCH  18  19
ATOM     19  C   UNL     1       6.191   4.453  18.086  0.00  0.00    +0.000 C 
ATOM     20  C   UNL     1       7.693   4.640  17.760  0.00  0.00    +0.000 C 
ATOM     21  C   UNL     1       7.639   6.015  18.460  0.00  0.00    +0.000 C 
ATOM     22  C   UNL     1       6.374   5.527  19.188  0.00  0.00    +0.000 C 
BRANCH  21  23
ATOM     23  N   UNL     1       7.293   7.104  17.550  0.00  0.00    +0.000 NA
ATOM     24  C   UNL     1       7.800   8.135  17.797  0.00  0.00    +0.000 C 
ATOM     25  S   UNL     1       8.475   9.540  18.117  0.00  0.00    +0.000 S 
ENDBRANCH  21  23
ENDBRANCH  18  19
ENDBRANCH  17  18
ENDBRANCH   4  17
TORSDOF 6
ENDMDL
MODEL 5
REMARK VINA RESULT:      -7.0      3.627      8.593
REMARK  Name = 
REMARK  7 active torsions:
REMARK  status: ('A' for Active; 'I' for Inactive)
REMARK    1  A    between atoms: C_1  and  O_2
REMARK    2  A    between atoms: O_2  and  C_3
REMARK    3  A    between atoms: C_6  and  C_7
REMARK    4  A    between atoms: C_10  and  C_11
REMARK    5  A    between atoms: C_11  and  O_12
REMARK    6  A    between atoms: O_12  and  C_13
REMARK    7  A    between atoms: C_15  and  N_16
REMARK                            x       y       z     vdW  Elec       q    Type
REMARK                         _______ _______ _______ _____ _____    ______ ____
ROOT
ATOM      1  C   UNL     1       1.942   7.589  19.703  0.00  0.00    +0.000 A 
ATOM      2  C   UNL     1       2.491   7.806  18.437  0.00  0.00    +0.000 A 
ATOM      3  N   UNL     1       3.135   6.866  17.695  0.00  0.00    +0.000 NA
ATOM      4  C   UNL     1       3.219   5.611  18.218  0.00  0.00    +0.000 A 
ATOM      5  C   UNL     1       2.673   5.293  19.453  0.00  0.00    +0.000 A 
ATOM      6  F   UNL     1       2.746   4.049  19.947  0.00  0.00    +0.000 F 
ATOM      7  C   UNL     1       2.041   6.281  20.198  0.00  0.00    +0.000 A 
ENDROOT
BRANCH   1  11
ATOM      8  C   UNL     1       0.193  10.662  22.041  0.00  0.00    +0.000 A 
ATOM      9  C   UNL     1       0.480   9.394  22.513  0.00  0.00    +0.000 A 
ATOM     10  N   UNL     1       1.014   8.402  21.756  0.00  0.00    +0.000 NA
ATOM     11  C   UNL     1       1.276   8.664  20.451  0.00  0.00    +0.000 A 
ATOM     12  C   UNL     1       0.952   9.888  19.879  0.00  0.00    +0.000 A 
ATOM     13  C   UNL     1       0.410  10.877  20.688  0.00  0.00    +0.000 A 
ATOM     14  F   UNL     1       0.126  12.067  20.138  0.00  0.00    +0.000 F 
BRANCH   8  16
ATOM     15  C   UNL     1      -1.707  11.632  23.026  0.00  0.00    +0.000 C 
ATOM     16  O   UNL     1      -0.305  11.697  22.777  0.00  0.00    +0.000 OA
ENDBRANCH   8  16
ENDBRANCH   1  11
BRANCH   4  17
ATOM     17  C   UNL     1       3.864   4.543  17.375  0.00  0.00    +0.000 C 
BRANCH  17  18
ATOM     18  O   UNL     1       5.234   4.820  17.073  0.00  0.00    +0.000 OA
BRANCH  18  19
ATOM     19  C   UNL     1       6.217   4.451  18.070  0.00  0.00    +0.000 C 
ATOM     20  C   UNL     1       7.690   4.646  17.636  0.00  0.00    +0.000 C 
ATOM     21  C   UNL     1       7.702   5.989  18.397  0.00  0.00    +0.000 C 
ATOM     22  C   UNL     1       6.494   5.475  19.200  0.00  0.00    +0.000 C 
BRANCH  21  23
ATOM     23  N   UNL     1       7.294   7.119  17.565  0.00  0.00    +0.000 NA
ATOM     24  C   UNL     1       7.821   8.137  17.820  0.00  0.00    +0.000 C 
ATOM     25  S   UNL     1       8.521   9.527  18.155  0.00  0.00    +0.000 S 
ENDBRANCH  21  23
ENDBRANCH  18  19
ENDBRANCH  17  18
ENDBRANCH   4  17
TORSDOF 6
ENDMDL
MODEL 6
REMARK VINA RESULT:      -7.0      3.483      8.494
REMARK  Name = 
REMARK  7 active torsions:
REMARK  status: ('A' for Active; 'I' for Inactive)
REMARK    1  A    between atoms: C_1  and  O_2
REMARK    2  A    between atoms: O_2  and  C_3
REMARK    3  A    between atoms: C_6  and  C_7
REMARK    4  A    between atoms: C_10  and  C_11
REMARK    5  A    between atoms: C_11  and  O_12
REMARK    6  A    between atoms: O_12  and  C_13
REMARK    7  A    between atoms: C_15  and  N_16
REMARK                            x       y       z     vdW  Elec       q    Type
REMARK                         _______ _______ _______ _____ _____    ______ ____
ROOT
ATOM      1  C   UNL     1       2.099   7.210  19.748  0.00  0.00    +0.000 A 
ATOM      2  C   UNL     1       2.714   7.320  18.499  0.00  0.00    +0.000 A 
ATOM      3  N   UNL     1       3.373   6.315  17.863  0.00  0.00    +0.000 NA
ATOM      4  C   UNL     1       3.404   5.102  18.483  0.00  0.00    +0.000 A 
ATOM      5  C   UNL     1       2.791   4.889  19.709  0.00  0.00    +0.000 A 
ATOM      6  F   UNL     1       2.811   3.686  20.298  0.00  0.00    +0.000 F 
ATOM      7  C   UNL     1       2.145   5.943  20.345  0.00  0.00    +0.000 A 
ENDROOT
BRANCH   1  11
ATOM      8  C   UNL     1       0.339  10.524  21.721  0.00  0.00    +0.000 A 
ATOM      9  C   UNL     1       0.830   9.405  22.368  0.00  0.00    +0.000 A 
ATOM     10  N   UNL     1       1.368   8.333  21.734  0.00  0.00    +0.000 NA
ATOM     11  C   UNL     1       1.421   8.352  20.379  0.00  0.00    +0.000 A 
ATOM     12  C   UNL     1       0.886   9.405  19.648  0.00  0.00    +0.000 A 
ATOM     13  C   UNL     1       0.347  10.484  20.334  0.00  0.00    +0.000 A 
ATOM     14  F   UNL     1      -0.141  11.513  19.625  0.00  0.00    +0.000 F 
BRANCH   8  16
ATOM     15  C   UNL     1      -1.418  11.442  22.982  0.00  0.00    +0.000 C 
ATOM     16  O   UNL     1      -0.171  11.638  22.321  0.00  0.00    +0.000 OA
ENDBRANCH   8  16
ENDBRANCH   1  11
BRANCH   4  17
ATOM     17  C   UNL     1       4.065   3.961  17.756  0.00  0.00    +0.000 C 
BRANCH  17  18
ATOM     18  O   UNL     1       4.390   4.277  16.399  0.00  0.00    +0.000 OA
BRANCH  18  19
ATOM     19  C   UNL     1       5.705   3.894  15.930  0.00  0.00    +0.000 C 
ATOM     20  C   UNL     1       6.310   4.827  14.853  0.00  0.00    +0.000 C 
ATOM     21  C   UNL     1       7.119   5.529  15.964  0.00  0.00    +0.000 C 
ATOM     22  C   UNL     1       6.912   4.271  16.827  0.00  0.00    +0.000 C 
BRANCH  21  23
ATOM     23  N   UNL     1       6.409   6.657  16.561  0.00  0.00    +0.000 NA
ATOM     24  C   UNL     1       7.091   7.431  17.123  0.00  0.00    +0.000 C 
ATOM     25  S   UNL     1       8.000   8.488  17.892  0.00  0.00    +0.000 S 
ENDBRANCH  21  23
ENDBRANCH  18  19
ENDBRANCH  17  18
ENDBRANCH   4  17
TORSDOF 6
ENDMDL
MODEL 7
REMARK VINA RESULT:      -6.9      5.707      8.196
REMARK  Name = 
REMARK  7 active torsions:
REMARK  status: ('A' for Active; 'I' for Inactive)
REMARK    1  A    between atoms: C_1  and  O_2
REMARK    2  A    between atoms: O_2  and  C_3
REMARK    3  A    between atoms: C_6  and  C_7
REMARK    4  A    between atoms: C_10  and  C_11
REMARK    5  A    between atoms: C_11  and  O_12
REMARK    6  A    between atoms: O_12  and  C_13
REMARK    7  A    between atoms: C_15  and  N_16
REMARK                            x       y       z     vdW  Elec       q    Type
REMARK                         _______ _______ _______ _____ _____    ______ ____
ROOT
ATOM      1  C   UNL     1       8.202   8.642  18.260  0.00  0.00    +0.000 A 
ATOM      2  C   UNL     1       7.290   8.427  17.225  0.00  0.00    +0.000 A 
ATOM      3  N   UNL     1       6.743   7.224  16.904  0.00  0.00    +0.000 NA
ATOM      4  C   UNL     1       7.094   6.157  17.675  0.00  0.00    +0.000 A 
ATOM      5  C   UNL     1       7.967   6.281  18.747  0.00  0.00    +0.000 A 
ATOM      6  F   UNL     1       8.286   5.227  19.510  0.00  0.00    +0.000 F 
ATOM      7  C   UNL     1       8.526   7.520  19.035  0.00  0.00    +0.000 A 
ENDROOT
BRANCH   1  11
ATOM      8  C   UNL     1       9.592  12.577  19.005  0.00  0.00    +0.000 A 
ATOM      9  C   UNL     1       8.881  12.204  17.879  0.00  0.00    +0.000 A 
ATOM     10  N   UNL     1       8.460  10.939  17.628  0.00  0.00    +0.000 NA
ATOM     11  C   UNL     1       8.763   9.974  18.532  0.00  0.00    +0.000 A 
ATOM     12  C   UNL     1       9.535  10.248  19.654  0.00  0.00    +0.000 A 
ATOM     13  C   UNL     1       9.943  11.556  19.875  0.00  0.00    +0.000 A 
ATOM     14  F   UNL     1      10.663  11.822  20.975  0.00  0.00    +0.000 F 
BRANCH   8  16
ATOM     15  C   UNL     1      11.174  14.275  18.636  0.00  0.00    +0.000 C 
ATOM     16  O   UNL     1       9.998  13.843  19.314  0.00  0.00    +0.000 OA
ENDBRANCH   8  16
ENDBRANCH   1  11
BRANCH   4  17
ATOM     17  C   UNL     1       6.440   4.834  17.378  0.00  0.00    +0.000 C 
BRANCH  17  18
ATOM     18  O   UNL     1       5.050   4.956  17.061  0.00  0.00    +0.000 OA
BRANCH  18  19
ATOM     19  C   UNL     1       4.103   4.567  18.086  0.00  0.00    +0.000 C 
ATOM     20  C   UNL     1       4.058   5.500  19.320  0.00  0.00    +0.000 C 
ATOM     21  C   UNL     1       2.823   6.194  18.709  0.00  0.00    +0.000 C 
ATOM     22  C   UNL     1       2.616   4.935  17.848  0.00  0.00    +0.000 C 
BRANCH  21  23
ATOM     23  N   UNL     1       3.170   7.325  17.851  0.00  0.00    +0.000 NA
ATOM     24  C   UNL     1       2.481   8.268  17.973  0.00  0.00    +0.000 C 
ATOM     25  S   UNL     1       1.556   9.555  18.122  0.00  0.00    +0.000 S 
ENDBRANCH  21  23
ENDBRANCH  18  19
ENDBRANCH  17  18
ENDBRANCH   4  17
TORSDOF 6
ENDMDL
MODEL 8
REMARK VINA RESULT:      -6.9      3.295      8.466
REMARK  Name = 
REMARK  7 active torsions:
REMARK  status: ('A' for Active; 'I' for Inactive)
REMARK    1  A    between atoms: C_1  and  O_2
REMARK    2  A    between atoms: O_2  and  C_3
REMARK    3  A    between atoms: C_6  and  C_7
REMARK    4  A    between atoms: C_10  and  C_11
REMARK    5  A    between atoms: C_11  and  O_12
REMARK    6  A    between atoms: O_12  and  C_13
REMARK    7  A    between atoms: C_15  and  N_16
REMARK                            x       y       z     vdW  Elec       q    Type
REMARK                         _______ _______ _______ _____ _____    ______ ____
ROOT
ATOM      1  C   UNL     1       1.862   7.364  19.962  0.00  0.00    +0.000 A 
ATOM      2  C   UNL     1       2.413   7.491  18.685  0.00  0.00    +0.000 A 
ATOM      3  N   UNL     1       2.937   6.469  17.957  0.00  0.00    +0.000 NA
ATOM      4  C   UNL     1       2.889   5.224  18.509  0.00  0.00    +0.000 A 
ATOM      5  C   UNL     1       2.329   4.996  19.758  0.00  0.00    +0.000 A 
ATOM      6  F   UNL     1       2.270   3.764  20.279  0.00  0.00    +0.000 F 
ATOM      7  C   UNL     1       1.822   6.065  20.487  0.00  0.00    +0.000 A 
ENDROOT
BRANCH   1  11
ATOM      8  C   UNL     1       0.171  10.743  21.886  0.00  0.00    +0.000 A 
ATOM      9  C   UNL     1       0.625  10.738  20.579  0.00  0.00    +0.000 A 
ATOM     10  N   UNL     1       1.191   9.664  19.973  0.00  0.00    +0.000 NA
ATOM     11  C   UNL     1       1.332   8.524  20.694  0.00  0.00    +0.000 A 
ATOM     12  C   UNL     1       0.969   8.464  22.034  0.00  0.00    +0.000 A 
ATOM     13  C   UNL     1       0.391   9.583  22.616  0.00  0.00    +0.000 A 
ATOM     14  F   UNL     1       0.014   9.512  23.901  0.00  0.00    +0.000 F 
BRANCH   8  16
ATOM     15  C   UNL     1      -0.960  12.788  21.650  0.00  0.00    +0.000 C 
ATOM     16  O   UNL     1      -0.440  11.786  22.518  0.00  0.00    +0.000 OA
ENDBRANCH   8  16
ENDBRANCH   1  11
BRANCH   4  17
ATOM     17  C   UNL     1       3.397   4.073  17.683  0.00  0.00    +0.000 C 
BRANCH  17  18
ATOM     18  O   UNL     1       4.819   4.082  17.526  0.00  0.00    +0.000 OA
BRANCH  18  19
ATOM     19  C   UNL     1       5.334   4.273  16.186  0.00  0.00    +0.000 C 
ATOM     20  C   UNL     1       5.426   5.749  15.728  0.00  0.00    +0.000 C 
ATOM     21  C   UNL     1       6.925   5.735  16.097  0.00  0.00    +0.000 C 
ATOM     22  C   UNL     1       6.872   4.199  16.005  0.00  0.00    +0.000 C 
BRANCH  21  23
ATOM     23  N   UNL     1       7.175   6.136  17.480  0.00  0.00    +0.000 NA
ATOM     24  C   UNL     1       7.523   7.249  17.617  0.00  0.00    +0.000 C 
ATOM     25  S   UNL     1       7.999   8.754  17.823  0.00  0.00    +0.000 S 
ENDBRANCH  21  23
ENDBRANCH  18  19
ENDBRANCH  17  18
ENDBRANCH   4  17
TORSDOF 6
ENDMDL
MODEL 9
REMARK VINA RESULT:      -6.8      3.743      8.827
REMARK  Name = 
REMARK  7 active torsions:
REMARK  status: ('A' for Active; 'I' for Inactive)
REMARK    1  A    between atoms: C_1  and  O_2
REMARK    2  A    between atoms: O_2  and  C_3
REMARK    3  A    between atoms: C_6  and  C_7
REMARK    4  A    between atoms: C_10  and  C_11
REMARK    5  A    between atoms: C_11  and  O_12
REMARK    6  A    between atoms: O_12  and  C_13
REMARK    7  A    between atoms: C_15  and  N_16
REMARK                            x       y       z     vdW  Elec       q    Type
REMARK                         _______ _______ _______ _____ _____    ______ ____
ROOT
ATOM      1  C   UNL     1       1.460   8.327  20.125  0.00  0.00    +0.000 A 
ATOM      2  C   UNL     1       1.739   7.044  20.601  0.00  0.00    +0.000 A 
ATOM      3  N   UNL     1       2.419   6.088  19.913  0.00  0.00    +0.000 NA
ATOM      4  C   UNL     1       2.888   6.425  18.679  0.00  0.00    +0.000 A 
ATOM      5  C   UNL     1       2.690   7.687  18.138  0.00  0.00    +0.000 A 
ATOM      6  F   UNL     1       3.175   8.011  16.932  0.00  0.00    +0.000 F 
ATOM      7  C   UNL     1       1.971   8.635  18.856  0.00  0.00    +0.000 A 
ENDROOT
BRANCH   1  11
ATOM      8  C   UNL     1      -0.610  11.050  22.629  0.00  0.00    +0.000 A 
ATOM      9  C   UNL     1      -0.521   9.690  22.865  0.00  0.00    +0.000 A 
ATOM     10  N   UNL     1       0.118   8.815  22.048  0.00  0.00    +0.000 NA
ATOM     11  C   UNL     1       0.700   9.300  20.923  0.00  0.00    +0.000 A 
ATOM     12  C   UNL     1       0.597  10.641  20.574  0.00  0.00    +0.000 A 
ATOM     13  C   UNL     1      -0.062  11.503  21.438  0.00  0.00    +0.000 A 
ATOM     14  F   UNL     1      -0.133  12.802  21.112  0.00  0.00    +0.000 F 
BRANCH   8  16
ATOM     15  C   UNL     1      -2.616  12.086  23.277  0.00  0.00    +0.000 C 
ATOM     16  O   UNL     1      -1.206  11.967  23.444  0.00  0.00    +0.000 OA
ENDBRANCH   8  16
ENDBRANCH   1  11
BRANCH   4  17
ATOM     17  C   UNL     1       3.707   5.401  17.939  0.00  0.00    +0.000 C 
BRANCH  17  18
ATOM     18  O   UNL     1       4.891   5.016  18.643  0.00  0.00    +0.000 OA
BRANCH  18  19
ATOM     19  C   UNL     1       6.110   5.728  18.321  0.00  0.00    +0.000 C 
ATOM     20  C   UNL     1       7.304   4.827  17.922  0.00  0.00    +0.000 C 
ATOM     21  C   UNL     1       6.975   5.105  16.439  0.00  0.00    +0.000 C 
ATOM     22  C   UNL     1       6.208   6.355  16.907  0.00  0.00    +0.000 C 
BRANCH  21  23
ATOM     23  N   UNL     1       6.039   4.137  15.872  0.00  0.00    +0.000 NA
ATOM     24  C   UNL     1       6.142   3.969  14.714  0.00  0.00    +0.000 C 
ATOM     25  S   UNL     1       6.265   3.730  13.145  0.00  0.00    +0.000 S 
ENDBRANCH  21  23
ENDBRANCH  18  19
ENDBRANCH  17  18
ENDBRANCH   4  17
TORSDOF 6
ENDMDL
