MODEL 1
REMARK VINA RESULT:      -8.4      0.000      0.000
REMARK  Name = 
REMARK  7 active torsions:
REMARK  status: ('A' for Active; 'I' for Inactive)
REMARK    1  A    between atoms: C_1  and  C_2
REMARK    2  A    between atoms: C_5  and  S_6
REMARK    3  A    between atoms: S_6  and  N_9
REMARK    4  A    between atoms: C_16  and  N_17
REMARK    5  A    between atoms: C_18  and  C_20
REMARK    6  A    between atoms: C_20  and  N_21
REMARK    7  A    between atoms: C_23  and  C_24
REMARK                            x       y       z     vdW  Elec       q    Type
REMARK                         _______ _______ _______ _____ _____    ______ ____
ROOT
ATOM      1  C   UNL     1       2.706   8.014  17.149  0.00  0.00    +0.000 C 
ATOM      2  C   UNL     1       2.091   8.295  18.495  0.00  0.00    +0.000 A 
ATOM      3  C   UNL     1       1.184   9.372  18.572  0.00  0.00    +0.000 A 
ATOM      4  C   UNL     1       0.583   9.725  19.778  0.00  0.00    +0.000 A 
ATOM      5  C   UNL     1       0.866   8.987  20.922  0.00  0.00    +0.000 A 
ATOM      6  C   UNL     1       1.719   7.878  20.855  0.00  0.00    +0.000 A 
ATOM      7  C   UNL     1       2.382   7.545  19.661  0.00  0.00    +0.000 A 
ENDROOT
BRANCH   7   8
ATOM      8  N   UNL     1       3.338   6.490  19.614  0.00  0.00    +0.000 N 
ATOM      9  C   UNL     1       3.064   5.164  19.286  0.00  0.00    +0.000 C 
ATOM     10  O   UNL     1       1.944   4.703  19.070  0.00  0.00    +0.000 OA
ATOM     11  H   UNL     1       4.239   6.657  20.058  0.00  0.00    +0.000 HD
BRANCH   9  12
ATOM     12  C   UNL     1       4.269   4.224  19.337  0.00  0.00    +0.000 C 
BRANCH  12  13
ATOM     13  N   UNL     1       5.299   4.667  18.398  0.00  0.00    +0.000 N 
ATOM     14  C   UNL     1       5.152   4.449  17.032  0.00  0.00    +0.000 A 
ATOM     15  C   UNL     1       6.117   4.799  16.156  0.00  0.00    +0.000 A 
ATOM     16  C   UNL     1       7.288   5.495  16.660  0.00  0.00    +0.000 A 
ATOM     17  C   UNL     1       7.470   5.686  17.970  0.00  0.00    +0.000 A 
ATOM     18  C   UNL     1       6.462   5.194  18.939  0.00  0.00    +0.000 A 
ATOM     19  O   UNL     1       6.679   5.268  20.150  0.00  0.00    +0.000 OA
BRANCH  15  20
ATOM     20  C   UNL     1       6.050   4.468  14.687  0.00  0.00    +0.000 C 
ATOM     21  F   UNL     1       4.841   4.756  14.137  0.00  0.00    +0.000 F 
ATOM     22  F   UNL     1       6.973   5.168  13.978  0.00  0.00    +0.000 F 
ATOM     23  F   UNL     1       6.282   3.153  14.449  0.00  0.00    +0.000 F 
ENDBRANCH  15  20
ENDBRANCH  12  13
ENDBRANCH   9  12
ENDBRANCH   7   8
BRANCH   5  24
ATOM     24  S   UNL     1       0.062   9.415  22.459  0.00  0.00    +0.000 S 
ATOM     25  O   UNL     1      -0.979   8.431  22.680  0.00  0.00    +0.000 OA
ATOM     26  O   UNL     1       1.098   9.629  23.448  0.00  0.00    +0.000 OA
BRANCH  24  27
ATOM     27  N   UNL     1      -0.695  10.919  22.131  0.00  0.00    +0.000 NA
ATOM     28  C   UNL     1      -1.741  11.327  23.103  0.00  0.00    +0.000 C 
ATOM     29  C   UNL     1      -2.527  12.528  22.582  0.00  0.00    +0.000 C 
ATOM     30  C   UNL     1      -1.600  13.680  22.223  0.00  0.00    +0.000 C 
ATOM     31  C   UNL     1      -0.585  13.215  21.188  0.00  0.00    +0.000 C 
ATOM     32  C   UNL     1       0.210  12.013  21.695  0.00  0.00    +0.000 C 
ENDBRANCH  24  27
ENDBRANCH   5  24
TORSDOF 6
ENDMDL
MODEL 2
REMARK VINA RESULT:      -8.4      1.806      2.349
REMARK  Name = 
REMARK  7 active torsions:
REMARK  status: ('A' for Active; 'I' for Inactive)
REMARK    1  A    between atoms: C_1  and  C_2
REMARK    2  A    between atoms: C_5  and  S_6
REMARK    3  A    between atoms: S_6  and  N_9
REMARK    4  A    between atoms: C_16  and  N_17
REMARK    5  A    between atoms: C_18  and  C_20
REMARK    6  A    between atoms: C_20  and  N_21
REMARK    7  A    between atoms: C_23  and  C_24
REMARK                            x       y       z     vdW  Elec       q    Type
REMARK                         _______ _______ _______ _____ _____    ______ ____
ROOT
ATOM      1  C   UNL     1       2.720   7.937  17.500  0.00  0.00    +0.000 C 
ATOM      2  C   UNL     1       2.033   8.270  18.799  0.00  0.00    +0.000 A 
ATOM      3  C   UNL     1       1.384   9.520  18.877  0.00  0.00    +0.000 A 
ATOM      4  C   UNL     1       0.743   9.930  20.044  0.00  0.00    +0.000 A 
ATOM      5  C   UNL     1       0.725   9.080  21.145  0.00  0.00    +0.000 A 
ATOM      6  C   UNL     1       1.315   7.812  21.069  0.00  0.00    +0.000 A 
ATOM      7  C   UNL     1       2.019   7.408  19.922  0.00  0.00    +0.000 A 
ENDROOT
BRANCH   7   8
ATOM      8  N   UNL     1       2.718   6.167  19.881  0.00  0.00    +0.000 N 
ATOM      9  C   UNL     1       2.162   4.916  20.143  0.00  0.00    +0.000 C 
ATOM     10  O   UNL     1       1.010   4.717  20.525  0.00  0.00    +0.000 OA
ATOM     11  H   UNL     1       3.736   6.205  19.876  0.00  0.00    +0.000 HD
BRANCH   9  12
ATOM     12  C   UNL     1       3.141   3.744  20.055  0.00  0.00    +0.000 C 
BRANCH  12  13
ATOM     13  N   UNL     1       4.029   3.909  18.906  0.00  0.00    +0.000 N 
ATOM     14  C   UNL     1       5.337   4.351  19.079  0.00  0.00    +0.000 A 
ATOM     15  C   UNL     1       6.153   4.564  18.027  0.00  0.00    +0.000 A 
ATOM     16  C   UNL     1       5.666   4.237  16.697  0.00  0.00    +0.000 A 
ATOM     17  C   UNL     1       4.404   3.844  16.499  0.00  0.00    +0.000 A 
ATOM     18  C   UNL     1       3.475   3.725  17.648  0.00  0.00    +0.000 A 
ATOM     19  O   UNL     1       2.284   3.473  17.458  0.00  0.00    +0.000 OA
BRANCH  15  20
ATOM     20  C   UNL     1       7.531   5.158  18.164  0.00  0.00    +0.000 C 
ATOM     21  F   UNL     1       7.778   5.632  19.415  0.00  0.00    +0.000 F 
ATOM     22  F   UNL     1       8.497   4.240  17.903  0.00  0.00    +0.000 F 
ATOM     23  F   UNL     1       7.728   6.194  17.310  0.00  0.00    +0.000 F 
ENDBRANCH  15  20
ENDBRANCH  12  13
ENDBRANCH   9  12
ENDBRANCH   7   8
BRANCH   5  24
ATOM     24  S   UNL     1      -0.132   9.590  22.627  0.00  0.00    +0.000 S 
ATOM     25  O   UNL     1      -1.198   8.632  22.849  0.00  0.00    +0.000 OA
ATOM     26  O   UNL     1       0.866   9.832  23.647  0.00  0.00    +0.000 OA
BRANCH  24  27
ATOM     27  N   UNL     1      -0.851  11.088  22.202  0.00  0.00    +0.000 NA
ATOM     28  C   UNL     1      -1.987  11.512  23.059  0.00  0.00    +0.000 C 
ATOM     29  C   UNL     1      -2.715  12.704  22.443  0.00  0.00    +0.000 C 
ATOM     30  C   UNL     1      -1.755  13.851  22.159  0.00  0.00    +0.000 C 
ATOM     31  C   UNL     1      -0.643  13.368  21.238  0.00  0.00    +0.000 C 
ATOM     32  C   UNL     1       0.095  12.175  21.841  0.00  0.00    +0.000 C 
ENDBRANCH  24  27
ENDBRANCH   5  24
TORSDOF 6
ENDMDL
MODEL 3
REMARK VINA RESULT:      -8.3      4.168      8.830
REMARK  Name = 
REMARK  7 active torsions:
REMARK  status: ('A' for Active; 'I' for Inactive)
REMARK    1  A    between atoms: C_1  and  C_2
REMARK    2  A    between atoms: C_5  and  S_6
REMARK    3  A    between atoms: S_6  and  N_9
REMARK    4  A    between atoms: C_16  and  N_17
REMARK    5  A    between atoms: C_18  and  C_20
REMARK    6  A    between atoms: C_20  and  N_21
REMARK    7  A    between atoms: C_23  and  C_24
REMARK                            x       y       z     vdW  Elec       q    Type
REMARK                         _______ _______ _______ _____ _____    ______ ____
ROOT
ATOM      1  C   UNL     1       0.895   4.044  19.940  0.00  0.00    +0.000 C 
ATOM      2  C   UNL     1       1.987   4.495  19.006  0.00  0.00    +0.000 A 
ATOM      3  C   UNL     1       2.546   3.518  18.156  0.00  0.00    +0.000 A 
ATOM      4  C   UNL     1       3.578   3.833  17.274  0.00  0.00    +0.000 A 
ATOM      5  C   UNL     1       4.050   5.140  17.217  0.00  0.00    +0.000 A 
ATOM      6  C   UNL     1       3.470   6.137  18.012  0.00  0.00    +0.000 A 
ATOM      7  C   UNL     1       2.471   5.825  18.951  0.00  0.00    +0.000 A 
ENDROOT
BRANCH   7   8
ATOM      8  N   UNL     1       1.958   6.812  19.841  0.00  0.00    +0.000 N 
ATOM      9  C   UNL     1       1.756   8.155  19.530  0.00  0.00    +0.000 C 
ATOM     10  O   UNL     1       2.069   8.693  18.469  0.00  0.00    +0.000 OA
ATOM     11  H   UNL     1       1.939   6.581  20.832  0.00  0.00    +0.000 HD
BRANCH   9  12
ATOM     12  C   UNL     1       1.218   9.009  20.679  0.00  0.00    +0.000 C 
BRANCH  12  13
ATOM     13  N   UNL     1       0.269  10.000  20.173  0.00  0.00    +0.000 N 
ATOM     14  C   UNL     1      -0.680   9.649  19.218  0.00  0.00    +0.000 A 
ATOM     15  C   UNL     1      -1.526  10.562  18.697  0.00  0.00    +0.000 A 
ATOM     16  C   UNL     1      -1.487  11.917  19.220  0.00  0.00    +0.000 A 
ATOM     17  C   UNL     1      -0.564  12.289  20.112  0.00  0.00    +0.000 A 
ATOM     18  C   UNL     1       0.440  11.310  20.593  0.00  0.00    +0.000 A 
ATOM     19  O   UNL     1       1.360  11.677  21.327  0.00  0.00    +0.000 OA
BRANCH  15  20
ATOM     20  C   UNL     1      -2.481  10.249  17.574  0.00  0.00    +0.000 C 
ATOM     21  F   UNL     1      -1.863   9.701  16.494  0.00  0.00    +0.000 F 
ATOM     22  F   UNL     1      -3.432   9.361  17.964  0.00  0.00    +0.000 F 
ATOM     23  F   UNL     1      -3.129  11.355  17.132  0.00  0.00    +0.000 F 
ENDBRANCH  15  20
ENDBRANCH  12  13
ENDBRANCH   9  12
ENDBRANCH   7   8
BRANCH   5  24
ATOM     24  S   UNL     1       5.345   5.550  16.057  0.00  0.00    +0.000 S 
ATOM     25  O   UNL     1       5.707   4.323  15.376  0.00  0.00    +0.000 OA
ATOM     26  O   UNL     1       4.908   6.709  15.307  0.00  0.00    +0.000 OA
BRANCH  24  27
ATOM     27  N   UNL     1       6.666   6.012  17.050  0.00  0.00    +0.000 NA
ATOM     28  C   UNL     1       6.805   7.472  17.279  0.00  0.00    +0.000 C 
ATOM     29  C   UNL     1       8.144   7.791  17.941  0.00  0.00    +0.000 C 
ATOM     30  C   UNL     1       8.331   6.991  19.222  0.00  0.00    +0.000 C 
ATOM     31  C   UNL     1       8.227   5.504  18.914  0.00  0.00    +0.000 C 
ATOM     32  C   UNL     1       6.892   5.169  18.252  0.00  0.00    +0.000 C 
ENDBRANCH  24  27
ENDBRANCH   5  24
TORSDOF 6
ENDMDL
MODEL 4
REMARK VINA RESULT:      -8.3      3.718      5.299
REMARK  Name = 
REMARK  7 active torsions:
REMARK  status: ('A' for Active; 'I' for Inactive)
REMARK    1  A    between atoms: C_1  and  C_2
REMARK    2  A    between atoms: C_5  and  S_6
REMARK    3  A    between atoms: S_6  and  N_9
REMARK    4  A    between atoms: C_16  and  N_17
REMARK    5  A    between atoms: C_18  and  C_20
REMARK    6  A    between atoms: C_20  and  N_21
REMARK    7  A    between atoms: C_23  and  C_24
REMARK                            x       y       z     vdW  Elec       q    Type
REMARK                         _______ _______ _______ _____ _____    ______ ____
ROOT
ATOM      1  C   UNL     1      -0.734   9.844  17.788  0.00  0.00    +0.000 C 
ATOM      2  C   UNL     1      -1.045  10.771  18.935  0.00  0.00    +0.000 A 
ATOM      3  C   UNL     1      -2.054  11.734  18.724  0.00  0.00    +0.000 A 
ATOM      4  C   UNL     1      -2.396  12.651  19.715  0.00  0.00    +0.000 A 
ATOM      5  C   UNL     1      -1.744  12.602  20.942  0.00  0.00    +0.000 A 
ATOM      6  C   UNL     1      -0.779  11.617  21.192  0.00  0.00    +0.000 A 
ATOM      7  C   UNL     1      -0.378  10.724  20.183  0.00  0.00    +0.000 A 
ENDROOT
BRANCH   7   8
ATOM      8  N   UNL     1       0.682   9.797  20.395  0.00  0.00    +0.000 N 
ATOM      9  C   UNL     1       0.565   8.565  21.035  0.00  0.00    +0.000 C 
ATOM     10  O   UNL     1      -0.454   8.143  21.580  0.00  0.00    +0.000 OA
ATOM     11  H   UNL     1       1.633  10.139  20.268  0.00  0.00    +0.000 HD
BRANCH   9  12
ATOM     12  C   UNL     1       1.867   7.772  21.154  0.00  0.00    +0.000 C 
BRANCH  12  13
ATOM     13  N   UNL     1       1.870   6.657  20.208  0.00  0.00    +0.000 N 
ATOM     14  C   UNL     1       1.534   5.373  20.625  0.00  0.00    +0.000 A 
ATOM     15  C   UNL     1       1.586   4.322  19.781  0.00  0.00    +0.000 A 
ATOM     16  C   UNL     1       1.919   4.571  18.388  0.00  0.00    +0.000 A 
ATOM     17  C   UNL     1       2.279   5.788  17.969  0.00  0.00    +0.000 A 
ATOM     18  C   UNL     1       2.334   6.917  18.927  0.00  0.00    +0.000 A 
ATOM     19  O   UNL     1       2.773   8.011  18.570  0.00  0.00    +0.000 OA
BRANCH  15  20
ATOM     20  C   UNL     1       1.352   2.901  20.224  0.00  0.00    +0.000 C 
ATOM     21  F   UNL     1       0.941   2.814  21.517  0.00  0.00    +0.000 F 
ATOM     22  F   UNL     1       0.392   2.299  19.475  0.00  0.00    +0.000 F 
ATOM     23  F   UNL     1       2.471   2.142  20.119  0.00  0.00    +0.000 F 
ENDBRANCH  15  20
ENDBRANCH  12  13
ENDBRANCH   9  12
ENDBRANCH   7   8
BRANCH   5  24
ATOM     24  S   UNL     1      -2.211  13.752  22.226  0.00  0.00    +0.000 S 
ATOM     25  O   UNL     1      -1.227  13.629  23.283  0.00  0.00    +0.000 OA
ATOM     26  O   UNL     1      -2.460  15.033  21.595  0.00  0.00    +0.000 OA
BRANCH  24  27
ATOM     27  N   UNL     1      -3.700  13.139  22.817  0.00  0.00    +0.000 NA
ATOM     28  C   UNL     1      -3.803  13.041  24.295  0.00  0.00    +0.000 C 
ATOM     29  C   UNL     1      -5.042  12.245  24.700  0.00  0.00    +0.000 C 
ATOM     30  C   UNL     1      -6.302  12.831  24.078  0.00  0.00    +0.000 C 
ATOM     31  C   UNL     1      -6.156  12.859  22.563  0.00  0.00    +0.000 C 
ATOM     32  C   UNL     1      -4.920  13.652  22.142  0.00  0.00    +0.000 C 
ENDBRANCH  24  27
ENDBRANCH   5  24
TORSDOF 6
ENDMDL
MODEL 5
REMARK VINA RESULT:      -8.3      4.726      9.602
REMARK  Name = 
REMARK  7 active torsions:
REMARK  status: ('A' for Active; 'I' for Inactive)
REMARK    1  A    between atoms: C_1  and  C_2
REMARK    2  A    between atoms: C_5  and  S_6
REMARK    3  A    between atoms: S_6  and  N_9
REMARK    4  A    between atoms: C_16  and  N_17
REMARK    5  A    between atoms: C_18  and  C_20
REMARK    6  A    between atoms: C_20  and  N_21
REMARK    7  A    between atoms: C_23  and  C_24
REMARK                            x       y       z     vdW  Elec       q    Type
REMARK                         _______ _______ _______ _____ _____    ______ ____
ROOT
ATOM      1  C   UNL     1       1.758   4.688  19.814  0.00  0.00    +0.000 C 
ATOM      2  C   UNL     1       3.008   4.984  19.027  0.00  0.00    +0.000 A 
ATOM      3  C   UNL     1       4.064   4.054  19.131  0.00  0.00    +0.000 A 
ATOM      4  C   UNL     1       5.269   4.252  18.461  0.00  0.00    +0.000 A 
ATOM      5  C   UNL     1       5.425   5.377  17.658  0.00  0.00    +0.000 A 
ATOM      6  C   UNL     1       4.369   6.282  17.496  0.00  0.00    +0.000 A 
ATOM      7  C   UNL     1       3.169   6.131  18.213  0.00  0.00    +0.000 A 
ENDROOT
BRANCH   7   8
ATOM      8  N   UNL     1       2.135   7.109  18.141  0.00  0.00    +0.000 N 
ATOM      9  C   UNL     1       2.325   8.472  17.926  0.00  0.00    +0.000 C 
ATOM     10  O   UNL     1       3.417   9.034  17.850  0.00  0.00    +0.000 OA
ATOM     11  H   UNL     1       1.214   6.840  18.482  0.00  0.00    +0.000 HD
BRANCH   9  12
ATOM     12  C   UNL     1       1.045   9.309  17.919  0.00  0.00    +0.000 C 
BRANCH  12  13
ATOM     13  N   UNL     1       0.923  10.061  19.166  0.00  0.00    +0.000 N 
ATOM     14  C   UNL     1       0.440   9.449  20.319  0.00  0.00    +0.000 A 
ATOM     15  C   UNL     1       0.267  10.141  21.464  0.00  0.00    +0.000 A 
ATOM     16  C   UNL     1       0.680  11.534  21.498  0.00  0.00    +0.000 A 
ATOM     17  C   UNL     1       1.115  12.155  20.398  0.00  0.00    +0.000 A 
ATOM     18  C   UNL     1       1.191  11.421  19.113  0.00  0.00    +0.000 A 
ATOM     19  O   UNL     1       1.483  12.018  18.075  0.00  0.00    +0.000 OA
BRANCH  15  20
ATOM     20  C   UNL     1      -0.369   9.546  22.693  0.00  0.00    +0.000 C 
ATOM     21  F   UNL     1      -1.338  10.340  23.222  0.00  0.00    +0.000 F 
ATOM     22  F   UNL     1      -0.956   8.352  22.421  0.00  0.00    +0.000 F 
ATOM     23  F   UNL     1       0.535   9.327  23.680  0.00  0.00    +0.000 F 
ENDBRANCH  15  20
ENDBRANCH  12  13
ENDBRANCH   9  12
ENDBRANCH   7   8
BRANCH   5  24
ATOM     24  S   UNL     1       6.956   5.608  16.767  0.00  0.00    +0.000 S 
ATOM     25  O   UNL     1       7.232   7.031  16.764  0.00  0.00    +0.000 OA
ATOM     26  O   UNL     1       7.921   4.671  17.306  0.00  0.00    +0.000 OA
BRANCH  24  27
ATOM     27  N   UNL     1       6.582   5.139  15.160  0.00  0.00    +0.000 NA
ATOM     28  C   UNL     1       7.728   5.138  14.217  0.00  0.00    +0.000 C 
ATOM     29  C   UNL     1       7.246   4.970  12.778  0.00  0.00    +0.000 C 
ATOM     30  C   UNL     1       6.382   3.726  12.627  0.00  0.00    +0.000 C 
ATOM     31  C   UNL     1       5.199   3.809  13.582  0.00  0.00    +0.000 C 
ATOM     32  C   UNL     1       5.665   3.978  15.026  0.00  0.00    +0.000 C 
ENDBRANCH  24  27
ENDBRANCH   5  24
TORSDOF 6
ENDMDL
MODEL 6
REMARK VINA RESULT:      -8.0      4.083      8.818
REMARK  Name = 
REMARK  7 active torsions:
REMARK  status: ('A' for Active; 'I' for Inactive)
REMARK    1  A    between atoms: C_1  and  C_2
REMARK    2  A    between atoms: C_5  and  S_6
REMARK    3  A    between atoms: S_6  and  N_9
REMARK    4  A    between atoms: C_16  and  N_17
REMARK    5  A    between atoms: C_18  and  C_20
REMARK    6  A    between atoms: C_20  and  N_21
REMARK    7  A    between atoms: C_23  and  C_24
REMARK                            x       y       z     vdW  Elec       q    Type
REMARK                         _______ _______ _______ _____ _____    ______ ____
ROOT
ATOM      1  C   UNL     1       0.855   3.747  19.853  0.00  0.00    +0.000 C 
ATOM      2  C   UNL     1       1.932   4.300  18.957  0.00  0.00    +0.000 A 
ATOM      3  C   UNL     1       2.362   3.480  17.892  0.00  0.00    +0.000 A 
ATOM      4  C   UNL     1       3.370   3.892  17.024  0.00  0.00    +0.000 A 
ATOM      5  C   UNL     1       3.949   5.145  17.199  0.00  0.00    +0.000 A 
ATOM      6  C   UNL     1       3.497   5.998  18.214  0.00  0.00    +0.000 A 
ATOM      7  C   UNL     1       2.524   5.573  19.137  0.00  0.00    +0.000 A 
ENDROOT
BRANCH   7   8
ATOM      8  N   UNL     1       2.144   6.391  20.239  0.00  0.00    +0.000 N 
ATOM      9  C   UNL     1       1.811   7.742  20.168  0.00  0.00    +0.000 C 
ATOM     10  O   UNL     1       1.878   8.437  19.155  0.00  0.00    +0.000 OA
ATOM     11  H   UNL     1       2.334   6.033  21.173  0.00  0.00    +0.000 HD
BRANCH   9  12
ATOM     12  C   UNL     1       1.464   8.393  21.507  0.00  0.00    +0.000 C 
BRANCH  12  13
ATOM     13  N   UNL     1       0.454   9.434  21.319  0.00  0.00    +0.000 N 
ATOM     14  C   UNL     1       0.036   9.793  20.042  0.00  0.00    +0.000 A 
ATOM     15  C   UNL     1      -0.852  10.789  19.845  0.00  0.00    +0.000 A 
ATOM     16  C   UNL     1      -1.438  11.431  21.010  0.00  0.00    +0.000 A 
ATOM     17  C   UNL     1      -1.030  11.130  22.246  0.00  0.00    +0.000 A 
ATOM     18  C   UNL     1       0.032  10.117  22.450  0.00  0.00    +0.000 A 
ATOM     19  O   UNL     1       0.490   9.918  23.577  0.00  0.00    +0.000 OA
BRANCH  15  20
ATOM     20  C   UNL     1      -1.234  11.289  18.477  0.00  0.00    +0.000 C 
ATOM     21  F   UNL     1      -0.860  10.441  17.482  0.00  0.00    +0.000 F 
ATOM     22  F   UNL     1      -2.579  11.446  18.362  0.00  0.00    +0.000 F 
ATOM     23  F   UNL     1      -0.670  12.491  18.196  0.00  0.00    +0.000 F 
ENDBRANCH  15  20
ENDBRANCH  12  13
ENDBRANCH   9  12
ENDBRANCH   7   8
BRANCH   5  24
ATOM     24  S   UNL     1       5.213   5.689  16.060  0.00  0.00    +0.000 S 
ATOM     25  O   UNL     1       5.540   4.555  15.218  0.00  0.00    +0.000 OA
ATOM     26  O   UNL     1       4.768   6.938  15.477  0.00  0.00    +0.000 OA
BRANCH  24  27
ATOM     27  N   UNL     1       6.569   6.010  17.061  0.00  0.00    +0.000 NA
ATOM     28  C   UNL     1       6.777   7.439  17.407  0.00  0.00    +0.000 C 
ATOM     29  C   UNL     1       8.139   7.644  18.066  0.00  0.00    +0.000 C 
ATOM     30  C   UNL     1       8.309   6.734  19.274  0.00  0.00    +0.000 C 
ATOM     31  C   UNL     1       8.134   5.284  18.848  0.00  0.00    +0.000 C 
ATOM     32  C   UNL     1       6.776   5.062  18.186  0.00  0.00    +0.000 C 
ENDBRANCH  24  27
ENDBRANCH   5  24
TORSDOF 6
ENDMDL
MODEL 7
REMARK VINA RESULT:      -8.0      1.899      2.487
REMARK  Name = 
REMARK  7 active torsions:
REMARK  status: ('A' for Active; 'I' for Inactive)
REMARK    1  A    between atoms: C_1  and  C_2
REMARK    2  A    between atoms: C_5  and  S_6
REMARK    3  A    between atoms: S_6  and  N_9
REMARK    4  A    between atoms: C_16  and  N_17
REMARK    5  A    between atoms: C_18  and  C_20
REMARK    6  A    between atoms: C_20  and  N_21
REMARK    7  A    between atoms: C_23  and  C_24
REMARK                            x       y       z     vdW  Elec       q    Type
REMARK                         _______ _______ _______ _____ _____    ______ ____
ROOT
ATOM      1  C   UNL     1       2.956   7.901  17.238  0.00  0.00    +0.000 C 
ATOM      2  C   UNL     1       2.252   8.228  18.529  0.00  0.00    +0.000 A 
ATOM      3  C   UNL     1       1.697   9.520  18.645  0.00  0.00    +0.000 A 
ATOM      4  C   UNL     1       1.048   9.925  19.809  0.00  0.00    +0.000 A 
ATOM      5  C   UNL     1       0.927   9.031  20.867  0.00  0.00    +0.000 A 
ATOM      6  C   UNL     1       1.420   7.725  20.750  0.00  0.00    +0.000 A 
ATOM      7  C   UNL     1       2.132   7.319  19.608  0.00  0.00    +0.000 A 
ENDROOT
BRANCH   7   8
ATOM      8  N   UNL     1       2.734   6.031  19.530  0.00  0.00    +0.000 N 
ATOM      9  C   UNL     1       2.150   4.838  19.950  0.00  0.00    +0.000 C 
ATOM     10  O   UNL     1       1.065   4.741  20.521  0.00  0.00    +0.000 OA
ATOM     11  H   UNL     1       3.738   5.994  19.361  0.00  0.00    +0.000 HD
BRANCH   9  12
ATOM     12  C   UNL     1       3.025   3.595  19.778  0.00  0.00    +0.000 C 
BRANCH  12  13
ATOM     13  N   UNL     1       3.978   3.792  18.687  0.00  0.00    +0.000 N 
ATOM     14  C   UNL     1       5.268   4.243  18.946  0.00  0.00    +0.000 A 
ATOM     15  C   UNL     1       6.143   4.486  17.948  0.00  0.00    +0.000 A 
ATOM     16  C   UNL     1       5.738   4.180  16.586  0.00  0.00    +0.000 A 
ATOM     17  C   UNL     1       4.495   3.778  16.306  0.00  0.00    +0.000 A 
ATOM     18  C   UNL     1       3.501   3.626  17.395  0.00  0.00    +0.000 A 
ATOM     19  O   UNL     1       2.326   3.366  17.129  0.00  0.00    +0.000 OA
BRANCH  15  20
ATOM     20  C   UNL     1       7.502   5.092  18.178  0.00  0.00    +0.000 C 
ATOM     21  F   UNL     1       8.517   4.224  17.919  0.00  0.00    +0.000 F 
ATOM     22  F   UNL     1       7.707   6.172  17.379  0.00  0.00    +0.000 F 
ATOM     23  F   UNL     1       7.665   5.510  19.458  0.00  0.00    +0.000 F 
ENDBRANCH  15  20
ENDBRANCH  12  13
ENDBRANCH   9  12
ENDBRANCH   7   8
BRANCH   5  24
ATOM     24  S   UNL     1       0.059   9.538  22.344  0.00  0.00    +0.000 S 
ATOM     25  O   UNL     1      -1.036   8.607  22.532  0.00  0.00    +0.000 OA
ATOM     26  O   UNL     1       1.047   9.736  23.385  0.00  0.00    +0.000 OA
BRANCH  24  27
ATOM     27  N   UNL     1      -0.611  11.063  21.933  0.00  0.00    +0.000 NA
ATOM     28  C   UNL     1      -1.369  11.099  20.657  0.00  0.00    +0.000 C 
ATOM     29  C   UNL     1      -1.688  12.538  20.257  0.00  0.00    +0.000 C 
ATOM     30  C   UNL     1      -2.416  13.272  21.374  0.00  0.00    +0.000 C 
ATOM     31  C   UNL     1      -1.569  13.244  22.638  0.00  0.00    +0.000 C 
ATOM     32  C   UNL     1      -1.241  11.811  23.052  0.00  0.00    +0.000 C 
ENDBRANCH  24  27
ENDBRANCH   5  24
TORSDOF 6
ENDMDL
MODEL 8
REMARK VINA RESULT:      -8.0      2.472      3.385
REMARK  Name = 
REMARK  7 active torsions:
REMARK  status: ('A' for Active; 'I' for Inactive)
REMARK    1  A    between atoms: C_1  and  C_2
REMARK    2  A    between atoms: C_5  and  S_6
REMARK    3  A    between atoms: S_6  and  N_9
REMARK    4  A    between atoms: C_16  and  N_17
REMARK    5  A    between atoms: C_18  and  C_20
REMARK    6  A    between atoms: C_20  and  N_21
REMARK    7  A    between atoms: C_23  and  C_24
REMARK                            x       y       z     vdW  Elec       q    Type
REMARK                         _______ _______ _______ _____ _____    ______ ____
ROOT
ATOM      1  C   UNL     1       2.113   4.546  21.321  0.00  0.00    +0.000 C 
ATOM      2  C   UNL     1       2.025   5.849  20.570  0.00  0.00    +0.000 A 
ATOM      3  C   UNL     1       1.149   6.827  21.085  0.00  0.00    +0.000 A 
ATOM      4  C   UNL     1       0.981   8.054  20.448  0.00  0.00    +0.000 A 
ATOM      5  C   UNL     1       1.707   8.326  19.294  0.00  0.00    +0.000 A 
ATOM      6  C   UNL     1       2.625   7.391  18.797  0.00  0.00    +0.000 A 
ATOM      7  C   UNL     1       2.761   6.125  19.393  0.00  0.00    +0.000 A 
ENDROOT
BRANCH   7   8
ATOM      8  N   UNL     1       3.607   5.129  18.826  0.00  0.00    +0.000 N 
ATOM      9  C   UNL     1       3.262   4.270  17.785  0.00  0.00    +0.000 C 
ATOM     10  O   UNL     1       2.149   4.196  17.265  0.00  0.00    +0.000 OA
ATOM     11  H   UNL     1       4.442   4.872  19.350  0.00  0.00    +0.000 HD
BRANCH   9  12
ATOM     12  C   UNL     1       4.350   3.273  17.382  0.00  0.00    +0.000 C 
BRANCH  12  13
ATOM     13  N   UNL     1       5.231   3.864  16.376  0.00  0.00    +0.000 N 
ATOM     14  C   UNL     1       5.072   3.558  15.027  0.00  0.00    +0.000 A 
ATOM     15  C   UNL     1       5.911   4.048  14.091  0.00  0.00    +0.000 A 
ATOM     16  C   UNL     1       6.943   4.981  14.509  0.00  0.00    +0.000 A 
ATOM     17  C   UNL     1       7.139   5.265  15.800  0.00  0.00    +0.000 A 
ATOM     18  C   UNL     1       6.290   4.631  16.836  0.00  0.00    +0.000 A 
ATOM     19  O   UNL     1       6.540   4.802  18.031  0.00  0.00    +0.000 OA
BRANCH  15  20
ATOM     20  C   UNL     1       5.848   3.643  12.641  0.00  0.00    +0.000 C 
ATOM     21  F   UNL     1       6.785   4.268  11.879  0.00  0.00    +0.000 F 
ATOM     22  F   UNL     1       6.056   2.309  12.488  0.00  0.00    +0.000 F 
ATOM     23  F   UNL     1       4.644   3.922  12.084  0.00  0.00    +0.000 F 
ENDBRANCH  15  20
ENDBRANCH  12  13
ENDBRANCH   9  12
ENDBRANCH   7   8
BRANCH   5  24
ATOM     24  S   UNL     1       1.521   9.916  18.500  0.00  0.00    +0.000 S 
ATOM     25  O   UNL     1       2.177  10.891  19.348  0.00  0.00    +0.000 OA
ATOM     26  O   UNL     1       1.912   9.760  17.114  0.00  0.00    +0.000 OA
BRANCH  24  27
ATOM     27  N   UNL     1      -0.167  10.218  18.557  0.00  0.00    +0.000 NA
ATOM     28  C   UNL     1      -0.554  11.552  19.082  0.00  0.00    +0.000 C 
ATOM     29  C   UNL     1      -2.058  11.617  19.340  0.00  0.00    +0.000 C 
ATOM     30  C   UNL     1      -2.848  11.242  18.094  0.00  0.00    +0.000 C 
ATOM     31  C   UNL     1      -2.444   9.848  17.635  0.00  0.00    +0.000 C 
ATOM     32  C   UNL     1      -0.942   9.767  17.373  0.00  0.00    +0.000 C 
ENDBRANCH  24  27
ENDBRANCH   5  24
TORSDOF 6
ENDMDL
MODEL 9
REMARK VINA RESULT:      -8.0      2.356      3.168
REMARK  Name = 
REMARK  7 active torsions:
REMARK  status: ('A' for Active; 'I' for Inactive)
REMARK    1  A    between atoms: C_1  and  C_2
REMARK    2  A    between atoms: C_5  and  S_6
REMARK    3  A    between atoms: S_6  and  N_9
REMARK    4  A    between atoms: C_16  and  N_17
REMARK    5  A    between atoms: C_18  and  C_20
REMARK    6  A    between atoms: C_20  and  N_21
REMARK    7  A    between atoms: C_23  and  C_24
REMARK                            x       y       z     vdW  Elec       q    Type
REMARK                         _______ _______ _______ _____ _____    ______ ____
ROOT
ATOM      1  C   UNL     1       2.336   4.600  21.353  0.00  0.00    +0.000 C 
ATOM      2  C   UNL     1       2.146   5.853  20.539  0.00  0.00    +0.000 A 
ATOM      3  C   UNL     1       1.259   6.822  21.054  0.00  0.00    +0.000 A 
ATOM      4  C   UNL     1       0.998   8.002  20.363  0.00  0.00    +0.000 A 
ATOM      5  C   UNL     1       1.642   8.239  19.152  0.00  0.00    +0.000 A 
ATOM      6  C   UNL     1       2.569   7.316  18.652  0.00  0.00    +0.000 A 
ATOM      7  C   UNL     1       2.797   6.092  19.305  0.00  0.00    +0.000 A 
ENDROOT
BRANCH   7   8
ATOM      8  N   UNL     1       3.652   5.101  18.741  0.00  0.00    +0.000 N 
ATOM      9  C   UNL     1       3.298   4.204  17.736  0.00  0.00    +0.000 C 
ATOM     10  O   UNL     1       2.173   4.088  17.251  0.00  0.00    +0.000 OA
ATOM     11  H   UNL     1       4.508   4.881  19.247  0.00  0.00    +0.000 HD
BRANCH   9  12
ATOM     12  C   UNL     1       4.399   3.224  17.328  0.00  0.00    +0.000 C 
BRANCH  12  13
ATOM     13  N   UNL     1       5.260   3.823  16.310  0.00  0.00    +0.000 N 
ATOM     14  C   UNL     1       5.085   3.516  14.964  0.00  0.00    +0.000 A 
ATOM     15  C   UNL     1       5.906   4.014  14.016  0.00  0.00    +0.000 A 
ATOM     16  C   UNL     1       6.936   4.957  14.420  0.00  0.00    +0.000 A 
ATOM     17  C   UNL     1       7.148   5.242  15.709  0.00  0.00    +0.000 A 
ATOM     18  C   UNL     1       6.318   4.600  16.756  0.00  0.00    +0.000 A 
ATOM     19  O   UNL     1       6.584   4.772  17.947  0.00  0.00    +0.000 OA
BRANCH  15  20
ATOM     20  C   UNL     1       5.827   3.609  12.568  0.00  0.00    +0.000 C 
ATOM     21  F   UNL     1       4.625   3.901  12.004  0.00  0.00    +0.000 F 
ATOM     22  F   UNL     1       6.766   4.245  11.821  0.00  0.00    +0.000 F 
ATOM     23  F   UNL     1       6.022   2.277  12.398  0.00  0.00    +0.000 F 
ENDBRANCH  15  20
ENDBRANCH  12  13
ENDBRANCH   9  12
ENDBRANCH   7   8
BRANCH   5  24
ATOM     24  S   UNL     1       1.337   9.772  18.287  0.00  0.00    +0.000 S 
ATOM     25  O   UNL     1       2.537  10.078  17.534  0.00  0.00    +0.000 OA
ATOM     26  O   UNL     1       0.058   9.649  17.618  0.00  0.00    +0.000 OA
BRANCH  24  27
ATOM     27  N   UNL     1       1.188  10.937  19.537  0.00  0.00    +0.000 NA
ATOM     28  C   UNL     1       1.906  12.215  19.301  0.00  0.00    +0.000 C 
ATOM     29  C   UNL     1       1.931  13.065  20.569  0.00  0.00    +0.000 C 
ATOM     30  C   UNL     1       0.526  13.290  21.110  0.00  0.00    +0.000 C 
ATOM     31  C   UNL     1      -0.138  11.948  21.378  0.00  0.00    +0.000 C 
ATOM     32  C   UNL     1      -0.171  11.085  20.118  0.00  0.00    +0.000 C 
ENDBRANCH  24  27
ENDBRANCH   5  24
TORSDOF 6
ENDMDL
