MODEL 1
REMARK VINA RESULT:      -7.5      0.000      0.000
REMARK  Name = 
REMARK  4 active torsions:
REMARK  status: ('A' for Active; 'I' for Inactive)
REMARK    1  A    between atoms: C_1  and  C_2
REMARK    2  A    between atoms: N_4  and  C_5
REMARK    3  A    between atoms: C_14  and  C_15
REMARK    4  A    between atoms: C_19  and  C_20
REMARK                            x       y       z     vdW  Elec       q    Type
REMARK                         _______ _______ _______ _____ _____    ______ ____
ROOT
ATOM      1  C   UNL     1       3.459   4.221  19.271  0.00  0.00    +0.000 A 
ATOM      2  C   UNL     1       4.338   3.624  18.360  0.00  0.00    +0.000 A 
ATOM      3  C   UNL     1       4.819   4.322  17.226  0.00  0.00    +0.000 A 
ATOM      4  C   UNL     1       4.439   5.640  16.958  0.00  0.00    +0.000 A 
ATOM      5  C   UNL     1       3.556   6.220  17.838  0.00  0.00    +0.000 A 
ATOM      6  C   UNL     1       3.064   5.513  18.967  0.00  0.00    +0.000 A 
ATOM      7  C   UNL     1       2.142   6.417  19.729  0.00  0.00    +0.000 C 
ATOM      8  O   UNL     1       1.537   6.097  20.736  0.00  0.00    +0.000 OA
ATOM      9  C   UNL     1       2.156   7.664  18.997  0.00  0.00    +0.000 A 
ATOM     10  C   UNL     1       1.681   8.980  18.940  0.00  0.00    +0.000 A 
ATOM     11  N   UNL     1       2.184   9.606  17.848  0.00  0.00    +0.000 NA
ATOM     12  N   UNL     1       2.979   8.691  17.242  0.00  0.00    +0.000 N 
ATOM     13  C   UNL     1       2.973   7.523  17.903  0.00  0.00    +0.000 A 
ATOM     14  H   UNL     1       3.473   8.959  16.396  0.00  0.00    +0.000 HD
ENDROOT
BRANCH  10  15
ATOM     15  C   UNL     1       0.754   9.668  19.912  0.00  0.00    +0.000 A 
ATOM     16  S   UNL     1       1.054   9.701  21.601  0.00  0.00    +0.000 S 
ATOM     17  C   UNL     1      -0.351  10.599  21.921  0.00  0.00    +0.000 A 
ATOM     18  C   UNL     1      -1.047  10.879  20.769  0.00  0.00    +0.000 A 
ATOM     19  C   UNL     1      -0.418  10.346  19.588  0.00  0.00    +0.000 A 
ATOM     20  C   UNL     1      -1.001  10.523  18.223  0.00  0.00    +0.000 C 
ENDBRANCH  10  15
BRANCH   1  24
ATOM     21  C   UNL     1       1.579   2.353  21.960  0.00  0.00    +0.000 C 
ATOM     22  C   UNL     1       1.827   2.850  20.559  0.00  0.00    +0.000 C 
ATOM     23  O   UNL     1       1.044   2.585  19.653  0.00  0.00    +0.000 OA
ATOM     24  N   UNL     1       2.984   3.597  20.446  0.00  0.00    +0.000 N 
ATOM     25  H   UNL     1       3.625   3.599  21.241  0.00  0.00    +0.000 HD
ENDBRANCH   1  24
TORSDOF 2
ENDMDL
MODEL 2
REMARK VINA RESULT:      -7.4      2.871      7.172
REMARK  Name = 
REMARK  4 active torsions:
REMARK  status: ('A' for Active; 'I' for Inactive)
REMARK    1  A    between atoms: C_1  and  C_2
REMARK    2  A    between atoms: N_4  and  C_5
REMARK    3  A    between atoms: C_14  and  C_15
REMARK    4  A    between atoms: C_19  and  C_20
REMARK                            x       y       z     vdW  Elec       q    Type
REMARK                         _______ _______ _______ _____ _____    ______ ____
ROOT
ATOM      1  C   UNL     1       0.763  10.438  20.029  0.00  0.00    +0.000 A 
ATOM      2  C   UNL     1      -0.028  10.728  21.147  0.00  0.00    +0.000 A 
ATOM      3  C   UNL     1      -0.282   9.761  22.148  0.00  0.00    +0.000 A 
ATOM      4  C   UNL     1       0.242   8.467  22.070  0.00  0.00    +0.000 A 
ATOM      5  C   UNL     1       0.997   8.172  20.960  0.00  0.00    +0.000 A 
ATOM      6  C   UNL     1       1.238   9.140  19.950  0.00  0.00    +0.000 A 
ATOM      7  C   UNL     1       2.101   8.519  18.892  0.00  0.00    +0.000 C 
ATOM      8  O   UNL     1       2.464   9.084  17.877  0.00  0.00    +0.000 OA
ATOM      9  C   UNL     1       2.353   7.174  19.361  0.00  0.00    +0.000 A 
ATOM     10  C   UNL     1       3.001   5.959  19.106  0.00  0.00    +0.000 A 
ATOM     11  N   UNL     1       2.739   5.078  20.101  0.00  0.00    +0.000 NA
ATOM     12  N   UNL     1       1.948   5.744  20.976  0.00  0.00    +0.000 N 
ATOM     13  C   UNL     1       1.697   6.994  20.554  0.00  0.00    +0.000 A 
ATOM     14  H   UNL     1       1.638   5.266  21.816  0.00  0.00    +0.000 HD
ENDROOT
BRANCH  10  15
ATOM     15  C   UNL     1       3.880   5.614  17.928  0.00  0.00    +0.000 A 
ATOM     16  S   UNL     1       5.150   6.638  17.397  0.00  0.00    +0.000 S 
ATOM     17  C   UNL     1       5.587   5.587  16.138  0.00  0.00    +0.000 A 
ATOM     18  C   UNL     1       4.789   4.469  16.111  0.00  0.00    +0.000 A 
ATOM     19  C   UNL     1       3.789   4.466  17.147  0.00  0.00    +0.000 A 
ATOM     20  C   UNL     1       2.805   3.351  17.304  0.00  0.00    +0.000 C 
ENDBRANCH  10  15
BRANCH   1  24
ATOM     21  C   UNL     1       1.969  13.339  17.935  0.00  0.00    +0.000 C 
ATOM     22  C   UNL     1       1.821  12.535  19.201  0.00  0.00    +0.000 C 
ATOM     23  O   UNL     1       2.319  12.925  20.252  0.00  0.00    +0.000 OA
ATOM     24  N   UNL     1       1.094  11.373  19.023  0.00  0.00    +0.000 N 
ATOM     25  H   UNL     1       0.882  11.090  18.065  0.00  0.00    +0.000 HD
ENDBRANCH   1  24
TORSDOF 2
ENDMDL
MODEL 3
REMARK VINA RESULT:      -7.3      0.948      1.181
REMARK  Name = 
REMARK  4 active torsions:
REMARK  status: ('A' for Active; 'I' for Inactive)
REMARK    1  A    between atoms: C_1  and  C_2
REMARK    2  A    between atoms: N_4  and  C_5
REMARK    3  A    between atoms: C_14  and  C_15
REMARK    4  A    between atoms: C_19  and  C_20
REMARK                            x       y       z     vdW  Elec       q    Type
REMARK                         _______ _______ _______ _____ _____    ______ ____
ROOT
ATOM      1  C   UNL     1       3.274   5.241  19.128  0.00  0.00    +0.000 A 
ATOM      2  C   UNL     1       4.102   4.842  18.073  0.00  0.00    +0.000 A 
ATOM      3  C   UNL     1       4.408   5.712  16.999  0.00  0.00    +0.000 A 
ATOM      4  C   UNL     1       3.897   7.012  16.937  0.00  0.00    +0.000 A 
ATOM      5  C   UNL     1       3.062   7.397  17.960  0.00  0.00    +0.000 A 
ATOM      6  C   UNL     1       2.746   6.517  19.028  0.00  0.00    +0.000 A 
ATOM      7  C   UNL     1       1.834   7.233  19.979  0.00  0.00    +0.000 C 
ATOM      8  O   UNL     1       1.362   6.740  20.987  0.00  0.00    +0.000 OA
ATOM      9  C   UNL     1       1.673   8.555  19.414  0.00  0.00    +0.000 A 
ATOM     10  C   UNL     1       1.088   9.818  19.569  0.00  0.00    +0.000 A 
ATOM     11  N   UNL     1       1.427  10.614  18.525  0.00  0.00    +0.000 NA
ATOM     12  N   UNL     1       2.228   9.857  17.738  0.00  0.00    +0.000 N 
ATOM     13  C   UNL     1       2.384   8.622  18.243  0.00  0.00    +0.000 A 
ATOM     14  H   UNL     1       2.612  10.269  16.893  0.00  0.00    +0.000 HD
ENDROOT
BRANCH  10  15
ATOM     15  C   UNL     1       0.211  10.296  20.700  0.00  0.00    +0.000 A 
ATOM     16  S   UNL     1       0.415   9.751  22.314  0.00  0.00    +0.000 S 
ATOM     17  C   UNL     1      -0.870  10.701  22.889  0.00  0.00    +0.000 A 
ATOM     18  C   UNL     1      -1.453  11.428  21.879  0.00  0.00    +0.000 A 
ATOM     19  C   UNL     1      -0.837  11.206  20.597  0.00  0.00    +0.000 A 
ATOM     20  C   UNL     1      -1.312  11.887  19.354  0.00  0.00    +0.000 C 
ENDBRANCH  10  15
BRANCH   1  24
ATOM     21  C   UNL     1       1.872   2.843  21.685  0.00  0.00    +0.000 C 
ATOM     22  C   UNL     1       1.958   3.504  20.333  0.00  0.00    +0.000 C 
ATOM     23  O   UNL     1       1.179   3.198  19.437  0.00  0.00    +0.000 OA
ATOM     24  N   UNL     1       2.972   4.439  20.251  0.00  0.00    +0.000 N 
ATOM     25  H   UNL     1       3.647   4.473  21.017  0.00  0.00    +0.000 HD
ENDBRANCH   1  24
TORSDOF 2
ENDMDL
MODEL 4
REMARK VINA RESULT:      -7.1      2.455      3.874
REMARK  Name = 
REMARK  4 active torsions:
REMARK  status: ('A' for Active; 'I' for Inactive)
REMARK    1  A    between atoms: C_1  and  C_2
REMARK    2  A    between atoms: N_4  and  C_5
REMARK    3  A    between atoms: C_14  and  C_15
REMARK    4  A    between atoms: C_19  and  C_20
REMARK                            x       y       z     vdW  Elec       q    Type
REMARK                         _______ _______ _______ _____ _____    ______ ____
ROOT
ATOM      1  C   UNL     1       3.195   5.677  18.538  0.00  0.00    +0.000 A 
ATOM      2  C   UNL     1       3.307   4.440  19.184  0.00  0.00    +0.000 A 
ATOM      3  C   UNL     1       2.703   4.202  20.442  0.00  0.00    +0.000 A 
ATOM      4  C   UNL     1       1.967   5.191  21.103  0.00  0.00    +0.000 A 
ATOM      5  C   UNL     1       1.878   6.414  20.482  0.00  0.00    +0.000 A 
ATOM      6  C   UNL     1       2.496   6.654  19.227  0.00  0.00    +0.000 A 
ATOM      7  C   UNL     1       2.203   8.066  18.815  0.00  0.00    +0.000 C 
ATOM      8  O   UNL     1       2.615   8.587  17.795  0.00  0.00    +0.000 OA
ATOM      9  C   UNL     1       1.376   8.598  19.876  0.00  0.00    +0.000 A 
ATOM     10  C   UNL     1       0.658   9.707  20.340  0.00  0.00    +0.000 A 
ATOM     11  N   UNL     1       0.088   9.419  21.536  0.00  0.00    +0.000 NA
ATOM     12  N   UNL     1       0.436   8.138  21.804  0.00  0.00    +0.000 N 
ATOM     13  C   UNL     1       1.210   7.628  20.832  0.00  0.00    +0.000 A 
ATOM     14  H   UNL     1       0.099   7.710  22.661  0.00  0.00    +0.000 HD
ENDROOT
BRANCH  10  15
ATOM     15  C   UNL     1       0.493  11.046  19.665  0.00  0.00    +0.000 A 
ATOM     16  S   UNL     1       1.428  12.417  20.101  0.00  0.00    +0.000 S 
ATOM     17  C   UNL     1       0.669  13.408  18.951  0.00  0.00    +0.000 A 
ATOM     18  C   UNL     1      -0.282  12.720  18.236  0.00  0.00    +0.000 A 
ATOM     19  C   UNL     1      -0.399  11.342  18.638  0.00  0.00    +0.000 A 
ATOM     20  C   UNL     1      -1.375  10.404  18.002  0.00  0.00    +0.000 C 
ENDBRANCH  10  15
BRANCH   1  24
ATOM     21  C   UNL     1       5.293   6.552  15.524  0.00  0.00    +0.000 C 
ATOM     22  C   UNL     1       5.050   6.258  16.981  0.00  0.00    +0.000 C 
ATOM     23  O   UNL     1       5.972   6.295  17.789  0.00  0.00    +0.000 OA
ATOM     24  N   UNL     1       3.730   5.960  17.262  0.00  0.00    +0.000 N 
ATOM     25  H   UNL     1       3.103   5.803  16.471  0.00  0.00    +0.000 HD
ENDBRANCH   1  24
TORSDOF 2
ENDMDL
MODEL 5
REMARK VINA RESULT:      -7.1      0.884      1.363
REMARK  Name = 
REMARK  4 active torsions:
REMARK  status: ('A' for Active; 'I' for Inactive)
REMARK    1  A    between atoms: C_1  and  C_2
REMARK    2  A    between atoms: N_4  and  C_5
REMARK    3  A    between atoms: C_14  and  C_15
REMARK    4  A    between atoms: C_19  and  C_20
REMARK                            x       y       z     vdW  Elec       q    Type
REMARK                         _______ _______ _______ _____ _____    ______ ____
ROOT
ATOM      1  C   UNL     1       3.402   4.381  19.310  0.00  0.00    +0.000 A 
ATOM      2  C   UNL     1       4.310   3.798  18.419  0.00  0.00    +0.000 A 
ATOM      3  C   UNL     1       4.811   4.506  17.300  0.00  0.00    +0.000 A 
ATOM      4  C   UNL     1       4.422   5.821  17.028  0.00  0.00    +0.000 A 
ATOM      5  C   UNL     1       3.510   6.386  17.888  0.00  0.00    +0.000 A 
ATOM      6  C   UNL     1       2.999   5.668  19.001  0.00  0.00    +0.000 A 
ATOM      7  C   UNL     1       2.047   6.559  19.743  0.00  0.00    +0.000 C 
ATOM      8  O   UNL     1       1.421   6.227  20.733  0.00  0.00    +0.000 OA
ATOM      9  C   UNL     1       2.064   7.809  19.017  0.00  0.00    +0.000 A 
ATOM     10  C   UNL     1       1.575   9.120  18.953  0.00  0.00    +0.000 A 
ATOM     11  N   UNL     1       2.098   9.756  17.876  0.00  0.00    +0.000 NA
ATOM     12  N   UNL     1       2.919   8.853  17.286  0.00  0.00    +0.000 N 
ATOM     13  C   UNL     1       2.910   7.682  17.943  0.00  0.00    +0.000 A 
ATOM     14  H   UNL     1       3.431   9.131  16.454  0.00  0.00    +0.000 HD
ENDROOT
BRANCH  10  15
ATOM     15  C   UNL     1       0.616   9.792  19.904  0.00  0.00    +0.000 A 
ATOM     16  S   UNL     1      -0.756  10.668  19.360  0.00  0.00    +0.000 S 
ATOM     17  C   UNL     1      -1.241  11.057  20.939  0.00  0.00    +0.000 A 
ATOM     18  C   UNL     1      -0.384  10.534  21.877  0.00  0.00    +0.000 A 
ATOM     19  C   UNL     1       0.704   9.793  21.293  0.00  0.00    +0.000 A 
ATOM     20  C   UNL     1       1.763   9.140  22.123  0.00  0.00    +0.000 C 
ENDBRANCH  10  15
BRANCH   1  24
ATOM     21  C   UNL     1       1.505   2.435  21.931  0.00  0.00    +0.000 C 
ATOM     22  C   UNL     1       1.797   2.923  20.535  0.00  0.00    +0.000 C 
ATOM     23  O   UNL     1       1.086   2.589  19.594  0.00  0.00    +0.000 OA
ATOM     24  N   UNL     1       2.905   3.746  20.470  0.00  0.00    +0.000 N 
ATOM     25  H   UNL     1       3.499   3.806  21.299  0.00  0.00    +0.000 HD
ENDBRANCH   1  24
TORSDOF 2
ENDMDL
MODEL 6
REMARK VINA RESULT:      -7.0      1.222      1.794
REMARK  Name = 
REMARK  4 active torsions:
REMARK  status: ('A' for Active; 'I' for Inactive)
REMARK    1  A    between atoms: C_1  and  C_2
REMARK    2  A    between atoms: N_4  and  C_5
REMARK    3  A    between atoms: C_14  and  C_15
REMARK    4  A    between atoms: C_19  and  C_20
REMARK                            x       y       z     vdW  Elec       q    Type
REMARK                         _______ _______ _______ _____ _____    ______ ____
ROOT
ATOM      1  C   UNL     1       3.190   5.318  19.160  0.00  0.00    +0.000 A 
ATOM      2  C   UNL     1       4.041   4.892  18.135  0.00  0.00    +0.000 A 
ATOM      3  C   UNL     1       4.395   5.744  17.061  0.00  0.00    +0.000 A 
ATOM      4  C   UNL     1       3.910   7.053  16.971  0.00  0.00    +0.000 A 
ATOM      5  C   UNL     1       3.054   7.464  17.965  0.00  0.00    +0.000 A 
ATOM      6  C   UNL     1       2.690   6.602  19.032  0.00  0.00    +0.000 A 
ATOM      7  C   UNL     1       1.765   7.345  19.949  0.00  0.00    +0.000 C 
ATOM      8  O   UNL     1       1.254   6.872  20.948  0.00  0.00    +0.000 OA
ATOM      9  C   UNL     1       1.645   8.664  19.366  0.00  0.00    +0.000 A 
ATOM     10  C   UNL     1       1.080   9.939  19.491  0.00  0.00    +0.000 A 
ATOM     11  N   UNL     1       1.464  10.717  18.449  0.00  0.00    +0.000 NA
ATOM     12  N   UNL     1       2.273   9.937  17.694  0.00  0.00    +0.000 N 
ATOM     13  C   UNL     1       2.391   8.705  18.215  0.00  0.00    +0.000 A 
ATOM     14  H   UNL     1       2.689  10.333  16.856  0.00  0.00    +0.000 HD
ENDROOT
BRANCH  10  15
ATOM     15  C   UNL     1       0.179  10.445  20.591  0.00  0.00    +0.000 A 
ATOM     16  S   UNL     1      -1.214  11.395  20.275  0.00  0.00    +0.000 S 
ATOM     17  C   UNL     1      -1.609  11.519  21.921  0.00  0.00    +0.000 A 
ATOM     18  C   UNL     1      -0.705  10.851  22.711  0.00  0.00    +0.000 A 
ATOM     19  C   UNL     1       0.344  10.218  21.954  0.00  0.00    +0.000 A 
ATOM     20  C   UNL     1       1.442   9.440  22.607  0.00  0.00    +0.000 C 
ENDBRANCH  10  15
BRANCH   1  24
ATOM     21  C   UNL     1       1.707   2.929  21.680  0.00  0.00    +0.000 C 
ATOM     22  C   UNL     1       1.864   3.557  20.320  0.00  0.00    +0.000 C 
ATOM     23  O   UNL     1       1.166   3.194  19.379  0.00  0.00    +0.000 OA
ATOM     24  N   UNL     1       2.841   4.534  20.283  0.00  0.00    +0.000 N 
ATOM     25  H   UNL     1       3.456   4.617  21.093  0.00  0.00    +0.000 HD
ENDBRANCH   1  24
TORSDOF 2
ENDMDL
MODEL 7
REMARK VINA RESULT:      -6.9      6.355      8.386
REMARK  Name = 
REMARK  4 active torsions:
REMARK  status: ('A' for Active; 'I' for Inactive)
REMARK    1  A    between atoms: C_1  and  C_2
REMARK    2  A    between atoms: N_4  and  C_5
REMARK    3  A    between atoms: C_14  and  C_15
REMARK    4  A    between atoms: C_19  and  C_20
REMARK                            x       y       z     vdW  Elec       q    Type
REMARK                         _______ _______ _______ _____ _____    ______ ____
ROOT
ATOM      1  C   UNL     1      -3.639  11.506  17.808  0.00  0.00    +0.000 A 
ATOM      2  C   UNL     1      -3.165  10.598  16.855  0.00  0.00    +0.000 A 
ATOM      3  C   UNL     1      -1.926   9.933  17.015  0.00  0.00    +0.000 A 
ATOM      4  C   UNL     1      -1.113  10.152  18.131  0.00  0.00    +0.000 A 
ATOM      5  C   UNL     1      -1.565  11.063  19.056  0.00  0.00    +0.000 A 
ATOM      6  C   UNL     1      -2.802  11.740  18.885  0.00  0.00    +0.000 A 
ATOM      7  C   UNL     1      -3.014  12.645  20.062  0.00  0.00    +0.000 C 
ATOM      8  O   UNL     1      -3.973  13.382  20.202  0.00  0.00    +0.000 OA
ATOM      9  C   UNL     1      -1.861  12.432  20.908  0.00  0.00    +0.000 A 
ATOM     10  C   UNL     1      -1.227  12.768  22.111  0.00  0.00    +0.000 A 
ATOM     11  N   UNL     1      -0.057  12.092  22.220  0.00  0.00    +0.000 NA
ATOM     12  N   UNL     1       0.027  11.330  21.104  0.00  0.00    +0.000 N 
ATOM     13  C   UNL     1      -1.033  11.521  20.301  0.00  0.00    +0.000 A 
ATOM     14  H   UNL     1       0.834  10.725  20.986  0.00  0.00    +0.000 HD
ENDROOT
BRANCH  10  15
ATOM     15  C   UNL     1      -1.715  13.722  23.174  0.00  0.00    +0.000 A 
ATOM     16  S   UNL     1      -0.913  15.199  23.521  0.00  0.00    +0.000 S 
ATOM     17  C   UNL     1      -2.024  15.616  24.734  0.00  0.00    +0.000 A 
ATOM     18  C   UNL     1      -2.998  14.658  24.882  0.00  0.00    +0.000 A 
ATOM     19  C   UNL     1      -2.834  13.547  23.981  0.00  0.00    +0.000 A 
ATOM     20  C   UNL     1      -3.773  12.383  23.970  0.00  0.00    +0.000 C 
ENDBRANCH  10  15
BRANCH   1  24
ATOM     21  C   UNL     1      -7.264  12.562  17.825  0.00  0.00    +0.000 C 
ATOM     22  C   UNL     1      -6.115  11.615  18.056  0.00  0.00    +0.000 C 
ATOM     23  O   UNL     1      -6.313  10.485  18.491  0.00  0.00    +0.000 OA
ATOM     24  N   UNL     1      -4.888  12.162  17.731  0.00  0.00    +0.000 N 
ATOM     25  H   UNL     1      -4.854  13.165  17.540  0.00  0.00    +0.000 HD
ENDBRANCH   1  24
TORSDOF 2
ENDMDL
MODEL 8
REMARK VINA RESULT:      -6.8      3.061      7.627
REMARK  Name = 
REMARK  4 active torsions:
REMARK  status: ('A' for Active; 'I' for Inactive)
REMARK    1  A    between atoms: C_1  and  C_2
REMARK    2  A    between atoms: N_4  and  C_5
REMARK    3  A    between atoms: C_14  and  C_15
REMARK    4  A    between atoms: C_19  and  C_20
REMARK                            x       y       z     vdW  Elec       q    Type
REMARK                         _______ _______ _______ _____ _____    ______ ____
ROOT
ATOM      1  C   UNL     1      -2.079  11.948  19.070  0.00  0.00    +0.000 A 
ATOM      2  C   UNL     1      -2.698  12.851  19.942  0.00  0.00    +0.000 A 
ATOM      3  C   UNL     1      -2.390  12.878  21.323  0.00  0.00    +0.000 A 
ATOM      4  C   UNL     1      -1.455  12.004  21.885  0.00  0.00    +0.000 A 
ATOM      5  C   UNL     1      -0.866  11.099  21.035  0.00  0.00    +0.000 A 
ATOM      6  C   UNL     1      -1.187  11.064  19.653  0.00  0.00    +0.000 A 
ATOM      7  C   UNL     1      -0.371   9.987  19.002  0.00  0.00    +0.000 C 
ATOM      8  O   UNL     1      -0.435   9.688  17.824  0.00  0.00    +0.000 OA
ATOM      9  C   UNL     1       0.436   9.437  20.069  0.00  0.00    +0.000 A 
ATOM     10  C   UNL     1       1.423   8.505  20.414  0.00  0.00    +0.000 A 
ATOM     11  N   UNL     1       1.690   8.586  21.741  0.00  0.00    +0.000 NA
ATOM     12  N   UNL     1       0.889   9.571  22.212  0.00  0.00    +0.000 N 
ATOM     13  C   UNL     1       0.126  10.090  21.236  0.00  0.00    +0.000 A 
ATOM     14  H   UNL     1       0.938   9.810  23.198  0.00  0.00    +0.000 HD
ENDROOT
BRANCH  10  15
ATOM     15  C   UNL     1       2.130   7.533  19.502  0.00  0.00    +0.000 A 
ATOM     16  S   UNL     1       2.866   8.021  18.031  0.00  0.00    +0.000 S 
ATOM     17  C   UNL     1       3.384   6.446  17.667  0.00  0.00    +0.000 A 
ATOM     18  C   UNL     1       3.013   5.552  18.643  0.00  0.00    +0.000 A 
ATOM     19  C   UNL     1       2.282   6.167  19.721  0.00  0.00    +0.000 A 
ATOM     20  C   UNL     1       1.772   5.384  20.888  0.00  0.00    +0.000 C 
ENDBRANCH  10  15
BRANCH   1  24
ATOM     21  C   UNL     1      -3.230  11.300  15.532  0.00  0.00    +0.000 C 
ATOM     22  C   UNL     1      -3.275  11.160  17.032  0.00  0.00    +0.000 C 
ATOM     23  O   UNL     1      -4.113  10.442  17.568  0.00  0.00    +0.000 OA
ATOM     24  N   UNL     1      -2.305  11.904  17.676  0.00  0.00    +0.000 N 
ATOM     25  H   UNL     1      -1.784  12.583  17.119  0.00  0.00    +0.000 HD
ENDBRANCH   1  24
TORSDOF 2
ENDMDL
MODEL 9
REMARK VINA RESULT:      -6.7      3.128      7.559
REMARK  Name = 
REMARK  4 active torsions:
REMARK  status: ('A' for Active; 'I' for Inactive)
REMARK    1  A    between atoms: C_1  and  C_2
REMARK    2  A    between atoms: N_4  and  C_5
REMARK    3  A    between atoms: C_14  and  C_15
REMARK    4  A    between atoms: C_19  and  C_20
REMARK                            x       y       z     vdW  Elec       q    Type
REMARK                         _______ _______ _______ _____ _____    ______ ____
ROOT
ATOM      1  C   UNL     1      -2.007  12.072  19.019  0.00  0.00    +0.000 A 
ATOM      2  C   UNL     1      -2.559  13.091  19.804  0.00  0.00    +0.000 A 
ATOM      3  C   UNL     1      -2.247  13.222  21.178  0.00  0.00    +0.000 A 
ATOM      4  C   UNL     1      -1.373  12.339  21.820  0.00  0.00    +0.000 A 
ATOM      5  C   UNL     1      -0.850  11.322  21.058  0.00  0.00    +0.000 A 
ATOM      6  C   UNL     1      -1.177  11.185  19.683  0.00  0.00    +0.000 A 
ATOM      7  C   UNL     1      -0.440   9.999  19.135  0.00  0.00    +0.000 C 
ATOM      8  O   UNL     1      -0.527   9.600  17.988  0.00  0.00    +0.000 OA
ATOM      9  C   UNL     1       0.330   9.493  20.250  0.00  0.00    +0.000 A 
ATOM     10  C   UNL     1       1.251   8.530  20.681  0.00  0.00    +0.000 A 
ATOM     11  N   UNL     1       1.527   8.712  21.996  0.00  0.00    +0.000 NA
ATOM     12  N   UNL     1       0.797   9.789  22.373  0.00  0.00    +0.000 N 
ATOM     13  C   UNL     1       0.069  10.269  21.352  0.00  0.00    +0.000 A 
ATOM     14  H   UNL     1       0.865  10.111  23.334  0.00  0.00    +0.000 HD
ENDROOT
BRANCH  10  15
ATOM     15  C   UNL     1       1.887   7.432  19.864  0.00  0.00    +0.000 A 
ATOM     16  S   UNL     1       1.934   5.801  20.394  0.00  0.00    +0.000 S 
ATOM     17  C   UNL     1       2.752   5.281  19.000  0.00  0.00    +0.000 A 
ATOM     18  C   UNL     1       2.990   6.322  18.135  0.00  0.00    +0.000 A 
ATOM     19  C   UNL     1       2.493   7.583  18.620  0.00  0.00    +0.000 A 
ATOM     20  C   UNL     1       2.647   8.853  17.846  0.00  0.00    +0.000 C 
ENDBRANCH  10  15
BRANCH   1  24
ATOM     21  C   UNL     1      -3.205  11.183  15.550  0.00  0.00    +0.000 C 
ATOM     22  C   UNL     1      -3.254  11.179  17.057  0.00  0.00    +0.000 C 
ATOM     23  O   UNL     1      -4.132  10.564  17.652  0.00  0.00    +0.000 OA
ATOM     24  N   UNL     1      -2.239  11.919  17.634  0.00  0.00    +0.000 N 
ATOM     25  H   UNL     1      -1.680  12.513  17.020  0.00  0.00    +0.000 HD
ENDBRANCH   1  24
TORSDOF 2
ENDMDL
