MODEL 1
REMARK VINA RESULT:      -8.4      0.000      0.000
REMARK  Name = 
REMARK  5 active torsions:
REMARK  status: ('A' for Active; 'I' for Inactive)
REMARK    1  A    between atoms: C_1  and  C_2
REMARK    2  A    between atoms: C_5  and  C_6
REMARK    3  A    between atoms: C_7  and  C_8
REMARK    4  A    between atoms: N_9  and  N_10
REMARK    5  A    between atoms: N_10  and  C_11
REMARK                            x       y       z     vdW  Elec       q    Type
REMARK                         _______ _______ _______ _____ _____    ______ ____
ROOT
ATOM      1  N   UNL     1       2.961   3.189  17.132  0.00  0.00    +0.000 N 
ATOM      2  H   UNL     1       3.083   2.200  16.913  0.00  0.00    +0.000 HD
ENDROOT
BRANCH   1   3
ATOM      3  C   UNL     1       2.435   3.373  18.443  0.00  0.00    +0.000 A 
ATOM      4  C   UNL     1       2.133   2.271  19.246  0.00  0.00    +0.000 A 
ATOM      5  C   UNL     1       1.657   2.489  20.523  0.00  0.00    +0.000 A 
ATOM      6  N   UNL     1       1.468   3.712  21.053  0.00  0.00    +0.000 NA
ATOM      7  C   UNL     1       1.754   4.779  20.295  0.00  0.00    +0.000 A 
ATOM      8  C   UNL     1       1.584   6.033  20.863  0.00  0.00    +0.000 A 
ATOM      9  C   UNL     1       1.861   7.195  20.145  0.00  0.00    +0.000 A 
ATOM     10 CL   UNL     1       1.648   8.732  20.891  0.00  0.00    +0.000 Cl
ATOM     11  C   UNL     1       2.315   7.120  18.840  0.00  0.00    +0.000 A 
ATOM     12  C   UNL     1       2.496   5.868  18.249  0.00  0.00    +0.000 A 
ATOM     13  C   UNL     1       2.225   4.676  18.966  0.00  0.00    +0.000 A 
ENDBRANCH   1   3
BRANCH   1  15
ATOM     14  C   UNL     1       5.098   3.620  16.540  0.00  0.00    +0.000 C 
ATOM     15  N   UNL     1       3.904   4.085  16.716  0.00  0.00    +0.000 NA
BRANCH  14  22
ATOM     16  C   UNL     1       6.237   3.795  13.460  0.00  0.00    +0.000 C 
ATOM     17  C   UNL     1       6.618   4.579  14.659  0.00  0.00    +0.000 A 
ATOM     18  N   UNL     1       7.576   5.510  14.564  0.00  0.00    +0.000 NA
ATOM     19  O   UNL     1       7.706   6.048  15.825  0.00  0.00    +0.000 OA
ATOM     20  C   UNL     1       6.831   5.446  16.673  0.00  0.00    +0.000 A 
ATOM     21  C   UNL     1       6.866   5.928  18.068  0.00  0.00    +0.000 C 
ATOM     22  C   UNL     1       6.104   4.496  15.985  0.00  0.00    +0.000 A 
ENDBRANCH  14  22
ENDBRANCH   1  15
TORSDOF 3
ENDMDL
MODEL 2
REMARK VINA RESULT:      -8.4      0.592      1.805
REMARK  Name = 
REMARK  5 active torsions:
REMARK  status: ('A' for Active; 'I' for Inactive)
REMARK    1  A    between atoms: C_1  and  C_2
REMARK    2  A    between atoms: C_5  and  C_6
REMARK    3  A    between atoms: C_7  and  C_8
REMARK    4  A    between atoms: N_9  and  N_10
REMARK    5  A    between atoms: N_10  and  C_11
REMARK                            x       y       z     vdW  Elec       q    Type
REMARK                         _______ _______ _______ _____ _____    ______ ____
ROOT
ATOM      1  N   UNL     1       2.979   3.067  17.271  0.00  0.00    +0.000 N 
ATOM      2  H   UNL     1       2.658   2.167  16.914  0.00  0.00    +0.000 HD
ENDROOT
BRANCH   1   3
ATOM      3  C   UNL     1       2.499   3.308  18.590  0.00  0.00    +0.000 A 
ATOM      4  C   UNL     1       2.281   2.245  19.470  0.00  0.00    +0.000 A 
ATOM      5  C   UNL     1       1.848   2.521  20.751  0.00  0.00    +0.000 A 
ATOM      6  N   UNL     1       1.626   3.764  21.216  0.00  0.00    +0.000 NA
ATOM      7  C   UNL     1       1.832   4.794  20.384  0.00  0.00    +0.000 A 
ATOM      8  C   UNL     1       1.629   6.072  20.883  0.00  0.00    +0.000 A 
ATOM      9  C   UNL     1       1.824   7.199  20.086  0.00  0.00    +0.000 A 
ATOM     10 CL   UNL     1       1.573   8.768  20.749  0.00  0.00    +0.000 Cl
ATOM     11  C   UNL     1       2.227   7.064  18.769  0.00  0.00    +0.000 A 
ATOM     12  C   UNL     1       2.440   5.787  18.246  0.00  0.00    +0.000 A 
ATOM     13  C   UNL     1       2.253   4.631  19.043  0.00  0.00    +0.000 A 
ENDBRANCH   1   3
BRANCH   1  15
ATOM     14  C   UNL     1       4.392   4.271  15.983  0.00  0.00    +0.000 C 
ATOM     15  N   UNL     1       4.252   3.477  16.995  0.00  0.00    +0.000 NA
BRANCH  14  22
ATOM     16  C   UNL     1       6.164   6.361  17.800  0.00  0.00    +0.000 C 
ATOM     17  C   UNL     1       6.475   5.745  16.488  0.00  0.00    +0.000 A 
ATOM     18  N   UNL     1       7.625   6.044  15.871  0.00  0.00    +0.000 NA
ATOM     19  O   UNL     1       7.618   5.334  14.692  0.00  0.00    +0.000 OA
ATOM     20  C   UNL     1       6.471   4.611  14.599  0.00  0.00    +0.000 A 
ATOM     21  C   UNL     1       6.330   3.800  13.374  0.00  0.00    +0.000 C 
ATOM     22  C   UNL     1       5.697   4.831  15.720  0.00  0.00    +0.000 A 
ENDBRANCH  14  22
ENDBRANCH   1  15
TORSDOF 3
ENDMDL
MODEL 3
REMARK VINA RESULT:      -8.3      3.749      6.715
REMARK  Name = 
REMARK  5 active torsions:
REMARK  status: ('A' for Active; 'I' for Inactive)
REMARK    1  A    between atoms: C_1  and  C_2
REMARK    2  A    between atoms: C_5  and  C_6
REMARK    3  A    between atoms: C_7  and  C_8
REMARK    4  A    between atoms: N_9  and  N_10
REMARK    5  A    between atoms: N_10  and  C_11
REMARK                            x       y       z     vdW  Elec       q    Type
REMARK                         _______ _______ _______ _____ _____    ______ ____
ROOT
ATOM      1  N   UNL     1       2.003   5.649  21.003  0.00  0.00    +0.000 N 
ATOM      2  H   UNL     1       2.125   5.220  21.921  0.00  0.00    +0.000 HD
ENDROOT
BRANCH   1   3
ATOM      3  C   UNL     1       1.969   4.672  19.968  0.00  0.00    +0.000 A 
ATOM      4  C   UNL     1       0.989   3.675  19.967  0.00  0.00    +0.000 A 
ATOM      5  C   UNL     1       0.966   2.766  18.930  0.00  0.00    +0.000 A 
ATOM      6  N   UNL     1       1.835   2.780  17.902  0.00  0.00    +0.000 NA
ATOM      7  C   UNL     1       2.780   3.730  17.888  0.00  0.00    +0.000 A 
ATOM      8  C   UNL     1       3.650   3.753  16.808  0.00  0.00    +0.000 A 
ATOM      9  C   UNL     1       4.659   4.709  16.714  0.00  0.00    +0.000 A 
ATOM     10 CL   UNL     1       5.711   4.710  15.351  0.00  0.00    +0.000 Cl
ATOM     11  C   UNL     1       4.816   5.663  17.705  0.00  0.00    +0.000 A 
ATOM     12  C   UNL     1       3.949   5.661  18.799  0.00  0.00    +0.000 A 
ATOM     13  C   UNL     1       2.913   4.700  18.909  0.00  0.00    +0.000 A 
ENDBRANCH   1   3
BRANCH   1  15
ATOM     14  C   UNL     1       1.709   7.884  20.846  0.00  0.00    +0.000 C 
ATOM     15  N   UNL     1       1.157   6.714  20.872  0.00  0.00    +0.000 NA
BRANCH  14  22
ATOM     16  C   UNL     1      -0.299   9.499  22.889  0.00  0.00    +0.000 C 
ATOM     17  C   UNL     1      -0.009   9.740  21.456  0.00  0.00    +0.000 A 
ATOM     18  N   UNL     1      -0.630  10.738  20.813  0.00  0.00    +0.000 NA
ATOM     19  O   UNL     1      -0.166  10.700  19.517  0.00  0.00    +0.000 OA
ATOM     20  C   UNL     1       0.730   9.686  19.380  0.00  0.00    +0.000 A 
ATOM     21  C   UNL     1       1.308   9.528  18.032  0.00  0.00    +0.000 C 
ATOM     22  C   UNL     1       0.874   9.034  20.588  0.00  0.00    +0.000 A 
ENDBRANCH  14  22
ENDBRANCH   1  15
TORSDOF 3
ENDMDL
MODEL 4
REMARK VINA RESULT:      -8.2      3.904      6.548
REMARK  Name = 
REMARK  5 active torsions:
REMARK  status: ('A' for Active; 'I' for Inactive)
REMARK    1  A    between atoms: C_1  and  C_2
REMARK    2  A    between atoms: C_5  and  C_6
REMARK    3  A    between atoms: C_7  and  C_8
REMARK    4  A    between atoms: N_9  and  N_10
REMARK    5  A    between atoms: N_10  and  C_11
REMARK                            x       y       z     vdW  Elec       q    Type
REMARK                         _______ _______ _______ _____ _____    ______ ____
ROOT
ATOM      1  N   UNL     1       2.013   5.720  21.065  0.00  0.00    +0.000 N 
ATOM      2  H   UNL     1       2.196   5.312  21.982  0.00  0.00    +0.000 HD
ENDROOT
BRANCH   1   3
ATOM      3  C   UNL     1       1.931   4.722  20.053  0.00  0.00    +0.000 A 
ATOM      4  C   UNL     1       0.938   3.741  20.105  0.00  0.00    +0.000 A 
ATOM      5  C   UNL     1       0.869   2.810  19.088  0.00  0.00    +0.000 A 
ATOM      6  N   UNL     1       1.703   2.791  18.033  0.00  0.00    +0.000 NA
ATOM      7  C   UNL     1       2.661   3.726  17.969  0.00  0.00    +0.000 A 
ATOM      8  C   UNL     1       3.496   3.714  16.861  0.00  0.00    +0.000 A 
ATOM      9  C   UNL     1       4.515   4.653  16.714  0.00  0.00    +0.000 A 
ATOM     10 CL   UNL     1       5.522   4.610  15.318  0.00  0.00    +0.000 Cl
ATOM     11  C   UNL     1       4.717   5.624  17.679  0.00  0.00    +0.000 A 
ATOM     12  C   UNL     1       3.886   5.657  18.801  0.00  0.00    +0.000 A 
ATOM     13  C   UNL     1       2.841   4.715  18.964  0.00  0.00    +0.000 A 
ENDBRANCH   1   3
BRANCH   1  15
ATOM     14  C   UNL     1       1.674   7.932  20.752  0.00  0.00    +0.000 C 
ATOM     15  N   UNL     1       1.145   6.771  20.965  0.00  0.00    +0.000 NA
BRANCH  14  22
ATOM     16  C   UNL     1       1.159   9.628  17.982  0.00  0.00    +0.000 C 
ATOM     17  C   UNL     1       0.569   9.809  19.329  0.00  0.00    +0.000 A 
ATOM     18  N   UNL     1      -0.303  10.803  19.542  0.00  0.00    +0.000 NA
ATOM     19  O   UNL     1      -0.658  10.717  20.870  0.00  0.00    +0.000 OA
ATOM     20  C   UNL     1      -0.004   9.678  21.453  0.00  0.00    +0.000 A 
ATOM     21  C   UNL     1      -0.291   9.472  22.886  0.00  0.00    +0.000 C 
ATOM     22  C   UNL     1       0.797   9.056  20.517  0.00  0.00    +0.000 A 
ENDBRANCH  14  22
ENDBRANCH   1  15
TORSDOF 3
ENDMDL
MODEL 5
REMARK VINA RESULT:      -8.2      3.577      5.747
REMARK  Name = 
REMARK  5 active torsions:
REMARK  status: ('A' for Active; 'I' for Inactive)
REMARK    1  A    between atoms: C_1  and  C_2
REMARK    2  A    between atoms: C_5  and  C_6
REMARK    3  A    between atoms: C_7  and  C_8
REMARK    4  A    between atoms: N_9  and  N_10
REMARK    5  A    between atoms: N_10  and  C_11
REMARK                            x       y       z     vdW  Elec       q    Type
REMARK                         _______ _______ _______ _____ _____    ______ ____
ROOT
ATOM      1  N   UNL     1       2.367   7.144  20.530  0.00  0.00    +0.000 N 
ATOM      2  H   UNL     1       3.314   7.361  20.841  0.00  0.00    +0.000 HD
ENDROOT
BRANCH   1   3
ATOM      3  C   UNL     1       1.722   8.287  19.978  0.00  0.00    +0.000 A 
ATOM      4  C   UNL     1       1.855   8.589  18.620  0.00  0.00    +0.000 A 
ATOM      5  C   UNL     1       1.187   9.685  18.114  0.00  0.00    +0.000 A 
ATOM      6  N   UNL     1       0.401  10.490  18.853  0.00  0.00    +0.000 NA
ATOM      7  C   UNL     1       0.263  10.213  20.157  0.00  0.00    +0.000 A 
ATOM      8  C   UNL     1      -0.573  11.032  20.901  0.00  0.00    +0.000 A 
ATOM      9  C   UNL     1      -0.775  10.813  22.263  0.00  0.00    +0.000 A 
ATOM     10 CL   UNL     1      -1.831  11.845  23.148  0.00  0.00    +0.000 Cl
ATOM     11  C   UNL     1      -0.139   9.764  22.905  0.00  0.00    +0.000 A 
ATOM     12  C   UNL     1       0.705   8.925  22.174  0.00  0.00    +0.000 A 
ATOM     13  C   UNL     1       0.917   9.130  20.789  0.00  0.00    +0.000 A 
ENDBRANCH   1   3
BRANCH   1  15
ATOM     14  C   UNL     1       3.124   5.128  19.844  0.00  0.00    +0.000 C 
ATOM     15  N   UNL     1       2.124   5.946  19.919  0.00  0.00    +0.000 NA
BRANCH  14  22
ATOM     16  C   UNL     1       4.053   3.841  16.964  0.00  0.00    +0.000 C 
ATOM     17  C   UNL     1       3.277   3.231  18.071  0.00  0.00    +0.000 A 
ATOM     18  N   UNL     1       2.834   1.973  17.954  0.00  0.00    +0.000 NA
ATOM     19  O   UNL     1       2.153   1.702  19.120  0.00  0.00    +0.000 OA
ATOM     20  C   UNL     1       2.186   2.790  19.934  0.00  0.00    +0.000 A 
ATOM     21  C   UNL     1       1.487   2.639  21.224  0.00  0.00    +0.000 C 
ATOM     22  C   UNL     1       2.893   3.803  19.318  0.00  0.00    +0.000 A 
ENDBRANCH  14  22
ENDBRANCH   1  15
TORSDOF 3
ENDMDL
MODEL 6
REMARK VINA RESULT:      -8.0      3.511      5.902
REMARK  Name = 
REMARK  5 active torsions:
REMARK  status: ('A' for Active; 'I' for Inactive)
REMARK    1  A    between atoms: C_1  and  C_2
REMARK    2  A    between atoms: C_5  and  C_6
REMARK    3  A    between atoms: C_7  and  C_8
REMARK    4  A    between atoms: N_9  and  N_10
REMARK    5  A    between atoms: N_10  and  C_11
REMARK                            x       y       z     vdW  Elec       q    Type
REMARK                         _______ _______ _______ _____ _____    ______ ____
ROOT
ATOM      1  N   UNL     1       2.471   7.248  20.296  0.00  0.00    +0.000 N 
ATOM      2  H   UNL     1       3.436   7.489  20.525  0.00  0.00    +0.000 HD
ENDROOT
BRANCH   1   3
ATOM      3  C   UNL     1       1.750   8.376  19.812  0.00  0.00    +0.000 A 
ATOM      4  C   UNL     1       1.808   8.728  18.461  0.00  0.00    +0.000 A 
ATOM      5  C   UNL     1       1.068   9.807  18.023  0.00  0.00    +0.000 A 
ATOM      6  N   UNL     1       0.280  10.550  18.823  0.00  0.00    +0.000 NA
ATOM      7  C   UNL     1       0.214  10.224  20.121  0.00  0.00    +0.000 A 
ATOM      8  C   UNL     1      -0.626  10.977  20.928  0.00  0.00    +0.000 A 
ATOM      9  C   UNL     1      -0.756  10.704  22.289  0.00  0.00    +0.000 A 
ATOM     10 CL   UNL     1      -1.818  11.655  23.254  0.00  0.00    +0.000 Cl
ATOM     11  C   UNL     1      -0.044   9.667  22.867  0.00  0.00    +0.000 A 
ATOM     12  C   UNL     1       0.804   8.893  22.071  0.00  0.00    +0.000 A 
ATOM     13  C   UNL     1       0.944   9.153  20.686  0.00  0.00    +0.000 A 
ENDBRANCH   1   3
BRANCH   1  15
ATOM     14  C   UNL     1       3.128   5.143  19.801  0.00  0.00    +0.000 C 
ATOM     15  N   UNL     1       2.209   6.048  19.698  0.00  0.00    +0.000 NA
BRANCH  14  22
ATOM     16  C   UNL     1       1.354   2.724  21.147  0.00  0.00    +0.000 C 
ATOM     17  C   UNL     1       2.097   2.756  19.865  0.00  0.00    +0.000 A 
ATOM     18  N   UNL     1       2.114   1.669  19.082  0.00  0.00    +0.000 NA
ATOM     19  O   UNL     1       2.881   2.003  17.988  0.00  0.00    +0.000 OA
ATOM     20  C   UNL     1       3.322   3.283  18.111  0.00  0.00    +0.000 A 
ATOM     21  C   UNL     1       4.164   3.772  17.002  0.00  0.00    +0.000 C 
ATOM     22  C   UNL     1       2.853   3.819  19.292  0.00  0.00    +0.000 A 
ENDBRANCH  14  22
ENDBRANCH   1  15
TORSDOF 3
ENDMDL
MODEL 7
REMARK VINA RESULT:      -7.8      2.472      3.762
REMARK  Name = 
REMARK  5 active torsions:
REMARK  status: ('A' for Active; 'I' for Inactive)
REMARK    1  A    between atoms: C_1  and  C_2
REMARK    2  A    between atoms: C_5  and  C_6
REMARK    3  A    between atoms: C_7  and  C_8
REMARK    4  A    between atoms: N_9  and  N_10
REMARK    5  A    between atoms: N_10  and  C_11
REMARK                            x       y       z     vdW  Elec       q    Type
REMARK                         _______ _______ _______ _____ _____    ______ ____
ROOT
ATOM      1  N   UNL     1       3.368   7.399  17.418  0.00  0.00    +0.000 N 
ATOM      2  H   UNL     1       2.806   7.656  16.606  0.00  0.00    +0.000 HD
ENDROOT
BRANCH   1   3
ATOM      3  C   UNL     1       2.608   7.458  18.621  0.00  0.00    +0.000 A 
ATOM      4  C   UNL     1       2.589   6.372  19.501  0.00  0.00    +0.000 A 
ATOM      5  C   UNL     1       1.868   6.479  20.673  0.00  0.00    +0.000 A 
ATOM      6  N   UNL     1       1.179   7.578  21.031  0.00  0.00    +0.000 NA
ATOM      7  C   UNL     1       1.188   8.627  20.198  0.00  0.00    +0.000 A 
ATOM      8  C   UNL     1       0.499   9.765  20.592  0.00  0.00    +0.000 A 
ATOM      9  C   UNL     1       0.460  10.902  19.787  0.00  0.00    +0.000 A 
ATOM     10 CL   UNL     1      -0.397  12.297  20.319  0.00  0.00    +0.000 Cl
ATOM     11  C   UNL     1       1.114  10.919  18.567  0.00  0.00    +0.000 A 
ATOM     12  C   UNL     1       1.817   9.786  18.152  0.00  0.00    +0.000 A 
ATOM     13  C   UNL     1       1.872   8.624  18.960  0.00  0.00    +0.000 A 
ENDBRANCH   1   3
BRANCH   1  15
ATOM     14  C   UNL     1       5.495   6.719  17.078  0.00  0.00    +0.000 C 
ATOM     15  N   UNL     1       4.269   6.378  17.309  0.00  0.00    +0.000 NA
BRANCH  14  22
ATOM     16  C   UNL     1       7.445   5.708  19.525  0.00  0.00    +0.000 C 
ATOM     17  C   UNL     1       7.369   5.245  18.119  0.00  0.00    +0.000 A 
ATOM     18  N   UNL     1       8.197   4.282  17.693  0.00  0.00    +0.000 NA
ATOM     19  O   UNL     1       7.893   4.082  16.365  0.00  0.00    +0.000 OA
ATOM     20  C   UNL     1       6.888   4.919  15.994  0.00  0.00    +0.000 A 
ATOM     21  C   UNL     1       6.462   4.812  14.585  0.00  0.00    +0.000 C 
ATOM     22  C   UNL     1       6.508   5.689  17.074  0.00  0.00    +0.000 A 
ENDBRANCH  14  22
ENDBRANCH   1  15
TORSDOF 3
ENDMDL
MODEL 8
REMARK VINA RESULT:      -7.6      2.386      3.282
REMARK  Name = 
REMARK  5 active torsions:
REMARK  status: ('A' for Active; 'I' for Inactive)
REMARK    1  A    between atoms: C_1  and  C_2
REMARK    2  A    between atoms: C_5  and  C_6
REMARK    3  A    between atoms: C_7  and  C_8
REMARK    4  A    between atoms: N_9  and  N_10
REMARK    5  A    between atoms: N_10  and  C_11
REMARK                            x       y       z     vdW  Elec       q    Type
REMARK                         _______ _______ _______ _____ _____    ______ ____
ROOT
ATOM      1  N   UNL     1       3.329   7.496  17.325  0.00  0.00    +0.000 N 
ATOM      2  H   UNL     1       2.738   7.801  16.551  0.00  0.00    +0.000 HD
ENDROOT
BRANCH   1   3
ATOM      3  C   UNL     1       2.611   7.472  18.555  0.00  0.00    +0.000 A 
ATOM      4  C   UNL     1       2.655   6.344  19.379  0.00  0.00    +0.000 A 
ATOM      5  C   UNL     1       1.974   6.371  20.579  0.00  0.00    +0.000 A 
ATOM      6  N   UNL     1       1.267   7.429  21.016  0.00  0.00    +0.000 NA
ATOM      7  C   UNL     1       1.217   8.519  20.237  0.00  0.00    +0.000 A 
ATOM      8  C   UNL     1       0.511   9.614  20.712  0.00  0.00    +0.000 A 
ATOM      9  C   UNL     1       0.411  10.788  19.968  0.00  0.00    +0.000 A 
ATOM     10 CL   UNL     1      -0.465  12.129  20.599  0.00  0.00    +0.000 Cl
ATOM     11  C   UNL     1       1.020  10.885  18.728  0.00  0.00    +0.000 A 
ATOM     12  C   UNL     1       1.739   9.796  18.232  0.00  0.00    +0.000 A 
ATOM     13  C   UNL     1       1.856   8.597  18.978  0.00  0.00    +0.000 A 
ENDBRANCH   1   3
BRANCH   1  15
ATOM     14  C   UNL     1       5.473   6.840  17.045  0.00  0.00    +0.000 C 
ATOM     15  N   UNL     1       4.230   6.490  17.120  0.00  0.00    +0.000 NA
BRANCH  14  22
ATOM     16  C   UNL     1       6.177   4.848  14.525  0.00  0.00    +0.000 C 
ATOM     17  C   UNL     1       6.789   4.926  15.873  0.00  0.00    +0.000 A 
ATOM     18  N   UNL     1       7.775   4.082  16.203  0.00  0.00    +0.000 NA
ATOM     19  O   UNL     1       8.121   4.393  17.499  0.00  0.00    +0.000 OA
ATOM     20  C   UNL     1       7.350   5.419  17.946  0.00  0.00    +0.000 A 
ATOM     21  C   UNL     1       7.615   5.854  19.331  0.00  0.00    +0.000 C 
ATOM     22  C   UNL     1       6.477   5.806  16.950  0.00  0.00    +0.000 A 
ENDBRANCH  14  22
ENDBRANCH   1  15
TORSDOF 3
ENDMDL
MODEL 9
REMARK VINA RESULT:      -7.6      4.216      6.365
REMARK  Name = 
REMARK  5 active torsions:
REMARK  status: ('A' for Active; 'I' for Inactive)
REMARK    1  A    between atoms: C_1  and  C_2
REMARK    2  A    between atoms: C_5  and  C_6
REMARK    3  A    between atoms: C_7  and  C_8
REMARK    4  A    between atoms: N_9  and  N_10
REMARK    5  A    between atoms: N_10  and  C_11
REMARK                            x       y       z     vdW  Elec       q    Type
REMARK                         _______ _______ _______ _____ _____    ______ ____
ROOT
ATOM      1  N   UNL     1       2.076   7.506  20.916  0.00  0.00    +0.000 N 
ATOM      2  H   UNL     1       2.840   7.849  21.499  0.00  0.00    +0.000 HD
ENDROOT
BRANCH   1   3
ATOM      3  C   UNL     1       1.436   8.567  20.215  0.00  0.00    +0.000 A 
ATOM      4  C   UNL     1       1.616   8.716  18.837  0.00  0.00    +0.000 A 
ATOM      5  C   UNL     1       0.953   9.735  18.186  0.00  0.00    +0.000 A 
ATOM      6  N   UNL     1       0.127  10.603  18.798  0.00  0.00    +0.000 NA
ATOM      7  C   UNL     1      -0.057  10.473  20.119  0.00  0.00    +0.000 A 
ATOM      8  C   UNL     1      -0.934  11.354  20.735  0.00  0.00    +0.000 A 
ATOM      9  C   UNL     1      -1.186  11.286  22.104  0.00  0.00    +0.000 A 
ATOM     10 CL   UNL     1      -2.290  12.391  22.826  0.00  0.00    +0.000 Cl
ATOM     11  C   UNL     1      -0.559  10.330  22.884  0.00  0.00    +0.000 A 
ATOM     12  C   UNL     1       0.325   9.430  22.285  0.00  0.00    +0.000 A 
ATOM     13  C   UNL     1       0.588   9.481  20.894  0.00  0.00    +0.000 A 
ENDBRANCH   1   3
BRANCH   1  15
ATOM     14  C   UNL     1       1.524   5.329  20.669  0.00  0.00    +0.000 C 
ATOM     15  N   UNL     1       2.228   6.327  20.243  0.00  0.00    +0.000 NA
BRANCH  14  22
ATOM     16  C   UNL     1       1.380   4.861  17.418  0.00  0.00    +0.000 C 
ATOM     17  C   UNL     1       1.482   3.871  18.516  0.00  0.00    +0.000 A 
ATOM     18  N   UNL     1       1.510   2.563  18.227  0.00  0.00    +0.000 NA
ATOM     19  O   UNL     1       1.598   1.911  19.437  0.00  0.00    +0.000 OA
ATOM     20  C   UNL     1       1.625   2.820  20.447  0.00  0.00    +0.000 A 
ATOM     21  C   UNL     1       1.715   2.255  21.807  0.00  0.00    +0.000 C 
ATOM     22  C   UNL     1       1.555   4.094  19.921  0.00  0.00    +0.000 A 
ENDBRANCH  14  22
ENDBRANCH   1  15
TORSDOF 3
ENDMDL
