MODEL 1
REMARK VINA RESULT:      -7.0      0.000      0.000
REMARK  Name = 
REMARK  5 active torsions:
REMARK  status: ('A' for Active; 'I' for Inactive)
REMARK    1  A    between atoms: C_1  and  C_2
REMARK    2  A    between atoms: N_6  and  C_7
REMARK    3  A    between atoms: C_7  and  C_8
REMARK    4  A    between atoms: C_17  and  C_18
REMARK    5  A    between atoms: N_20  and  C_21
REMARK                            x       y       z     vdW  Elec       q    Type
REMARK                         _______ _______ _______ _____ _____    ______ ____
ROOT
ATOM      1  C   UNL     1      -5.393  13.948  23.169  0.00  0.00    +0.000 C 
ATOM      2  C   UNL     1      -4.328  13.751  22.140  0.00  0.00    +0.000 A 
ATOM      3  C   UNL     1      -3.146  14.349  22.314  0.00  0.00    +0.000 A 
ATOM      4  C   UNL     1      -2.054  14.164  21.365  0.00  0.00    +0.000 A 
ATOM      5  O   UNL     1      -1.010  14.783  21.490  0.00  0.00    +0.000 OA
ATOM      6  N   UNL     1      -2.242  13.204  20.290  0.00  0.00    +0.000 N 
ATOM      7  C   UNL     1      -3.563  12.671  20.047  0.00  0.00    +0.000 A 
ATOM      8  C   UNL     1      -4.570  12.938  20.991  0.00  0.00    +0.000 A 
ATOM      9  C   UNL     1      -5.733  12.265  20.554  0.00  0.00    +0.000 A 
ATOM     10  C   UNL     1      -7.100  12.141  21.130  0.00  0.00    +0.000 C 
ATOM     11  N   UNL     1      -5.507  11.627  19.415  0.00  0.00    +0.000 NA
ATOM     12  N   UNL     1      -4.208  11.847  19.060  0.00  0.00    +0.000 N 
ENDROOT
BRANCH  12  13
ATOM     13  C   UNL     1      -3.804  11.189  17.837  0.00  0.00    +0.000 A 
ATOM     14  C   UNL     1      -2.790  10.198  17.848  0.00  0.00    +0.000 A 
ATOM     15  C   UNL     1      -2.301   9.645  16.655  0.00  0.00    +0.000 A 
ATOM     16  C   UNL     1      -2.765  10.095  15.423  0.00  0.00    +0.000 A 
ATOM     17  C   UNL     1      -3.798  11.011  15.397  0.00  0.00    +0.000 A 
ATOM     18  C   UNL     1      -4.348  11.475  16.594  0.00  0.00    +0.000 A 
ENDBRANCH  12  13
BRANCH   6  19
ATOM     19  C   UNL     1      -0.980  12.967  19.553  0.00  0.00    +0.000 C 
BRANCH  19  20
ATOM     20  C   UNL     1      -0.236  11.709  19.953  0.00  0.00    +0.000 A 
ATOM     21  C   UNL     1      -0.334  11.138  21.229  0.00  0.00    +0.000 A 
ATOM     22  C   UNL     1       0.212   9.877  21.481  0.00  0.00    +0.000 A 
ATOM     23  C   UNL     1       0.893   9.196  20.476  0.00  0.00    +0.000 A 
ATOM     24 CL   UNL     1       1.476   7.603  20.763  0.00  0.00    +0.000 Cl
ATOM     25  C   UNL     1       1.081   9.786  19.231  0.00  0.00    +0.000 A 
ATOM     26  C   UNL     1       0.539  11.048  18.977  0.00  0.00    +0.000 A 
ENDBRANCH  19  20
ENDBRANCH   6  19
TORSDOF 3
ENDMDL
MODEL 2
REMARK VINA RESULT:      -6.7      0.785      1.242
REMARK  Name = 
REMARK  5 active torsions:
REMARK  status: ('A' for Active; 'I' for Inactive)
REMARK    1  A    between atoms: C_1  and  C_2
REMARK    2  A    between atoms: N_6  and  C_7
REMARK    3  A    between atoms: C_7  and  C_8
REMARK    4  A    between atoms: C_17  and  C_18
REMARK    5  A    between atoms: N_20  and  C_21
REMARK                            x       y       z     vdW  Elec       q    Type
REMARK                         _______ _______ _______ _____ _____    ______ ____
ROOT
ATOM      1  C   UNL     1      -6.304  14.218  23.155  0.00  0.00    +0.000 C 
ATOM      2  C   UNL     1      -5.101  14.099  22.277  0.00  0.00    +0.000 A 
ATOM      3  C   UNL     1      -4.015  14.818  22.570  0.00  0.00    +0.000 A 
ATOM      4  C   UNL     1      -2.796  14.716  21.774  0.00  0.00    +0.000 A 
ATOM      5  O   UNL     1      -1.843  15.441  22.001  0.00  0.00    +0.000 OA
ATOM      6  N   UNL     1      -2.752  13.709  20.727  0.00  0.00    +0.000 N 
ATOM      7  C   UNL     1      -3.973  13.038  20.344  0.00  0.00    +0.000 A 
ATOM      8  C   UNL     1      -5.114  13.230  21.142  0.00  0.00    +0.000 A 
ATOM      9  C   UNL     1      -6.140  12.429  20.594  0.00  0.00    +0.000 A 
ATOM     10  C   UNL     1      -7.552  12.186  20.999  0.00  0.00    +0.000 C 
ATOM     11  N   UNL     1      -5.710  11.783  19.520  0.00  0.00    +0.000 NA
ATOM     12  N   UNL     1      -4.404  12.123  19.320  0.00  0.00    +0.000 N 
ENDROOT
BRANCH  12  13
ATOM     13  C   UNL     1      -3.784  11.472  18.187  0.00  0.00    +0.000 A 
ATOM     14  C   UNL     1      -4.339  11.591  16.889  0.00  0.00    +0.000 A 
ATOM     15  C   UNL     1      -3.822  10.862  15.807  0.00  0.00    +0.000 A 
ATOM     16  C   UNL     1      -2.779   9.960  15.994  0.00  0.00    +0.000 A 
ATOM     17  C   UNL     1      -2.186   9.881  17.238  0.00  0.00    +0.000 A 
ATOM     18  C   UNL     1      -2.642  10.690  18.281  0.00  0.00    +0.000 A 
ENDBRANCH  12  13
BRANCH   6  19
ATOM     19  C   UNL     1      -1.389  13.579  20.163  0.00  0.00    +0.000 C 
BRANCH  19  20
ATOM     20  C   UNL     1      -0.623  12.356  20.627  0.00  0.00    +0.000 A 
ATOM     21  C   UNL     1      -0.925  11.670  21.811  0.00  0.00    +0.000 A 
ATOM     22  C   UNL     1      -0.321  10.441  22.088  0.00  0.00    +0.000 A 
ATOM     23  C   UNL     1       0.616   9.907  21.207  0.00  0.00    +0.000 A 
ATOM     24 CL   UNL     1       1.281   8.350  21.504  0.00  0.00    +0.000 Cl
ATOM     25  C   UNL     1       0.998  10.618  20.074  0.00  0.00    +0.000 A 
ATOM     26  C   UNL     1       0.398  11.848  19.796  0.00  0.00    +0.000 A 
ENDBRANCH  19  20
ENDBRANCH   6  19
TORSDOF 3
ENDMDL
MODEL 3
REMARK VINA RESULT:      -6.7      1.352      2.029
REMARK  Name = 
REMARK  5 active torsions:
REMARK  status: ('A' for Active; 'I' for Inactive)
REMARK    1  A    between atoms: C_1  and  C_2
REMARK    2  A    between atoms: N_6  and  C_7
REMARK    3  A    between atoms: C_7  and  C_8
REMARK    4  A    between atoms: C_17  and  C_18
REMARK    5  A    between atoms: N_20  and  C_21
REMARK                            x       y       z     vdW  Elec       q    Type
REMARK                         _______ _______ _______ _____ _____    ______ ____
ROOT
ATOM      1  C   UNL     1      -2.603  14.318  23.953  0.00  0.00    +0.000 C 
ATOM      2  C   UNL     1      -1.846  13.841  22.756  0.00  0.00    +0.000 A 
ATOM      3  C   UNL     1      -0.520  13.998  22.728  0.00  0.00    +0.000 A 
ATOM      4  C   UNL     1       0.279  13.519  21.604  0.00  0.00    +0.000 A 
ATOM      5  O   UNL     1       1.476  13.745  21.552  0.00  0.00    +0.000 OA
ATOM      6  N   UNL     1      -0.393  12.746  20.574  0.00  0.00    +0.000 N 
ATOM      7  C   UNL     1      -1.838  12.701  20.557  0.00  0.00    +0.000 A 
ATOM      8  C   UNL     1      -2.530  13.229  21.661  0.00  0.00    +0.000 A 
ATOM      9  C   UNL     1      -3.906  13.011  21.427  0.00  0.00    +0.000 A 
ATOM     10  C   UNL     1      -5.124  13.316  22.228  0.00  0.00    +0.000 C 
ATOM     11  N   UNL     1      -4.095  12.407  20.263  0.00  0.00    +0.000 NA
ATOM     12  N   UNL     1      -2.873  12.203  19.691  0.00  0.00    +0.000 N 
ENDROOT
BRANCH  12  13
ATOM     13  C   UNL     1      -2.917  11.525  18.414  0.00  0.00    +0.000 A 
ATOM     14  C   UNL     1      -4.006  11.718  17.528  0.00  0.00    +0.000 A 
ATOM     15  C   UNL     1      -4.123  10.969  16.347  0.00  0.00    +0.000 A 
ATOM     16  C   UNL     1      -3.195   9.979  16.040  0.00  0.00    +0.000 A 
ATOM     17  C   UNL     1      -2.094   9.826  16.859  0.00  0.00    +0.000 A 
ATOM     18  C   UNL     1      -1.936  10.649  17.977  0.00  0.00    +0.000 A 
ENDBRANCH  12  13
BRANCH   6  19
ATOM     19  C   UNL     1       0.578  12.148  19.630  0.00  0.00    +0.000 C 
BRANCH  19  20
ATOM     20  C   UNL     1       1.000  10.731  19.963  0.00  0.00    +0.000 A 
ATOM     21  C   UNL     1       0.832  10.164  21.233  0.00  0.00    +0.000 A 
ATOM     22  C   UNL     1       1.053   8.799  21.432  0.00  0.00    +0.000 A 
ATOM     23  C   UNL     1       1.481   7.999  20.376  0.00  0.00    +0.000 A 
ATOM     24 CL   UNL     1       1.655   6.303  20.601  0.00  0.00    +0.000 Cl
ATOM     25  C   UNL     1       1.743   8.562  19.131  0.00  0.00    +0.000 A 
ATOM     26  C   UNL     1       1.526   9.926  18.930  0.00  0.00    +0.000 A 
ENDBRANCH  19  20
ENDBRANCH   6  19
TORSDOF 3
ENDMDL
MODEL 4
REMARK VINA RESULT:      -6.7      1.681      2.884
REMARK  Name = 
REMARK  5 active torsions:
REMARK  status: ('A' for Active; 'I' for Inactive)
REMARK    1  A    between atoms: C_1  and  C_2
REMARK    2  A    between atoms: N_6  and  C_7
REMARK    3  A    between atoms: C_7  and  C_8
REMARK    4  A    between atoms: C_17  and  C_18
REMARK    5  A    between atoms: N_20  and  C_21
REMARK                            x       y       z     vdW  Elec       q    Type
REMARK                         _______ _______ _______ _____ _____    ______ ____
ROOT
ATOM      1  C   UNL     1      -1.123  14.330  23.355  0.00  0.00    +0.000 C 
ATOM      2  C   UNL     1      -0.624  13.773  22.062  0.00  0.00    +0.000 A 
ATOM      3  C   UNL     1       0.682  13.836  21.794  0.00  0.00    +0.000 A 
ATOM      4  C   UNL     1       1.235  13.275  20.566  0.00  0.00    +0.000 A 
ATOM      5  O   UNL     1       2.416  13.416  20.295  0.00  0.00    +0.000 OA
ATOM      6  N   UNL     1       0.342  12.526  19.699  0.00  0.00    +0.000 N 
ATOM      7  C   UNL     1      -1.082  12.580  19.940  0.00  0.00    +0.000 A 
ATOM      8  C   UNL     1      -1.531  13.182  21.128  0.00  0.00    +0.000 A 
ATOM      9  C   UNL     1      -2.938  13.055  21.149  0.00  0.00    +0.000 A 
ATOM     10  C   UNL     1      -3.971  13.463  22.140  0.00  0.00    +0.000 C 
ATOM     11  N   UNL     1      -3.370  12.437  20.060  0.00  0.00    +0.000 NA
ATOM     12  N   UNL     1      -2.285  12.135  19.289  0.00  0.00    +0.000 N 
ENDROOT
BRANCH  12  13
ATOM     13  C   UNL     1      -2.599  11.429  18.066  0.00  0.00    +0.000 A 
ATOM     14  C   UNL     1      -3.799  11.699  17.361  0.00  0.00    +0.000 A 
ATOM     15  C   UNL     1      -4.175  10.934  16.246  0.00  0.00    +0.000 A 
ATOM     16  C   UNL     1      -3.402   9.854  15.834  0.00  0.00    +0.000 A 
ATOM     17  C   UNL     1      -2.198   9.619  16.470  0.00  0.00    +0.000 A 
ATOM     18  C   UNL     1      -1.785  10.454  17.511  0.00  0.00    +0.000 A 
ENDBRANCH  12  13
BRANCH   6  19
ATOM     19  C   UNL     1       1.089  11.838  18.621  0.00  0.00    +0.000 C 
BRANCH  19  20
ATOM     20  C   UNL     1       1.298  10.353  18.839  0.00  0.00    +0.000 A 
ATOM     21  C   UNL     1       1.844   9.508  17.864  0.00  0.00    +0.000 A 
ATOM     22  C   UNL     1       2.197   8.195  18.185  0.00  0.00    +0.000 A 
ATOM     23  C   UNL     1       1.971   7.704  19.467  0.00  0.00    +0.000 A 
ATOM     24 CL   UNL     1       2.498   6.121  19.884  0.00  0.00    +0.000 Cl
ATOM     25  C   UNL     1       1.345   8.498  20.423  0.00  0.00    +0.000 A 
ATOM     26  C   UNL     1       0.988   9.809  20.104  0.00  0.00    +0.000 A 
ENDBRANCH  19  20
ENDBRANCH   6  19
TORSDOF 3
ENDMDL
MODEL 5
REMARK VINA RESULT:      -6.6      2.912      5.800
REMARK  Name = 
REMARK  5 active torsions:
REMARK  status: ('A' for Active; 'I' for Inactive)
REMARK    1  A    between atoms: C_1  and  C_2
REMARK    2  A    between atoms: N_6  and  C_7
REMARK    3  A    between atoms: C_7  and  C_8
REMARK    4  A    between atoms: C_17  and  C_18
REMARK    5  A    between atoms: N_20  and  C_21
REMARK                            x       y       z     vdW  Elec       q    Type
REMARK                         _______ _______ _______ _____ _____    ______ ____
ROOT
ATOM      1  C   UNL     1       0.724  17.040  18.945  0.00  0.00    +0.000 C 
ATOM      2  C   UNL     1       0.156  15.706  19.309  0.00  0.00    +0.000 A 
ATOM      3  C   UNL     1      -1.067  15.651  19.843  0.00  0.00    +0.000 A 
ATOM      4  C   UNL     1      -1.692  14.378  20.184  0.00  0.00    +0.000 A 
ATOM      5  O   UNL     1      -2.771  14.347  20.750  0.00  0.00    +0.000 OA
ATOM      6  N   UNL     1      -0.999  13.158  19.803  0.00  0.00    +0.000 N 
ATOM      7  C   UNL     1       0.370  13.239  19.347  0.00  0.00    +0.000 A 
ATOM      8  C   UNL     1       0.908  14.512  19.088  0.00  0.00    +0.000 A 
ATOM      9  C   UNL     1       2.221  14.314  18.607  0.00  0.00    +0.000 A 
ATOM     10  C   UNL     1       3.276  15.256  18.143  0.00  0.00    +0.000 C 
ATOM     11  N   UNL     1       2.519  13.024  18.570  0.00  0.00    +0.000 NA
ATOM     12  N   UNL     1       1.433  12.328  19.017  0.00  0.00    +0.000 N 
ENDROOT
BRANCH  12  13
ATOM     13  C   UNL     1       1.600  10.891  19.011  0.00  0.00    +0.000 A 
ATOM     14  C   UNL     1       2.058  10.219  17.851  0.00  0.00    +0.000 A 
ATOM     15  C   UNL     1       2.102   8.817  17.793  0.00  0.00    +0.000 A 
ATOM     16  C   UNL     1       1.646   8.049  18.859  0.00  0.00    +0.000 A 
ATOM     17  C   UNL     1       1.260   8.689  20.020  0.00  0.00    +0.000 A 
ATOM     18  C   UNL     1       1.320  10.082  20.102  0.00  0.00    +0.000 A 
ENDBRANCH  12  13
BRANCH   6  19
ATOM     19  C   UNL     1      -1.853  11.967  20.012  0.00  0.00    +0.000 C 
BRANCH  19  20
ATOM     20  C   UNL     1      -2.442  11.375  18.748  0.00  0.00    +0.000 A 
ATOM     21  C   UNL     1      -3.661  11.800  18.203  0.00  0.00    +0.000 A 
ATOM     22  C   UNL     1      -4.058  11.365  16.936  0.00  0.00    +0.000 A 
ATOM     23  C   UNL     1      -3.262  10.473  16.222  0.00  0.00    +0.000 A 
ATOM     24 CL   UNL     1      -3.706  10.018  14.624  0.00  0.00    +0.000 Cl
ATOM     25  C   UNL     1      -2.095   9.967  16.786  0.00  0.00    +0.000 A 
ATOM     26  C   UNL     1      -1.697  10.399  18.053  0.00  0.00    +0.000 A 
ENDBRANCH  19  20
ENDBRANCH   6  19
TORSDOF 3
ENDMDL
MODEL 6
REMARK VINA RESULT:      -6.6      1.045      1.571
REMARK  Name = 
REMARK  5 active torsions:
REMARK  status: ('A' for Active; 'I' for Inactive)
REMARK    1  A    between atoms: C_1  and  C_2
REMARK    2  A    between atoms: N_6  and  C_7
REMARK    3  A    between atoms: C_7  and  C_8
REMARK    4  A    between atoms: C_17  and  C_18
REMARK    5  A    between atoms: N_20  and  C_21
REMARK                            x       y       z     vdW  Elec       q    Type
REMARK                         _______ _______ _______ _____ _____    ______ ____
ROOT
ATOM      1  C   UNL     1      -3.583  13.743  23.328  0.00  0.00    +0.000 C 
ATOM      2  C   UNL     1      -2.737  13.409  22.143  0.00  0.00    +0.000 A 
ATOM      3  C   UNL     1      -1.439  13.721  22.169  0.00  0.00    +0.000 A 
ATOM      4  C   UNL     1      -0.553  13.386  21.060  0.00  0.00    +0.000 A 
ATOM      5  O   UNL     1       0.610  13.752  21.061  0.00  0.00    +0.000 OA
ATOM      6  N   UNL     1      -1.094  12.583  19.976  0.00  0.00    +0.000 N 
ATOM      7  C   UNL     1      -2.522  12.369  19.905  0.00  0.00    +0.000 A 
ATOM      8  C   UNL     1      -3.308  12.766  21.001  0.00  0.00    +0.000 A 
ATOM      9  C   UNL     1      -4.640  12.399  20.708  0.00  0.00    +0.000 A 
ATOM     10  C   UNL     1      -5.910  12.525  21.473  0.00  0.00    +0.000 C 
ATOM     11  N   UNL     1      -4.718  11.826  19.516  0.00  0.00    +0.000 NA
ATOM     12  N   UNL     1      -3.463  11.790  18.983  0.00  0.00    +0.000 N 
ENDROOT
BRANCH  12  13
ATOM     13  C   UNL     1      -3.384  11.165  17.681  0.00  0.00    +0.000 A 
ATOM     14  C   UNL     1      -2.508  10.075  17.451  0.00  0.00    +0.000 A 
ATOM     15  C   UNL     1      -2.329   9.545  16.165  0.00  0.00    +0.000 A 
ATOM     16  C   UNL     1      -2.971  10.112  15.069  0.00  0.00    +0.000 A 
ATOM     17  C   UNL     1      -3.878  11.130  15.285  0.00  0.00    +0.000 A 
ATOM     18  C   UNL     1      -4.125  11.579  16.585  0.00  0.00    +0.000 A 
ENDBRANCH  12  13
BRANCH   6  19
ATOM     19  C   UNL     1      -0.029  12.142  19.048  0.00  0.00    +0.000 C 
BRANCH  19  20
ATOM     20  C   UNL     1       0.432  10.712  19.241  0.00  0.00    +0.000 A 
ATOM     21  C   UNL     1       1.159  10.007  18.273  0.00  0.00    +0.000 A 
ATOM     22  C   UNL     1       1.727   8.768  18.580  0.00  0.00    +0.000 A 
ATOM     23  C   UNL     1       1.541   8.206  19.839  0.00  0.00    +0.000 A 
ATOM     24 CL   UNL     1       2.325   6.729  20.244  0.00  0.00    +0.000 Cl
ATOM     25  C   UNL     1       0.745   8.847  20.783  0.00  0.00    +0.000 A 
ATOM     26  C   UNL     1       0.173  10.084  20.478  0.00  0.00    +0.000 A 
ENDBRANCH  19  20
ENDBRANCH   6  19
TORSDOF 3
ENDMDL
MODEL 7
REMARK VINA RESULT:      -6.5      5.117      8.512
REMARK  Name = 
REMARK  5 active torsions:
REMARK  status: ('A' for Active; 'I' for Inactive)
REMARK    1  A    between atoms: C_1  and  C_2
REMARK    2  A    between atoms: N_6  and  C_7
REMARK    3  A    between atoms: C_7  and  C_8
REMARK    4  A    between atoms: C_17  and  C_18
REMARK    5  A    between atoms: N_20  and  C_21
REMARK                            x       y       z     vdW  Elec       q    Type
REMARK                         _______ _______ _______ _____ _____    ______ ____
ROOT
ATOM      1  C   UNL     1       3.096   2.925  17.738  0.00  0.00    +0.000 C 
ATOM      2  C   UNL     1       3.157   4.403  17.955  0.00  0.00    +0.000 A 
ATOM      3  C   UNL     1       3.915   5.142  17.143  0.00  0.00    +0.000 A 
ATOM      4  C   UNL     1       3.987   6.593  17.280  0.00  0.00    +0.000 A 
ATOM      5  O   UNL     1       4.749   7.246  16.587  0.00  0.00    +0.000 OA
ATOM      6  N   UNL     1       3.104   7.229  18.244  0.00  0.00    +0.000 N 
ATOM      7  C   UNL     1       2.393   6.405  19.196  0.00  0.00    +0.000 A 
ATOM      8  C   UNL     1       2.417   5.012  19.015  0.00  0.00    +0.000 A 
ATOM      9  C   UNL     1       1.609   4.451  20.029  0.00  0.00    +0.000 A 
ATOM     10  C   UNL     1       1.224   3.049  20.349  0.00  0.00    +0.000 C 
ATOM     11  N   UNL     1       1.114   5.397  20.813  0.00  0.00    +0.000 NA
ATOM     12  N   UNL     1       1.565   6.601  20.356  0.00  0.00    +0.000 N 
ENDROOT
BRANCH  12  13
ATOM     13  C   UNL     1       1.085   7.742  21.105  0.00  0.00    +0.000 A 
ATOM     14  C   UNL     1       1.985   8.572  21.818  0.00  0.00    +0.000 A 
ATOM     15  C   UNL     1       1.520   9.603  22.649  0.00  0.00    +0.000 A 
ATOM     16  C   UNL     1       0.156   9.803  22.834  0.00  0.00    +0.000 A 
ATOM     17  C   UNL     1      -0.732   9.046  22.096  0.00  0.00    +0.000 A 
ATOM     18  C   UNL     1      -0.253   8.094  21.193  0.00  0.00    +0.000 A 
ENDBRANCH  12  13
BRANCH   6  19
ATOM     19  C   UNL     1       3.132   8.703  18.110  0.00  0.00    +0.000 C 
BRANCH  19  20
ATOM     20  C   UNL     1       1.769   9.366  18.093  0.00  0.00    +0.000 A 
ATOM     21  C   UNL     1       0.660   8.815  17.438  0.00  0.00    +0.000 A 
ATOM     22  C   UNL     1      -0.612   9.363  17.621  0.00  0.00    +0.000 A 
ATOM     23  C   UNL     1      -0.780  10.486  18.426  0.00  0.00    +0.000 A 
ATOM     24 CL   UNL     1      -2.360  11.096  18.727  0.00  0.00    +0.000 Cl
ATOM     25  C   UNL     1       0.322  11.103  19.009  0.00  0.00    +0.000 A 
ATOM     26  C   UNL     1       1.595  10.560  18.825  0.00  0.00    +0.000 A 
ENDBRANCH  19  20
ENDBRANCH   6  19
TORSDOF 3
ENDMDL
MODEL 8
REMARK VINA RESULT:      -6.4      2.808      5.594
REMARK  Name = 
REMARK  5 active torsions:
REMARK  status: ('A' for Active; 'I' for Inactive)
REMARK    1  A    between atoms: C_1  and  C_2
REMARK    2  A    between atoms: N_6  and  C_7
REMARK    3  A    between atoms: C_7  and  C_8
REMARK    4  A    between atoms: C_17  and  C_18
REMARK    5  A    between atoms: N_20  and  C_21
REMARK                            x       y       z     vdW  Elec       q    Type
REMARK                         _______ _______ _______ _____ _____    ______ ____
ROOT
ATOM      1  C   UNL     1      -3.734  10.221  15.842  0.00  0.00    +0.000 C 
ATOM      2  C   UNL     1      -2.891  10.528  17.037  0.00  0.00    +0.000 A 
ATOM      3  C   UNL     1      -1.651  10.036  17.094  0.00  0.00    +0.000 A 
ATOM      4  C   UNL     1      -0.766  10.332  18.215  0.00  0.00    +0.000 A 
ATOM      5  O   UNL     1       0.332   9.806  18.296  0.00  0.00    +0.000 OA
ATOM      6  N   UNL     1      -1.224  11.288  19.209  0.00  0.00    +0.000 N 
ATOM      7  C   UNL     1      -2.608  11.705  19.198  0.00  0.00    +0.000 A 
ATOM      8  C   UNL     1      -3.403  11.335  18.099  0.00  0.00    +0.000 A 
ATOM      9  C   UNL     1      -4.678  11.908  18.301  0.00  0.00    +0.000 A 
ATOM     10  C   UNL     1      -5.926  11.900  17.490  0.00  0.00    +0.000 C 
ATOM     11  N   UNL     1      -4.716  12.581  19.442  0.00  0.00    +0.000 NA
ATOM     12  N   UNL     1      -3.488  12.483  20.029  0.00  0.00    +0.000 N 
ENDROOT
BRANCH  12  13
ATOM     13  C   UNL     1      -3.366  13.194  21.282  0.00  0.00    +0.000 A 
ATOM     14  C   UNL     1      -3.196  12.492  22.501  0.00  0.00    +0.000 A 
ATOM     15  C   UNL     1      -3.205  13.162  23.734  0.00  0.00    +0.000 A 
ATOM     16  C   UNL     1      -3.434  14.533  23.794  0.00  0.00    +0.000 A 
ATOM     17  C   UNL     1      -3.536  15.240  22.613  0.00  0.00    +0.000 A 
ATOM     18  C   UNL     1      -3.420  14.576  21.390  0.00  0.00    +0.000 A 
ENDBRANCH  12  13
BRANCH   6  19
ATOM     19  C   UNL     1      -0.140  11.648  20.150  0.00  0.00    +0.000 C 
BRANCH  19  20
ATOM     20  C   UNL     1       0.031  13.135  20.385  0.00  0.00    +0.000 A 
ATOM     21  C   UNL     1      -0.093  14.088  19.365  0.00  0.00    +0.000 A 
ATOM     22  C   UNL     1      -0.123  15.451  19.672  0.00  0.00    +0.000 A 
ATOM     23  C   UNL     1       0.010  15.873  20.992  0.00  0.00    +0.000 A 
ATOM     24 CL   UNL     1      -0.128  17.544  21.375  0.00  0.00    +0.000 Cl
ATOM     25  C   UNL     1       0.227  14.947  22.007  0.00  0.00    +0.000 A 
ATOM     26  C   UNL     1       0.261  13.585  21.703  0.00  0.00    +0.000 A 
ENDBRANCH  19  20
ENDBRANCH   6  19
TORSDOF 3
ENDMDL
MODEL 9
REMARK VINA RESULT:      -6.4      2.967      5.684
REMARK  Name = 
REMARK  5 active torsions:
REMARK  status: ('A' for Active; 'I' for Inactive)
REMARK    1  A    between atoms: C_1  and  C_2
REMARK    2  A    between atoms: N_6  and  C_7
REMARK    3  A    between atoms: C_7  and  C_8
REMARK    4  A    between atoms: C_17  and  C_18
REMARK    5  A    between atoms: N_20  and  C_21
REMARK                            x       y       z     vdW  Elec       q    Type
REMARK                         _______ _______ _______ _____ _____    ______ ____
ROOT
ATOM      1  C   UNL     1      -3.608  10.087  16.119  0.00  0.00    +0.000 C 
ATOM      2  C   UNL     1      -2.622  10.408  17.196  0.00  0.00    +0.000 A 
ATOM      3  C   UNL     1      -1.401   9.871  17.132  0.00  0.00    +0.000 A 
ATOM      4  C   UNL     1      -0.383  10.176  18.131  0.00  0.00    +0.000 A 
ATOM      5  O   UNL     1       0.699   9.612  18.108  0.00  0.00    +0.000 OA
ATOM      6  N   UNL     1      -0.691  11.186  19.129  0.00  0.00    +0.000 N 
ATOM      7  C   UNL     1      -2.052  11.655  19.258  0.00  0.00    +0.000 A 
ATOM      8  C   UNL     1      -2.981  11.274  18.274  0.00  0.00    +0.000 A 
ATOM      9  C   UNL     1      -4.204  11.903  18.597  0.00  0.00    +0.000 A 
ATOM     10  C   UNL     1      -5.537  11.911  17.934  0.00  0.00    +0.000 C 
ATOM     11  N   UNL     1      -4.086  12.620  19.704  0.00  0.00    +0.000 NA
ATOM     12  N   UNL     1      -2.802  12.498  20.150  0.00  0.00    +0.000 N 
ENDROOT
BRANCH  12  13
ATOM     13  C   UNL     1      -2.513  13.252  21.350  0.00  0.00    +0.000 A 
ATOM     14  C   UNL     1      -2.889  14.613  21.460  0.00  0.00    +0.000 A 
ATOM     15  C   UNL     1      -2.502  15.388  22.564  0.00  0.00    +0.000 A 
ATOM     16  C   UNL     1      -1.691  14.850  23.558  0.00  0.00    +0.000 A 
ATOM     17  C   UNL     1      -1.371  13.509  23.498  0.00  0.00    +0.000 A 
ATOM     18  C   UNL     1      -1.850  12.723  22.448  0.00  0.00    +0.000 A 
ENDBRANCH  12  13
BRANCH   6  19
ATOM     19  C   UNL     1       0.507  11.541  19.923  0.00  0.00    +0.000 C 
BRANCH  19  20
ATOM     20  C   UNL     1       1.195  12.822  19.500  0.00  0.00    +0.000 A 
ATOM     21  C   UNL     1       2.356  12.842  18.716  0.00  0.00    +0.000 A 
ATOM     22  C   UNL     1       2.833  14.046  18.191  0.00  0.00    +0.000 A 
ATOM     23  C   UNL     1       2.179  15.241  18.477  0.00  0.00    +0.000 A 
ATOM     24 CL   UNL     1       2.712  16.705  17.748  0.00  0.00    +0.000 Cl
ATOM     25  C   UNL     1       1.080  15.254  19.329  0.00  0.00    +0.000 A 
ATOM     26  C   UNL     1       0.603  14.053  19.858  0.00  0.00    +0.000 A 
ENDBRANCH  19  20
ENDBRANCH   6  19
TORSDOF 3
ENDMDL
