MODEL 1
REMARK VINA RESULT:      -8.0      0.000      0.000
REMARK  Name = 
REMARK  7 active torsions:
REMARK  status: ('A' for Active; 'I' for Inactive)
REMARK    1  A    between atoms: C_1  and  C_2
REMARK    2  A    between atoms: C_4  and  C_5
REMARK    3  A    between atoms: C_8  and  C_9
REMARK    4  A    between atoms: C_12  and  N_13
REMARK    5  A    between atoms: C_14  and  C_16
REMARK    6  A    between atoms: C_16  and  O_17
REMARK    7  A    between atoms: O_17  and  C_18
REMARK                            x       y       z     vdW  Elec       q    Type
REMARK                         _______ _______ _______ _____ _____    ______ ____
ROOT
ATOM      1  C   UNL     1       1.716   8.017  19.274  0.00  0.00    +0.000 A 
ATOM      2  C   UNL     1       2.084   7.396  18.068  0.00  0.00    +0.000 A 
ATOM      3  C   UNL     1       2.403   6.032  18.031  0.00  0.00    +0.000 A 
ATOM      4  C   UNL     1       2.363   5.283  19.205  0.00  0.00    +0.000 A 
ATOM      5  C   UNL     1       2.002   5.878  20.411  0.00  0.00    +0.000 A 
ATOM      6  C   UNL     1       1.689   7.239  20.443  0.00  0.00    +0.000 A 
ENDROOT
BRANCH   1  14
ATOM      7  C   UNL     1       0.427  15.248  18.987  0.00  0.00    +0.000 C 
ATOM      8  C   UNL     1       0.454  13.815  19.438  0.00  0.00    +0.000 A 
ATOM      9  C   UNL     1      -0.136  13.437  20.657  0.00  0.00    +0.000 A 
ATOM     10  C   UNL     1      -0.138  12.104  21.117  0.00  0.00    +0.000 A 
ATOM     11  C   UNL     1      -0.767  11.730  22.420  0.00  0.00    +0.000 C 
ATOM     12  C   UNL     1       0.493  11.193  20.266  0.00  0.00    +0.000 A 
ATOM     13  O   UNL     1       0.649   9.845  20.452  0.00  0.00    +0.000 OA
ATOM     14  C   UNL     1       1.343   9.431  19.342  0.00  0.00    +0.000 A 
ATOM     15  N   UNL     1       1.625  10.395  18.481  0.00  0.00    +0.000 NA
ATOM     16  C   UNL     1       1.089  11.517  19.059  0.00  0.00    +0.000 A 
ATOM     17  C   UNL     1       1.074  12.848  18.625  0.00  0.00    +0.000 A 
ENDBRANCH   1  14
BRANCH   4  18
ATOM     18  N   UNL     1       2.652   3.918  19.187  0.00  0.00    +0.000 N 
ATOM     19  C   UNL     1       3.887   3.355  19.388  0.00  0.00    +0.000 C 
ATOM     20  O   UNL     1       4.017   2.132  19.288  0.00  0.00    +0.000 OA
ATOM     21  H   UNL     1       1.940   3.277  18.858  0.00  0.00    +0.000 HD
BRANCH  19  22
ATOM     22  C   UNL     1       5.064   4.264  19.724  0.00  0.00    +0.000 C 
BRANCH  22  23
ATOM     23  O   UNL     1       6.063   4.048  18.733  0.00  0.00    +0.000 OA
BRANCH  23  24
ATOM     24  C   UNL     1       5.862   4.630  17.514  0.00  0.00    +0.000 A 
ATOM     25  C   UNL     1       5.702   6.019  17.552  0.00  0.00    +0.000 A 
ATOM     26  C   UNL     1       5.497   6.746  16.379  0.00  0.00    +0.000 A 
ATOM     27  C   UNL     1       5.449   6.083  15.155  0.00  0.00    +0.000 A 
ATOM     28  C   UNL     1       5.604   4.698  15.115  0.00  0.00    +0.000 A 
ATOM     29 CL   UNL     1       5.542   3.877  13.603  0.00  0.00    +0.000 Cl
ATOM     30  C   UNL     1       5.809   3.967  16.288  0.00  0.00    +0.000 A 
ENDBRANCH  23  24
ENDBRANCH  22  23
ENDBRANCH  19  22
ENDBRANCH   4  18
TORSDOF 5
ENDMDL
MODEL 2
REMARK VINA RESULT:      -7.9      5.596      7.408
REMARK  Name = 
REMARK  7 active torsions:
REMARK  status: ('A' for Active; 'I' for Inactive)
REMARK    1  A    between atoms: C_1  and  C_2
REMARK    2  A    between atoms: C_4  and  C_5
REMARK    3  A    between atoms: C_8  and  C_9
REMARK    4  A    between atoms: C_12  and  N_13
REMARK    5  A    between atoms: C_14  and  C_16
REMARK    6  A    between atoms: C_16  and  O_17
REMARK    7  A    between atoms: O_17  and  C_18
REMARK                            x       y       z     vdW  Elec       q    Type
REMARK                         _______ _______ _______ _____ _____    ______ ____
ROOT
ATOM      1  C   UNL     1       8.177   8.410  18.332  0.00  0.00    +0.000 A 
ATOM      2  C   UNL     1       8.472   7.276  19.107  0.00  0.00    +0.000 A 
ATOM      3  C   UNL     1       7.806   6.062  18.887  0.00  0.00    +0.000 A 
ATOM      4  C   UNL     1       6.833   5.981  17.893  0.00  0.00    +0.000 A 
ATOM      5  C   UNL     1       6.523   7.092  17.114  0.00  0.00    +0.000 A 
ATOM      6  C   UNL     1       7.187   8.301  17.340  0.00  0.00    +0.000 A 
ENDROOT
BRANCH   1  14
ATOM      7  C   UNL     1      12.090  14.631  18.476  0.00  0.00    +0.000 C 
ATOM      8  C   UNL     1      11.218  13.477  18.886  0.00  0.00    +0.000 A 
ATOM      9  C   UNL     1      10.750  13.367  20.208  0.00  0.00    +0.000 A 
ATOM     10  C   UNL     1       9.928  12.304  20.634  0.00  0.00    +0.000 A 
ATOM     11  C   UNL     1       9.450  12.208  22.047  0.00  0.00    +0.000 C 
ATOM     12  C   UNL     1       9.618  11.373  19.641  0.00  0.00    +0.000 A 
ATOM     13  O   UNL     1       8.851  10.244  19.764  0.00  0.00    +0.000 OA
ATOM     14  C   UNL     1       8.877   9.683  18.511  0.00  0.00    +0.000 A 
ATOM     15  N   UNL     1       9.581  10.362  17.620  0.00  0.00    +0.000 NA
ATOM     16  C   UNL     1      10.055  11.436  18.329  0.00  0.00    +0.000 A 
ATOM     17  C   UNL     1      10.869  12.504  17.932  0.00  0.00    +0.000 A 
ENDBRANCH   1  14
BRANCH   4  18
ATOM     18  N   UNL     1       6.175   4.776  17.640  0.00  0.00    +0.000 N 
ATOM     19  C   UNL     1       4.938   4.420  18.117  0.00  0.00    +0.000 C 
ATOM     20  O   UNL     1       4.494   3.297  17.864  0.00  0.00    +0.000 OA
ATOM     21  H   UNL     1       6.691   4.028  17.192  0.00  0.00    +0.000 HD
BRANCH  19  22
ATOM     22  C   UNL     1       4.153   5.427  18.950  0.00  0.00    +0.000 C 
BRANCH  22  23
ATOM     23  O   UNL     1       3.253   6.094  18.071  0.00  0.00    +0.000 OA
BRANCH  23  24
ATOM     24  C   UNL     1       2.585   7.174  18.571  0.00  0.00    +0.000 A 
ATOM     25  C   UNL     1       2.356   8.197  17.643  0.00  0.00    +0.000 A 
ATOM     26  C   UNL     1       1.677   9.357  18.014  0.00  0.00    +0.000 A 
ATOM     27  C   UNL     1       1.222   9.503  19.322  0.00  0.00    +0.000 A 
ATOM     28  C   UNL     1       1.453   8.488  20.250  0.00  0.00    +0.000 A 
ATOM     29 CL   UNL     1       0.894   8.669  21.868  0.00  0.00    +0.000 Cl
ATOM     30  C   UNL     1       2.133   7.325  19.882  0.00  0.00    +0.000 A 
ENDBRANCH  23  24
ENDBRANCH  22  23
ENDBRANCH  19  22
ENDBRANCH   4  18
TORSDOF 5
ENDMDL
MODEL 3
REMARK VINA RESULT:      -7.9      4.975      6.944
REMARK  Name = 
REMARK  7 active torsions:
REMARK  status: ('A' for Active; 'I' for Inactive)
REMARK    1  A    between atoms: C_1  and  C_2
REMARK    2  A    between atoms: C_4  and  C_5
REMARK    3  A    between atoms: C_8  and  C_9
REMARK    4  A    between atoms: C_12  and  N_13
REMARK    5  A    between atoms: C_14  and  C_16
REMARK    6  A    between atoms: C_16  and  O_17
REMARK    7  A    between atoms: O_17  and  C_18
REMARK                            x       y       z     vdW  Elec       q    Type
REMARK                         _______ _______ _______ _____ _____    ______ ____
ROOT
ATOM      1  C   UNL     1       7.793   7.859  18.085  0.00  0.00    +0.000 A 
ATOM      2  C   UNL     1       6.765   7.732  17.136  0.00  0.00    +0.000 A 
ATOM      3  C   UNL     1       6.124   6.503  16.933  0.00  0.00    +0.000 A 
ATOM      4  C   UNL     1       6.515   5.390  17.673  0.00  0.00    +0.000 A 
ATOM      5  C   UNL     1       7.533   5.492  18.618  0.00  0.00    +0.000 A 
ATOM      6  C   UNL     1       8.172   6.719  18.815  0.00  0.00    +0.000 A 
ENDROOT
BRANCH   1  14
ATOM      7  C   UNL     1      11.535  13.866  20.074  0.00  0.00    +0.000 C 
ATOM      8  C   UNL     1      10.539  12.949  19.420  0.00  0.00    +0.000 A 
ATOM      9  C   UNL     1       9.552  13.463  18.558  0.00  0.00    +0.000 A 
ATOM     10  C   UNL     1       8.601  12.640  17.921  0.00  0.00    +0.000 A 
ATOM     11  C   UNL     1       7.559  13.212  17.015  0.00  0.00    +0.000 C 
ATOM     12  C   UNL     1       8.718  11.279  18.214  0.00  0.00    +0.000 A 
ATOM     13  O   UNL     1       7.937  10.254  17.749  0.00  0.00    +0.000 OA
ATOM     14  C   UNL     1       8.461   9.135  18.349  0.00  0.00    +0.000 A 
ATOM     15  N   UNL     1       9.498   9.369  19.135  0.00  0.00    +0.000 NA
ATOM     16  C   UNL     1       9.669  10.727  19.055  0.00  0.00    +0.000 A 
ATOM     17  C   UNL     1      10.603  11.568  19.674  0.00  0.00    +0.000 A 
ENDBRANCH   1  14
BRANCH   4  18
ATOM     18  N   UNL     1       5.874   4.162  17.505  0.00  0.00    +0.000 N 
ATOM     19  C   UNL     1       4.775   3.726  18.202  0.00  0.00    +0.000 C 
ATOM     20  O   UNL     1       4.340   2.591  17.995  0.00  0.00    +0.000 OA
ATOM     21  H   UNL     1       6.322   3.457  16.931  0.00  0.00    +0.000 HD
BRANCH  19  22
ATOM     22  C   UNL     1       4.131   4.662  19.218  0.00  0.00    +0.000 C 
BRANCH  22  23
ATOM     23  O   UNL     1       2.883   5.082  18.674  0.00  0.00    +0.000 OA
BRANCH  23  24
ATOM     24  C   UNL     1       2.427   6.314  19.048  0.00  0.00    +0.000 A 
ATOM     25  C   UNL     1       1.935   6.379  20.356  0.00  0.00    +0.000 A 
ATOM     26  C   UNL     1       1.444   7.578  20.875  0.00  0.00    +0.000 A 
ATOM     27  C   UNL     1       1.441   8.723  20.082  0.00  0.00    +0.000 A 
ATOM     28  C   UNL     1       1.927   8.660  18.777  0.00  0.00    +0.000 A 
ATOM     29 CL   UNL     1       1.921  10.074  17.797  0.00  0.00    +0.000 Cl
ATOM     30  C   UNL     1       2.419   7.461  18.255  0.00  0.00    +0.000 A 
ENDBRANCH  23  24
ENDBRANCH  22  23
ENDBRANCH  19  22
ENDBRANCH   4  18
TORSDOF 5
ENDMDL
MODEL 4
REMARK VINA RESULT:      -7.9      2.846      4.173
REMARK  Name = 
REMARK  7 active torsions:
REMARK  status: ('A' for Active; 'I' for Inactive)
REMARK    1  A    between atoms: C_1  and  C_2
REMARK    2  A    between atoms: C_4  and  C_5
REMARK    3  A    between atoms: C_8  and  C_9
REMARK    4  A    between atoms: C_12  and  N_13
REMARK    5  A    between atoms: C_14  and  C_16
REMARK    6  A    between atoms: C_16  and  O_17
REMARK    7  A    between atoms: O_17  and  C_18
REMARK                            x       y       z     vdW  Elec       q    Type
REMARK                         _______ _______ _______ _____ _____    ______ ____
ROOT
ATOM      1  C   UNL     1       2.160   8.237  18.576  0.00  0.00    +0.000 A 
ATOM      2  C   UNL     1       2.438   7.216  19.500  0.00  0.00    +0.000 A 
ATOM      3  C   UNL     1       3.553   6.384  19.337  0.00  0.00    +0.000 A 
ATOM      4  C   UNL     1       4.394   6.564  18.241  0.00  0.00    +0.000 A 
ATOM      5  C   UNL     1       4.137   7.568  17.312  0.00  0.00    +0.000 A 
ATOM      6  C   UNL     1       3.021   8.393  17.476  0.00  0.00    +0.000 A 
ENDROOT
BRANCH   1  14
ATOM      7  C   UNL     1      -3.344  12.825  20.214  0.00  0.00    +0.000 C 
ATOM      8  C   UNL     1      -2.458  11.853  19.488  0.00  0.00    +0.000 A 
ATOM      9  C   UNL     1      -2.801  11.393  18.204  0.00  0.00    +0.000 A 
ATOM     10  C   UNL     1      -1.999  10.484  17.485  0.00  0.00    +0.000 A 
ATOM     11  C   UNL     1      -2.390  10.007  16.123  0.00  0.00    +0.000 C 
ATOM     12  C   UNL     1      -0.838  10.079  18.149  0.00  0.00    +0.000 A 
ATOM     13  O   UNL     1       0.119   9.207  17.703  0.00  0.00    +0.000 OA
ATOM     14  C   UNL     1       1.024   9.147  18.734  0.00  0.00    +0.000 A 
ATOM     15  N   UNL     1       0.722   9.906  19.774  0.00  0.00    +0.000 NA
ATOM     16  C   UNL     1      -0.459  10.501  19.412  0.00  0.00    +0.000 A 
ATOM     17  C   UNL     1      -1.274  11.407  20.103  0.00  0.00    +0.000 A 
ENDBRANCH   1  14
BRANCH   4  18
ATOM     18  N   UNL     1       5.523   5.763  18.073  0.00  0.00    +0.000 N 
ATOM     19  C   UNL     1       5.604   4.641  17.286  0.00  0.00    +0.000 C 
ATOM     20  O   UNL     1       6.651   3.988  17.270  0.00  0.00    +0.000 OA
ATOM     21  H   UNL     1       6.319   5.915  18.681  0.00  0.00    +0.000 HD
BRANCH  19  22
ATOM     22  C   UNL     1       4.390   4.235  16.458  0.00  0.00    +0.000 C 
BRANCH  22  23
ATOM     23  O   UNL     1       3.902   3.009  16.995  0.00  0.00    +0.000 OA
BRANCH  23  24
ATOM     24  C   UNL     1       3.000   3.096  18.017  0.00  0.00    +0.000 A 
ATOM     25  C   UNL     1       1.749   3.602  17.647  0.00  0.00    +0.000 A 
ATOM     26  C   UNL     1       0.728   3.738  18.588  0.00  0.00    +0.000 A 
ATOM     27  C   UNL     1       0.956   3.369  19.911  0.00  0.00    +0.000 A 
ATOM     28  C   UNL     1       2.203   2.869  20.283  0.00  0.00    +0.000 A 
ATOM     29 CL   UNL     1       2.485   2.417  21.920  0.00  0.00    +0.000 Cl
ATOM     30  C   UNL     1       3.228   2.733  19.344  0.00  0.00    +0.000 A 
ENDBRANCH  23  24
ENDBRANCH  22  23
ENDBRANCH  19  22
ENDBRANCH   4  18
TORSDOF 5
ENDMDL
MODEL 5
REMARK VINA RESULT:      -7.9      5.165      7.051
REMARK  Name = 
REMARK  7 active torsions:
REMARK  status: ('A' for Active; 'I' for Inactive)
REMARK    1  A    between atoms: C_1  and  C_2
REMARK    2  A    between atoms: C_4  and  C_5
REMARK    3  A    between atoms: C_8  and  C_9
REMARK    4  A    between atoms: C_12  and  N_13
REMARK    5  A    between atoms: C_14  and  C_16
REMARK    6  A    between atoms: C_16  and  O_17
REMARK    7  A    between atoms: O_17  and  C_18
REMARK                            x       y       z     vdW  Elec       q    Type
REMARK                         _______ _______ _______ _____ _____    ______ ____
ROOT
ATOM      1  C   UNL     1       7.885   7.859  18.130  0.00  0.00    +0.000 A 
ATOM      2  C   UNL     1       6.974   7.670  17.077  0.00  0.00    +0.000 A 
ATOM      3  C   UNL     1       6.353   6.430  16.879  0.00  0.00    +0.000 A 
ATOM      4  C   UNL     1       6.649   5.367  17.729  0.00  0.00    +0.000 A 
ATOM      5  C   UNL     1       7.550   5.531  18.778  0.00  0.00    +0.000 A 
ATOM      6  C   UNL     1       8.169   6.769  18.970  0.00  0.00    +0.000 A 
ENDROOT
BRANCH   1  14
ATOM      7  C   UNL     1      11.482  13.959  20.102  0.00  0.00    +0.000 C 
ATOM      8  C   UNL     1      10.515  13.016  19.443  0.00  0.00    +0.000 A 
ATOM      9  C   UNL     1       9.535  13.500  18.558  0.00  0.00    +0.000 A 
ATOM     10  C   UNL     1       8.610  12.652  17.915  0.00  0.00    +0.000 A 
ATOM     11  C   UNL     1       7.574  13.192  16.983  0.00  0.00    +0.000 C 
ATOM     12  C   UNL     1       8.746  11.297  18.228  0.00  0.00    +0.000 A 
ATOM     13  O   UNL     1       7.992  10.252  17.764  0.00  0.00    +0.000 OA
ATOM     14  C   UNL     1       8.525   9.151  18.388  0.00  0.00    +0.000 A 
ATOM     15  N   UNL     1       9.544   9.414  19.189  0.00  0.00    +0.000 NA
ATOM     16  C   UNL     1       9.691  10.774  19.094  0.00  0.00    +0.000 A 
ATOM     17  C   UNL     1      10.599  11.639  19.717  0.00  0.00    +0.000 A 
ENDBRANCH   1  14
BRANCH   4  18
ATOM     18  N   UNL     1       6.025   4.130  17.565  0.00  0.00    +0.000 N 
ATOM     19  C   UNL     1       4.673   3.921  17.446  0.00  0.00    +0.000 C 
ATOM     20  O   UNL     1       4.246   2.767  17.364  0.00  0.00    +0.000 OA
ATOM     21  H   UNL     1       6.577   3.289  17.687  0.00  0.00    +0.000 HD
BRANCH  19  22
ATOM     22  C   UNL     1       3.742   5.128  17.424  0.00  0.00    +0.000 C 
BRANCH  22  23
ATOM     23  O   UNL     1       3.466   5.474  18.777  0.00  0.00    +0.000 OA
BRANCH  23  24
ATOM     24  C   UNL     1       2.796   6.644  18.993  0.00  0.00    +0.000 A 
ATOM     25  C   UNL     1       2.810   7.530  17.910  0.00  0.00    +0.000 A 
ATOM     26  C   UNL     1       2.158   8.761  17.987  0.00  0.00    +0.000 A 
ATOM     27  C   UNL     1       1.487   9.115  19.155  0.00  0.00    +0.000 A 
ATOM     28  C   UNL     1       1.476   8.237  20.237  0.00  0.00    +0.000 A 
ATOM     29 CL   UNL     1       0.649   8.675  21.682  0.00  0.00    +0.000 Cl
ATOM     30  C   UNL     1       2.128   7.003  20.164  0.00  0.00    +0.000 A 
ENDBRANCH  23  24
ENDBRANCH  22  23
ENDBRANCH  19  22
ENDBRANCH   4  18
TORSDOF 5
ENDMDL
MODEL 6
REMARK VINA RESULT:      -7.8      2.504      3.764
REMARK  Name = 
REMARK  7 active torsions:
REMARK  status: ('A' for Active; 'I' for Inactive)
REMARK    1  A    between atoms: C_1  and  C_2
REMARK    2  A    between atoms: C_4  and  C_5
REMARK    3  A    between atoms: C_8  and  C_9
REMARK    4  A    between atoms: C_12  and  N_13
REMARK    5  A    between atoms: C_14  and  C_16
REMARK    6  A    between atoms: C_16  and  O_17
REMARK    7  A    between atoms: O_17  and  C_18
REMARK                            x       y       z     vdW  Elec       q    Type
REMARK                         _______ _______ _______ _____ _____    ______ ____
ROOT
ATOM      1  C   UNL     1       2.126   8.134  18.621  0.00  0.00    +0.000 A 
ATOM      2  C   UNL     1       2.173   6.764  18.929  0.00  0.00    +0.000 A 
ATOM      3  C   UNL     1       3.112   5.922  18.320  0.00  0.00    +0.000 A 
ATOM      4  C   UNL     1       4.007   6.446  17.390  0.00  0.00    +0.000 A 
ATOM      5  C   UNL     1       3.978   7.800  17.068  0.00  0.00    +0.000 A 
ATOM      6  C   UNL     1       3.037   8.635  17.675  0.00  0.00    +0.000 A 
ENDROOT
BRANCH   1  14
ATOM      7  C   UNL     1      -2.561  13.210  21.129  0.00  0.00    +0.000 C 
ATOM      8  C   UNL     1      -1.611  12.048  21.059  0.00  0.00    +0.000 A 
ATOM      9  C   UNL     1      -1.273  11.330  22.220  0.00  0.00    +0.000 A 
ATOM     10  C   UNL     1      -0.389  10.231  22.200  0.00  0.00    +0.000 A 
ATOM     11  C   UNL     1      -0.041   9.488  23.450  0.00  0.00    +0.000 C 
ATOM     12  C   UNL     1       0.121   9.915  20.939  0.00  0.00    +0.000 A 
ATOM     13  O   UNL     1       0.996   8.912  20.618  0.00  0.00    +0.000 OA
ATOM     14  C   UNL     1       1.181   9.049  19.264  0.00  0.00    +0.000 A 
ATOM     15  N   UNL     1       0.496  10.037  18.714  0.00  0.00    +0.000 NA
ATOM     16  C   UNL     1      -0.180  10.593  19.769  0.00  0.00    +0.000 A 
ATOM     17  C   UNL     1      -1.063  11.679  19.817  0.00  0.00    +0.000 A 
ENDBRANCH   1  14
BRANCH   4  18
ATOM     18  N   UNL     1       4.967   5.632  16.790  0.00  0.00    +0.000 N 
ATOM     19  C   UNL     1       5.865   4.828  17.447  0.00  0.00    +0.000 C 
ATOM     20  O   UNL     1       6.703   4.199  16.795  0.00  0.00    +0.000 OA
ATOM     21  H   UNL     1       5.134   5.732  15.795  0.00  0.00    +0.000 HD
BRANCH  19  22
ATOM     22  C   UNL     1       5.799   4.743  18.968  0.00  0.00    +0.000 C 
BRANCH  22  23
ATOM     23  O   UNL     1       5.539   3.384  19.305  0.00  0.00    +0.000 OA
BRANCH  23  24
ATOM     24  C   UNL     1       4.230   3.001  19.369  0.00  0.00    +0.000 A 
ATOM     25  C   UNL     1       3.708   2.513  18.165  0.00  0.00    +0.000 A 
ATOM     26  C   UNL     1       2.385   2.078  18.086  0.00  0.00    +0.000 A 
ATOM     27  C   UNL     1       1.572   2.131  19.215  0.00  0.00    +0.000 A 
ATOM     28  C   UNL     1       2.088   2.620  20.414  0.00  0.00    +0.000 A 
ATOM     29 CL   UNL     1       1.083   2.688  21.810  0.00  0.00    +0.000 Cl
ATOM     30  C   UNL     1       3.413   3.058  20.497  0.00  0.00    +0.000 A 
ENDBRANCH  23  24
ENDBRANCH  22  23
ENDBRANCH  19  22
ENDBRANCH   4  18
TORSDOF 5
ENDMDL
MODEL 7
REMARK VINA RESULT:      -7.8      5.753      7.562
REMARK  Name = 
REMARK  7 active torsions:
REMARK  status: ('A' for Active; 'I' for Inactive)
REMARK    1  A    between atoms: C_1  and  C_2
REMARK    2  A    between atoms: C_4  and  C_5
REMARK    3  A    between atoms: C_8  and  C_9
REMARK    4  A    between atoms: C_12  and  N_13
REMARK    5  A    between atoms: C_14  and  C_16
REMARK    6  A    between atoms: C_16  and  O_17
REMARK    7  A    between atoms: O_17  and  C_18
REMARK                            x       y       z     vdW  Elec       q    Type
REMARK                         _______ _______ _______ _____ _____    ______ ____
ROOT
ATOM      1  C   UNL     1       8.461   8.715  18.542  0.00  0.00    +0.000 A 
ATOM      2  C   UNL     1       8.599   7.530  19.284  0.00  0.00    +0.000 A 
ATOM      3  C   UNL     1       8.075   6.320  18.811  0.00  0.00    +0.000 A 
ATOM      4  C   UNL     1       7.399   6.292  17.593  0.00  0.00    +0.000 A 
ATOM      5  C   UNL     1       7.249   7.454  16.841  0.00  0.00    +0.000 A 
ATOM      6  C   UNL     1       7.770   8.658  17.319  0.00  0.00    +0.000 A 
ENDROOT
BRANCH   1  14
ATOM      7  C   UNL     1      10.812  15.019  21.502  0.00  0.00    +0.000 C 
ATOM      8  C   UNL     1      10.530  13.913  20.525  0.00  0.00    +0.000 A 
ATOM      9  C   UNL     1      10.931  14.026  19.181  0.00  0.00    +0.000 A 
ATOM     10  C   UNL     1      10.691  13.012  18.232  0.00  0.00    +0.000 A 
ATOM     11  C   UNL     1      11.122  13.160  16.808  0.00  0.00    +0.000 C 
ATOM     12  C   UNL     1      10.025  11.891  18.731  0.00  0.00    +0.000 A 
ATOM     13  O   UNL     1       9.656  10.763  18.046  0.00  0.00    +0.000 OA
ATOM     14  C   UNL     1       9.027   9.989  18.990  0.00  0.00    +0.000 A 
ATOM     15  N   UNL     1       8.978  10.527  20.197  0.00  0.00    +0.000 NA
ATOM     16  C   UNL     1       9.609  11.734  20.043  0.00  0.00    +0.000 A 
ATOM     17  C   UNL     1       9.863  12.756  20.966  0.00  0.00    +0.000 A 
ENDBRANCH   1  14
BRANCH   4  18
ATOM     18  N   UNL     1       6.890   5.094  17.091  0.00  0.00    +0.000 N 
ATOM     19  C   UNL     1       5.562   4.763  16.990  0.00  0.00    +0.000 C 
ATOM     20  O   UNL     1       5.247   3.644  16.579  0.00  0.00    +0.000 OA
ATOM     21  H   UNL     1       7.534   4.331  16.914  0.00  0.00    +0.000 HD
BRANCH  19  22
ATOM     22  C   UNL     1       4.515   5.795  17.395  0.00  0.00    +0.000 C 
BRANCH  22  23
ATOM     23  O   UNL     1       4.212   5.573  18.769  0.00  0.00    +0.000 OA
BRANCH  23  24
ATOM     24  C   UNL     1       3.155   4.754  19.046  0.00  0.00    +0.000 A 
ATOM     25  C   UNL     1       2.270   4.566  17.978  0.00  0.00    +0.000 A 
ATOM     26  C   UNL     1       1.149   3.747  18.116  0.00  0.00    +0.000 A 
ATOM     27  C   UNL     1       0.905   3.110  19.330  0.00  0.00    +0.000 A 
ATOM     28  C   UNL     1       1.783   3.298  20.396  0.00  0.00    +0.000 A 
ATOM     29 CL   UNL     1       1.481   2.513  21.898  0.00  0.00    +0.000 Cl
ATOM     30  C   UNL     1       2.906   4.118  20.262  0.00  0.00    +0.000 A 
ENDBRANCH  23  24
ENDBRANCH  22  23
ENDBRANCH  19  22
ENDBRANCH   4  18
TORSDOF 5
ENDMDL
MODEL 8
REMARK VINA RESULT:      -7.7      1.773      2.172
REMARK  Name = 
REMARK  7 active torsions:
REMARK  status: ('A' for Active; 'I' for Inactive)
REMARK    1  A    between atoms: C_1  and  C_2
REMARK    2  A    between atoms: C_4  and  C_5
REMARK    3  A    between atoms: C_8  and  C_9
REMARK    4  A    between atoms: C_12  and  N_13
REMARK    5  A    between atoms: C_14  and  C_16
REMARK    6  A    between atoms: C_16  and  O_17
REMARK    7  A    between atoms: O_17  and  C_18
REMARK                            x       y       z     vdW  Elec       q    Type
REMARK                         _______ _______ _______ _____ _____    ______ ____
ROOT
ATOM      1  C   UNL     1       1.922   6.738  20.128  0.00  0.00    +0.000 A 
ATOM      2  C   UNL     1       3.251   6.481  19.751  0.00  0.00    +0.000 A 
ATOM      3  C   UNL     1       3.741   5.170  19.694  0.00  0.00    +0.000 A 
ATOM      4  C   UNL     1       2.904   4.106  20.022  0.00  0.00    +0.000 A 
ATOM      5  C   UNL     1       1.584   4.337  20.399  0.00  0.00    +0.000 A 
ATOM      6  C   UNL     1       1.101   5.646  20.459  0.00  0.00    +0.000 A 
ENDROOT
BRANCH   1  14
ATOM      7  C   UNL     1      -0.344  13.714  19.640  0.00  0.00    +0.000 C 
ATOM      8  C   UNL     1      -0.097  12.319  20.144  0.00  0.00    +0.000 A 
ATOM      9  C   UNL     1      -0.558  11.926  21.413  0.00  0.00    +0.000 A 
ATOM     10  C   UNL     1      -0.352  10.628  21.925  0.00  0.00    +0.000 A 
ATOM     11  C   UNL     1      -0.847  10.237  23.280  0.00  0.00    +0.000 C 
ATOM     12  C   UNL     1       0.343   9.769  21.071  0.00  0.00    +0.000 A 
ATOM     13  O   UNL     1       0.690   8.463  21.300  0.00  0.00    +0.000 OA
ATOM     14  C   UNL     1       1.367   8.092  20.165  0.00  0.00    +0.000 A 
ATOM     15  N   UNL     1       1.465   9.042  19.249  0.00  0.00    +0.000 NA
ATOM     16  C   UNL     1       0.818  10.110  19.816  0.00  0.00    +0.000 A 
ATOM     17  C   UNL     1       0.597  11.405  19.332  0.00  0.00    +0.000 A 
ENDBRANCH   1  14
BRANCH   4  18
ATOM     18  N   UNL     1       3.364   2.791  19.948  0.00  0.00    +0.000 N 
ATOM     19  C   UNL     1       3.641   2.100  18.795  0.00  0.00    +0.000 C 
ATOM     20  O   UNL     1       3.987   0.918  18.868  0.00  0.00    +0.000 OA
ATOM     21  H   UNL     1       3.362   2.230  20.792  0.00  0.00    +0.000 HD
BRANCH  19  22
ATOM     22  C   UNL     1       3.506   2.818  17.457  0.00  0.00    +0.000 C 
BRANCH  22  23
ATOM     23  O   UNL     1       4.821   3.001  16.941  0.00  0.00    +0.000 OA
BRANCH  23  24
ATOM     24  C   UNL     1       5.349   4.258  17.024  0.00  0.00    +0.000 A 
ATOM     25  C   UNL     1       4.744   5.200  16.185  0.00  0.00    +0.000 A 
ATOM     26  C   UNL     1       5.177   6.526  16.172  0.00  0.00    +0.000 A 
ATOM     27  C   UNL     1       6.225   6.918  17.001  0.00  0.00    +0.000 A 
ATOM     28  C   UNL     1       6.833   5.980  17.835  0.00  0.00    +0.000 A 
ATOM     29 CL   UNL     1       8.130   6.463  18.857  0.00  0.00    +0.000 Cl
ATOM     30  C   UNL     1       6.402   4.651  17.850  0.00  0.00    +0.000 A 
ENDBRANCH  23  24
ENDBRANCH  22  23
ENDBRANCH  19  22
ENDBRANCH   4  18
TORSDOF 5
ENDMDL
MODEL 9
REMARK VINA RESULT:      -7.7      2.609      3.949
REMARK  Name = 
REMARK  7 active torsions:
REMARK  status: ('A' for Active; 'I' for Inactive)
REMARK    1  A    between atoms: C_1  and  C_2
REMARK    2  A    between atoms: C_4  and  C_5
REMARK    3  A    between atoms: C_8  and  C_9
REMARK    4  A    between atoms: C_12  and  N_13
REMARK    5  A    between atoms: C_14  and  C_16
REMARK    6  A    between atoms: C_16  and  O_17
REMARK    7  A    between atoms: O_17  and  C_18
REMARK                            x       y       z     vdW  Elec       q    Type
REMARK                         _______ _______ _______ _____ _____    ______ ____
ROOT
ATOM      1  C   UNL     1       2.577   7.910  18.686  0.00  0.00    +0.000 A 
ATOM      2  C   UNL     1       3.029   6.790  19.404  0.00  0.00    +0.000 A 
ATOM      3  C   UNL     1       4.071   5.993  18.912  0.00  0.00    +0.000 A 
ATOM      4  C   UNL     1       4.661   6.307  17.690  0.00  0.00    +0.000 A 
ATOM      5  C   UNL     1       4.228   7.411  16.960  0.00  0.00    +0.000 A 
ATOM      6  C   UNL     1       3.187   8.201  17.453  0.00  0.00    +0.000 A 
ENDROOT
BRANCH   1  14
ATOM      7  C   UNL     1      -2.703  12.714  20.438  0.00  0.00    +0.000 C 
ATOM      8  C   UNL     1      -1.643  11.652  20.533  0.00  0.00    +0.000 A 
ATOM      9  C   UNL     1      -1.300  11.093  21.776  0.00  0.00    +0.000 A 
ATOM     10  C   UNL     1      -0.315  10.093  21.911  0.00  0.00    +0.000 A 
ATOM     11  C   UNL     1       0.036   9.520  23.246  0.00  0.00    +0.000 C 
ATOM     12  C   UNL     1       0.289   9.705  20.713  0.00  0.00    +0.000 A 
ATOM     13  O   UNL     1       1.273   8.768  20.538  0.00  0.00    +0.000 OA
ATOM     14  C   UNL     1       1.516   8.784  19.187  0.00  0.00    +0.000 A 
ATOM     15  N   UNL     1       0.769   9.638  18.506  0.00  0.00    +0.000 NA
ATOM     16  C   UNL     1      -0.013  10.226  19.467  0.00  0.00    +0.000 A 
ATOM     17  C   UNL     1      -0.997  11.217  19.361  0.00  0.00    +0.000 A 
ENDBRANCH   1  14
BRANCH   4  18
ATOM     18  N   UNL     1       5.716   5.542  17.192  0.00  0.00    +0.000 N 
ATOM     19  C   UNL     1       5.605   4.310  16.596  0.00  0.00    +0.000 C 
ATOM     20  O   UNL     1       6.627   3.712  16.251  0.00  0.00    +0.000 OA
ATOM     21  H   UNL     1       6.664   5.828  17.405  0.00  0.00    +0.000 HD
BRANCH  19  22
ATOM     22  C   UNL     1       4.216   3.718  16.385  0.00  0.00    +0.000 C 
BRANCH  22  23
ATOM     23  O   UNL     1       4.038   2.697  17.362  0.00  0.00    +0.000 OA
BRANCH  23  24
ATOM     24  C   UNL     1       3.023   2.867  18.259  0.00  0.00    +0.000 A 
ATOM     25  C   UNL     1       1.862   3.437  17.722  0.00  0.00    +0.000 A 
ATOM     26  C   UNL     1       0.742   3.661  18.522  0.00  0.00    +0.000 A 
ATOM     27  C   UNL     1       0.777   3.318  19.871  0.00  0.00    +0.000 A 
ATOM     28  C   UNL     1       1.933   2.755  20.410  0.00  0.00    +0.000 A 
ATOM     29 CL   UNL     1       1.979   2.333  22.078  0.00  0.00    +0.000 Cl
ATOM     30  C   UNL     1       3.058   2.529  19.611  0.00  0.00    +0.000 A 
ENDBRANCH  23  24
ENDBRANCH  22  23
ENDBRANCH  19  22
ENDBRANCH   4  18
TORSDOF 5
ENDMDL
