MODEL 1
REMARK VINA RESULT:      -7.9      0.000      0.000
REMARK  Name = 
REMARK  8 active torsions:
REMARK  status: ('A' for Active; 'I' for Inactive)
REMARK    1  A    between atoms: C_1  and  C_2
REMARK    2  A    between atoms: C_2  and  C_3
REMARK    3  A    between atoms: C_3  and  C_4
REMARK    4  A    between atoms: C_6  and  O_7
REMARK    5  A    between atoms: C_9  and  S_10
REMARK    6  A    between atoms: S_10  and  C_11
REMARK    7  A    between atoms: C_11  and  C_12
REMARK    8  A    between atoms: C_14  and  C_15
REMARK                            x       y       z     vdW  Elec       q    Type
REMARK                         _______ _______ _______ _____ _____    ______ ____
ROOT
ATOM      1  C   UNL     1       5.571   6.277  16.189  0.00  0.00    +0.000 C 
ENDROOT
BRANCH   1   2
ATOM      2  C   UNL     1       4.532   6.046  17.220  0.00  0.00    +0.000 A 
ATOM      3  N   UNL     1       4.112   4.929  17.772  0.00  0.00    +0.000 NA
ATOM      4  C   UNL     1       3.150   5.374  18.663  0.00  0.00    +0.000 A 
ATOM      5  N   UNL     1       2.961   6.703  18.623  0.00  0.00    +0.000 NA
ATOM      6  O   UNL     1       3.874   7.149  17.675  0.00  0.00    +0.000 OA
BRANCH   4   7
ATOM      7  C   UNL     1       2.438   4.464  19.552  0.00  0.00    +0.000 A 
ATOM      8  C   UNL     1       2.828   4.343  20.900  0.00  0.00    +0.000 A 
ATOM      9  C   UNL     1       2.141   3.494  21.773  0.00  0.00    +0.000 A 
ATOM     10  C   UNL     1       1.055   2.749  21.316  0.00  0.00    +0.000 A 
ATOM     11  C   UNL     1       0.661   2.854  19.986  0.00  0.00    +0.000 A 
ATOM     12  C   UNL     1       1.349   3.701  19.117  0.00  0.00    +0.000 A 
ATOM     13  F   UNL     1       0.918   3.760  17.848  0.00  0.00    +0.000 F 
ENDBRANCH   4   7
ENDBRANCH   1   2
BRANCH   1  14
ATOM     14  S   UNL     1       6.756   4.892  16.140  0.00  0.00    +0.000 S 
BRANCH  14  19
ATOM     15  C   UNL     1       6.449   3.631  12.434  0.00  0.00    +0.000 A 
ATOM     16  C   UNL     1       7.234   4.505  11.711  0.00  0.00    +0.000 A 
ATOM     17  C   UNL     1       7.852   5.489  12.440  0.00  0.00    +0.000 A 
ATOM     18  N   UNL     1       7.736   5.638  13.760  0.00  0.00    +0.000 NA
ATOM     19  C   UNL     1       6.958   4.747  14.384  0.00  0.00    +0.000 A 
ATOM     20  N   UNL     1       6.311   3.737  13.774  0.00  0.00    +0.000 NA
BRANCH  17  21
ATOM     21  O   UNL     1       8.653   6.416  11.841  0.00  0.00    +0.000 OA
ATOM     22  H   UNL     1       9.561   6.078  11.825  0.00  0.00    +0.000 HD
ENDBRANCH  17  21
BRANCH  15  23
ATOM     23  C   UNL     1       5.732   2.497  11.740  0.00  0.00    +0.000 C 
BRANCH  23  25
ATOM     24  C   UNL     1       6.198   0.053  11.320  0.00  0.00    +0.000 C 
ATOM     25  C   UNL     1       6.704   1.477  11.143  0.00  0.00    +0.000 C 
ENDBRANCH  23  25
ENDBRANCH  15  23
ENDBRANCH  14  19
ENDBRANCH   1  14
TORSDOF 7
ENDMDL
MODEL 2
REMARK VINA RESULT:      -7.9      2.801      3.615
REMARK  Name = 
REMARK  8 active torsions:
REMARK  status: ('A' for Active; 'I' for Inactive)
REMARK    1  A    between atoms: C_1  and  C_2
REMARK    2  A    between atoms: C_2  and  C_3
REMARK    3  A    between atoms: C_3  and  C_4
REMARK    4  A    between atoms: C_6  and  O_7
REMARK    5  A    between atoms: C_9  and  S_10
REMARK    6  A    between atoms: S_10  and  C_11
REMARK    7  A    between atoms: C_11  and  C_12
REMARK    8  A    between atoms: C_14  and  C_15
REMARK                            x       y       z     vdW  Elec       q    Type
REMARK                         _______ _______ _______ _____ _____    ______ ____
ROOT
ATOM      1  C   UNL     1       5.851   6.098  16.899  0.00  0.00    +0.000 C 
ENDROOT
BRANCH   1   2
ATOM      2  C   UNL     1       4.523   6.460  17.446  0.00  0.00    +0.000 A 
ATOM      3  N   UNL     1       4.073   7.608  17.906  0.00  0.00    +0.000 NA
ATOM      4  C   UNL     1       2.767   7.306  18.251  0.00  0.00    +0.000 A 
ATOM      5  N   UNL     1       2.448   6.017  18.050  0.00  0.00    +0.000 NA
ATOM      6  O   UNL     1       3.602   5.458  17.517  0.00  0.00    +0.000 OA
BRANCH   4   7
ATOM      7  C   UNL     1       1.849   8.315  18.767  0.00  0.00    +0.000 A 
ATOM      8  C   UNL     1       1.381   9.341  17.924  0.00  0.00    +0.000 A 
ATOM      9  C   UNL     1       0.481  10.303  18.395  0.00  0.00    +0.000 A 
ATOM     10  C   UNL     1       0.036  10.259  19.715  0.00  0.00    +0.000 A 
ATOM     11  C   UNL     1       0.494   9.253  20.562  0.00  0.00    +0.000 A 
ATOM     12  C   UNL     1       1.392   8.296  20.089  0.00  0.00    +0.000 A 
ATOM     13  F   UNL     1       1.794   7.352  20.953  0.00  0.00    +0.000 F 
ENDBRANCH   4   7
ENDBRANCH   1   2
BRANCH   1  14
ATOM     14  S   UNL     1       5.928   4.318  16.509  0.00  0.00    +0.000 S 
BRANCH  14  19
ATOM     15  C   UNL     1       6.215   3.763  12.633  0.00  0.00    +0.000 A 
ATOM     16  C   UNL     1       7.284   4.547  12.254  0.00  0.00    +0.000 A 
ATOM     17  C   UNL     1       7.896   5.243  13.265  0.00  0.00    +0.000 A 
ATOM     18  N   UNL     1       7.524   5.202  14.546  0.00  0.00    +0.000 NA
ATOM     19  C   UNL     1       6.480   4.415  14.826  0.00  0.00    +0.000 A 
ATOM     20  N   UNL     1       5.809   3.681  13.919  0.00  0.00    +0.000 NA
BRANCH  17  21
ATOM     21  O   UNL     1       8.963   6.055  13.020  0.00  0.00    +0.000 OA
ATOM     22  H   UNL     1       9.626   5.556  12.521  0.00  0.00    +0.000 HD
ENDBRANCH  17  21
BRANCH  15  23
ATOM     23  C   UNL     1       5.473   2.938  11.607  0.00  0.00    +0.000 C 
BRANCH  23  25
ATOM     24  C   UNL     1       3.543   3.742  10.195  0.00  0.00    +0.000 C 
ATOM     25  C   UNL     1       3.979   3.264  11.572  0.00  0.00    +0.000 C 
ENDBRANCH  23  25
ENDBRANCH  15  23
ENDBRANCH  14  19
ENDBRANCH   1  14
TORSDOF 7
ENDMDL
MODEL 3
REMARK VINA RESULT:      -7.8      0.673      1.116
REMARK  Name = 
REMARK  8 active torsions:
REMARK  status: ('A' for Active; 'I' for Inactive)
REMARK    1  A    between atoms: C_1  and  C_2
REMARK    2  A    between atoms: C_2  and  C_3
REMARK    3  A    between atoms: C_3  and  C_4
REMARK    4  A    between atoms: C_6  and  O_7
REMARK    5  A    between atoms: C_9  and  S_10
REMARK    6  A    between atoms: S_10  and  C_11
REMARK    7  A    between atoms: C_11  and  C_12
REMARK    8  A    between atoms: C_14  and  C_15
REMARK                            x       y       z     vdW  Elec       q    Type
REMARK                         _______ _______ _______ _____ _____    ______ ____
ROOT
ATOM      1  C   UNL     1       5.499   6.272  16.272  0.00  0.00    +0.000 C 
ENDROOT
BRANCH   1   2
ATOM      2  C   UNL     1       4.459   6.031  17.299  0.00  0.00    +0.000 A 
ATOM      3  N   UNL     1       4.065   4.913  17.869  0.00  0.00    +0.000 NA
ATOM      4  C   UNL     1       3.084   5.346  18.744  0.00  0.00    +0.000 A 
ATOM      5  N   UNL     1       2.859   6.668  18.678  0.00  0.00    +0.000 NA
ATOM      6  O   UNL     1       3.766   7.123  17.729  0.00  0.00    +0.000 OA
BRANCH   4   7
ATOM      7  C   UNL     1       2.391   4.432  19.644  0.00  0.00    +0.000 A 
ATOM      8  C   UNL     1       2.808   4.308  20.983  0.00  0.00    +0.000 A 
ATOM      9  C   UNL     1       2.140   3.455  21.868  0.00  0.00    +0.000 A 
ATOM     10  C   UNL     1       1.045   2.711  21.430  0.00  0.00    +0.000 A 
ATOM     11  C   UNL     1       0.624   2.820  20.108  0.00  0.00    +0.000 A 
ATOM     12  C   UNL     1       1.293   3.671  19.228  0.00  0.00    +0.000 A 
ATOM     13  F   UNL     1       0.837   3.734  17.969  0.00  0.00    +0.000 F 
ENDBRANCH   4   7
ENDBRANCH   1   2
BRANCH   1  14
ATOM     14  S   UNL     1       6.692   4.894  16.220  0.00  0.00    +0.000 S 
BRANCH  14  19
ATOM     15  C   UNL     1       6.417   3.771  12.468  0.00  0.00    +0.000 A 
ATOM     16  C   UNL     1       7.279   4.612  11.797  0.00  0.00    +0.000 A 
ATOM     17  C   UNL     1       7.937   5.530  12.574  0.00  0.00    +0.000 A 
ATOM     18  N   UNL     1       7.792   5.646  13.895  0.00  0.00    +0.000 NA
ATOM     19  C   UNL     1       6.938   4.790  14.467  0.00  0.00    +0.000 A 
ATOM     20  N   UNL     1       6.245   3.844  13.806  0.00  0.00    +0.000 NA
BRANCH  17  21
ATOM     21  O   UNL     1       8.816   6.420  12.030  0.00  0.00    +0.000 OA
ATOM     22  H   UNL     1       8.355   7.259  11.878  0.00  0.00    +0.000 HD
ENDBRANCH  17  21
BRANCH  15  23
ATOM     23  C   UNL     1       5.649   2.708  11.717  0.00  0.00    +0.000 C 
BRANCH  23  25
ATOM     24  C   UNL     1       3.760   3.735  10.398  0.00  0.00    +0.000 C 
ATOM     25  C   UNL     1       4.149   3.000  11.672  0.00  0.00    +0.000 C 
ENDBRANCH  23  25
ENDBRANCH  15  23
ENDBRANCH  14  19
ENDBRANCH   1  14
TORSDOF 7
ENDMDL
MODEL 4
REMARK VINA RESULT:      -7.7      4.088      6.064
REMARK  Name = 
REMARK  8 active torsions:
REMARK  status: ('A' for Active; 'I' for Inactive)
REMARK    1  A    between atoms: C_1  and  C_2
REMARK    2  A    between atoms: C_2  and  C_3
REMARK    3  A    between atoms: C_3  and  C_4
REMARK    4  A    between atoms: C_6  and  O_7
REMARK    5  A    between atoms: C_9  and  S_10
REMARK    6  A    between atoms: S_10  and  C_11
REMARK    7  A    between atoms: C_11  and  C_12
REMARK    8  A    between atoms: C_14  and  C_15
REMARK                            x       y       z     vdW  Elec       q    Type
REMARK                         _______ _______ _______ _____ _____    ______ ____
ROOT
ATOM      1  C   UNL     1       5.210   3.941  16.668  0.00  0.00    +0.000 C 
ENDROOT
BRANCH   1   2
ATOM      2  C   UNL     1       4.061   4.608  17.324  0.00  0.00    +0.000 A 
ATOM      3  N   UNL     1       3.997   5.741  17.988  0.00  0.00    +0.000 NA
ATOM      4  C   UNL     1       2.658   5.818  18.332  0.00  0.00    +0.000 A 
ATOM      5  N   UNL     1       1.945   4.753  17.932  0.00  0.00    +0.000 NA
ATOM      6  O   UNL     1       2.866   3.955  17.265  0.00  0.00    +0.000 OA
BRANCH   4   7
ATOM      7  C   UNL     1       2.107   6.962  19.047  0.00  0.00    +0.000 A 
ATOM      8  C   UNL     1       1.705   6.830  20.390  0.00  0.00    +0.000 A 
ATOM      9  C   UNL     1       1.197   7.923  21.099  0.00  0.00    +0.000 A 
ATOM     10  C   UNL     1       1.080   9.166  20.480  0.00  0.00    +0.000 A 
ATOM     11  C   UNL     1       1.468   9.312  19.152  0.00  0.00    +0.000 A 
ATOM     12  C   UNL     1       1.974   8.219  18.447  0.00  0.00    +0.000 A 
ATOM     13  F   UNL     1       2.333   8.425  17.171  0.00  0.00    +0.000 F 
ENDBRANCH   4   7
ENDBRANCH   1   2
BRANCH   1  14
ATOM     14  S   UNL     1       6.168   5.131  15.672  0.00  0.00    +0.000 S 
BRANCH  14  19
ATOM     15  C   UNL     1       7.913   7.934  17.797  0.00  0.00    +0.000 A 
ATOM     16  C   UNL     1       8.320   7.288  18.945  0.00  0.00    +0.000 A 
ATOM     17  C   UNL     1       8.022   5.951  19.010  0.00  0.00    +0.000 A 
ATOM     18  N   UNL     1       7.384   5.270  18.056  0.00  0.00    +0.000 NA
ATOM     19  C   UNL     1       7.026   5.972  16.976  0.00  0.00    +0.000 A 
ATOM     20  N   UNL     1       7.273   7.284  16.800  0.00  0.00    +0.000 NA
BRANCH  17  21
ATOM     21  O   UNL     1       8.370   5.200  20.094  0.00  0.00    +0.000 OA
ATOM     22  H   UNL     1       7.592   4.706  20.393  0.00  0.00    +0.000 HD
ENDBRANCH  17  21
BRANCH  15  23
ATOM     23  C   UNL     1       8.201   9.405  17.607  0.00  0.00    +0.000 C 
BRANCH  23  25
ATOM     24  C   UNL     1       9.135  11.483  18.689  0.00  0.00    +0.000 C 
ATOM     25  C   UNL     1       9.114   9.962  18.701  0.00  0.00    +0.000 C 
ENDBRANCH  23  25
ENDBRANCH  15  23
ENDBRANCH  14  19
ENDBRANCH   1  14
TORSDOF 7
ENDMDL
MODEL 5
REMARK VINA RESULT:      -7.6      2.790      3.264
REMARK  Name = 
REMARK  8 active torsions:
REMARK  status: ('A' for Active; 'I' for Inactive)
REMARK    1  A    between atoms: C_1  and  C_2
REMARK    2  A    between atoms: C_2  and  C_3
REMARK    3  A    between atoms: C_3  and  C_4
REMARK    4  A    between atoms: C_6  and  O_7
REMARK    5  A    between atoms: C_9  and  S_10
REMARK    6  A    between atoms: S_10  and  C_11
REMARK    7  A    between atoms: C_11  and  C_12
REMARK    8  A    between atoms: C_14  and  C_15
REMARK                            x       y       z     vdW  Elec       q    Type
REMARK                         _______ _______ _______ _____ _____    ______ ____
ROOT
ATOM      1  C   UNL     1       5.183   6.332  16.422  0.00  0.00    +0.000 C 
ENDROOT
BRANCH   1   2
ATOM      2  C   UNL     1       4.123   6.575  17.428  0.00  0.00    +0.000 A 
ATOM      3  N   UNL     1       3.573   7.699  17.833  0.00  0.00    +0.000 NA
ATOM      4  C   UNL     1       2.645   7.265  18.765  0.00  0.00    +0.000 A 
ATOM      5  N   UNL     1       2.660   5.936  18.950  0.00  0.00    +0.000 NA
ATOM      6  O   UNL     1       3.630   5.478  18.068  0.00  0.00    +0.000 OA
BRANCH   4   7
ATOM      7  C   UNL     1       1.747   8.187  19.450  0.00  0.00    +0.000 A 
ATOM      8  C   UNL     1       1.431   7.989  20.807  0.00  0.00    +0.000 A 
ATOM      9  C   UNL     1       0.591   8.877  21.487  0.00  0.00    +0.000 A 
ATOM     10  C   UNL     1       0.050   9.976  20.822  0.00  0.00    +0.000 A 
ATOM     11  C   UNL     1       0.348  10.183  19.479  0.00  0.00    +0.000 A 
ATOM     12  C   UNL     1       1.186   9.294  18.804  0.00  0.00    +0.000 A 
ATOM     13  F   UNL     1       1.438   9.550  17.511  0.00  0.00    +0.000 F 
ENDBRANCH   4   7
ENDBRANCH   1   2
BRANCH   1  14
ATOM     14  S   UNL     1       5.634   4.565  16.370  0.00  0.00    +0.000 S 
BRANCH  14  19
ATOM     15  C   UNL     1       6.255   3.563  12.625  0.00  0.00    +0.000 A 
ATOM     16  C   UNL     1       7.312   4.355  12.231  0.00  0.00    +0.000 A 
ATOM     17  C   UNL     1       7.809   5.201  13.189  0.00  0.00    +0.000 A 
ATOM     18  N   UNL     1       7.338   5.294  14.434  0.00  0.00    +0.000 NA
ATOM     19  C   UNL     1       6.313   4.489  14.733  0.00  0.00    +0.000 A 
ATOM     20  N   UNL     1       5.752   3.614  13.877  0.00  0.00    +0.000 NA
BRANCH  17  21
ATOM     21  O   UNL     1       8.853   6.037  12.924  0.00  0.00    +0.000 OA
ATOM     22  H   UNL     1       8.798   6.320  12.000  0.00  0.00    +0.000 HD
ENDBRANCH  17  21
BRANCH  15  23
ATOM     23  C   UNL     1       5.637   2.580  11.658  0.00  0.00    +0.000 C 
BRANCH  23  25
ATOM     24  C   UNL     1       6.218   0.157  11.262  0.00  0.00    +0.000 C 
ATOM     25  C   UNL     1       6.666   1.601  11.090  0.00  0.00    +0.000 C 
ENDBRANCH  23  25
ENDBRANCH  15  23
ENDBRANCH  14  19
ENDBRANCH   1  14
TORSDOF 7
ENDMDL
MODEL 6
REMARK VINA RESULT:      -7.6      2.868      7.519
REMARK  Name = 
REMARK  8 active torsions:
REMARK  status: ('A' for Active; 'I' for Inactive)
REMARK    1  A    between atoms: C_1  and  C_2
REMARK    2  A    between atoms: C_2  and  C_3
REMARK    3  A    between atoms: C_3  and  C_4
REMARK    4  A    between atoms: C_6  and  O_7
REMARK    5  A    between atoms: C_9  and  S_10
REMARK    6  A    between atoms: S_10  and  C_11
REMARK    7  A    between atoms: C_11  and  C_12
REMARK    8  A    between atoms: C_14  and  C_15
REMARK                            x       y       z     vdW  Elec       q    Type
REMARK                         _______ _______ _______ _____ _____    ______ ____
ROOT
ATOM      1  C   UNL     1       7.648   6.927  18.229  0.00  0.00    +0.000 C 
ENDROOT
BRANCH   1   2
ATOM      2  C   UNL     1       7.035   6.498  16.950  0.00  0.00    +0.000 A 
ATOM      3  N   UNL     1       7.457   5.642  16.046  0.00  0.00    +0.000 NA
ATOM      4  C   UNL     1       6.443   5.668  15.105  0.00  0.00    +0.000 A 
ATOM      5  N   UNL     1       5.464   6.537  15.402  0.00  0.00    +0.000 NA
ATOM      6  O   UNL     1       5.849   7.083  16.619  0.00  0.00    +0.000 OA
BRANCH   4   7
ATOM      7  C   UNL     1       6.461   4.813  13.924  0.00  0.00    +0.000 A 
ATOM      8  C   UNL     1       5.424   3.886  13.707  0.00  0.00    +0.000 A 
ATOM      9  C   UNL     1       5.411   3.075  12.567  0.00  0.00    +0.000 A 
ATOM     10  C   UNL     1       6.435   3.175  11.625  0.00  0.00    +0.000 A 
ATOM     11  C   UNL     1       7.469   4.084  11.828  0.00  0.00    +0.000 A 
ATOM     12  C   UNL     1       7.479   4.890  12.967  0.00  0.00    +0.000 A 
ATOM     13  F   UNL     1       8.501   5.748  13.103  0.00  0.00    +0.000 F 
ENDBRANCH   4   7
ENDBRANCH   1   2
BRANCH   1  14
ATOM     14  S   UNL     1       7.557   5.594  19.471  0.00  0.00    +0.000 S 
BRANCH  14  19
ATOM     15  C   UNL     1       3.663   5.101  19.376  0.00  0.00    +0.000 A 
ATOM     16  C   UNL     1       3.476   4.026  18.534  0.00  0.00    +0.000 A 
ATOM     17  C   UNL     1       4.619   3.477  18.011  0.00  0.00    +0.000 A 
ATOM     18  N   UNL     1       5.853   3.913  18.266  0.00  0.00    +0.000 NA
ATOM     19  C   UNL     1       5.945   4.958  19.094  0.00  0.00    +0.000 A 
ATOM     20  N   UNL     1       4.894   5.571  19.672  0.00  0.00    +0.000 NA
BRANCH  17  21
ATOM     21  O   UNL     1       4.568   2.410  17.163  0.00  0.00    +0.000 OA
ATOM     22  H   UNL     1       5.457   2.035  17.080  0.00  0.00    +0.000 HD
ENDBRANCH  17  21
BRANCH  15  23
ATOM     23  C   UNL     1       2.477   5.777  20.025  0.00  0.00    +0.000 C 
BRANCH  23  25
ATOM     24  C   UNL     1       2.058   3.813  21.551  0.00  0.00    +0.000 C 
ATOM     25  C   UNL     1       1.447   4.770  20.539  0.00  0.00    +0.000 C 
ENDBRANCH  23  25
ENDBRANCH  15  23
ENDBRANCH  14  19
ENDBRANCH   1  14
TORSDOF 7
ENDMDL
MODEL 7
REMARK VINA RESULT:      -7.5      2.927      3.487
REMARK  Name = 
REMARK  8 active torsions:
REMARK  status: ('A' for Active; 'I' for Inactive)
REMARK    1  A    between atoms: C_1  and  C_2
REMARK    2  A    between atoms: C_2  and  C_3
REMARK    3  A    between atoms: C_3  and  C_4
REMARK    4  A    between atoms: C_6  and  O_7
REMARK    5  A    between atoms: C_9  and  S_10
REMARK    6  A    between atoms: S_10  and  C_11
REMARK    7  A    between atoms: C_11  and  C_12
REMARK    8  A    between atoms: C_14  and  C_15
REMARK                            x       y       z     vdW  Elec       q    Type
REMARK                         _______ _______ _______ _____ _____    ______ ____
ROOT
ATOM      1  C   UNL     1       5.019   6.346  16.436  0.00  0.00    +0.000 C 
ENDROOT
BRANCH   1   2
ATOM      2  C   UNL     1       4.093   6.651  17.551  0.00  0.00    +0.000 A 
ATOM      3  N   UNL     1       3.312   7.689  17.753  0.00  0.00    +0.000 NA
ATOM      4  C   UNL     1       2.693   7.378  18.951  0.00  0.00    +0.000 A 
ATOM      5  N   UNL     1       3.113   6.217  19.480  0.00  0.00    +0.000 NA
ATOM      6  O   UNL     1       4.033   5.734  18.558  0.00  0.00    +0.000 OA
BRANCH   4   7
ATOM      7  C   UNL     1       1.680   8.240  19.548  0.00  0.00    +0.000 A 
ATOM      8  C   UNL     1       1.274   8.037  20.880  0.00  0.00    +0.000 A 
ATOM      9  C   UNL     1       0.322   8.870  21.476  0.00  0.00    +0.000 A 
ATOM     10  C   UNL     1      -0.242   9.919  20.751  0.00  0.00    +0.000 A 
ATOM     11  C   UNL     1       0.146  10.130  19.432  0.00  0.00    +0.000 A 
ATOM     12  C   UNL     1       1.096   9.296  18.840  0.00  0.00    +0.000 A 
ATOM     13  F   UNL     1       1.430   9.553  17.566  0.00  0.00    +0.000 F 
ENDBRANCH   4   7
ENDBRANCH   1   2
BRANCH   1  14
ATOM     14  S   UNL     1       5.348   4.555  16.338  0.00  0.00    +0.000 S 
BRANCH  14  19
ATOM     15  C   UNL     1       6.199   3.619  12.621  0.00  0.00    +0.000 A 
ATOM     16  C   UNL     1       7.307   4.383  12.322  0.00  0.00    +0.000 A 
ATOM     17  C   UNL     1       7.762   5.189  13.334  0.00  0.00    +0.000 A 
ATOM     18  N   UNL     1       7.208   5.269  14.545  0.00  0.00    +0.000 NA
ATOM     19  C   UNL     1       6.138   4.493  14.751  0.00  0.00    +0.000 A 
ATOM     20  N   UNL     1       5.611   3.658  13.836  0.00  0.00    +0.000 NA
BRANCH  17  21
ATOM     21  O   UNL     1       8.849   5.995  13.164  0.00  0.00    +0.000 OA
ATOM     22  H   UNL     1       8.546   6.873  12.890  0.00  0.00    +0.000 HD
ENDBRANCH  17  21
BRANCH  15  23
ATOM     23  C   UNL     1       5.619   2.680  11.588  0.00  0.00    +0.000 C 
BRANCH  23  25
ATOM     24  C   UNL     1       3.754   4.017  10.541  0.00  0.00    +0.000 C 
ATOM     25  C   UNL     1       4.105   2.844  11.442  0.00  0.00    +0.000 C 
ENDBRANCH  23  25
ENDBRANCH  15  23
ENDBRANCH  14  19
ENDBRANCH   1  14
TORSDOF 7
ENDMDL
MODEL 8
REMARK VINA RESULT:      -7.3      4.058      5.794
REMARK  Name = 
REMARK  8 active torsions:
REMARK  status: ('A' for Active; 'I' for Inactive)
REMARK    1  A    between atoms: C_1  and  C_2
REMARK    2  A    between atoms: C_2  and  C_3
REMARK    3  A    between atoms: C_3  and  C_4
REMARK    4  A    between atoms: C_6  and  O_7
REMARK    5  A    between atoms: C_9  and  S_10
REMARK    6  A    between atoms: S_10  and  C_11
REMARK    7  A    between atoms: C_11  and  C_12
REMARK    8  A    between atoms: C_14  and  C_15
REMARK                            x       y       z     vdW  Elec       q    Type
REMARK                         _______ _______ _______ _____ _____    ______ ____
ROOT
ATOM      1  C   UNL     1       3.334   4.973  19.644  0.00  0.00    +0.000 C 
ENDROOT
BRANCH   1   2
ATOM      2  C   UNL     1       2.632   6.277  19.711  0.00  0.00    +0.000 A 
ATOM      3  N   UNL     1       1.853   6.780  20.643  0.00  0.00    +0.000 NA
ATOM      4  C   UNL     1       1.529   8.024  20.130  0.00  0.00    +0.000 A 
ATOM      5  N   UNL     1       2.054   8.252  18.915  0.00  0.00    +0.000 NA
ATOM      6  O   UNL     1       2.785   7.104  18.638  0.00  0.00    +0.000 OA
BRANCH   4   7
ATOM      7  C   UNL     1       0.706   8.976  20.867  0.00  0.00    +0.000 A 
ATOM      8  C   UNL     1       0.726   8.985  22.275  0.00  0.00    +0.000 A 
ATOM      9  C   UNL     1      -0.037   9.907  22.998  0.00  0.00    +0.000 A 
ATOM     10  C   UNL     1      -0.836  10.833  22.329  0.00  0.00    +0.000 A 
ATOM     11  C   UNL     1      -0.869  10.833  20.938  0.00  0.00    +0.000 A 
ATOM     12  C   UNL     1      -0.107   9.912  20.219  0.00  0.00    +0.000 A 
ATOM     13  F   UNL     1      -0.181   9.965  18.881  0.00  0.00    +0.000 F 
ENDBRANCH   4   7
ENDBRANCH   1   2
BRANCH   1  14
ATOM     14  S   UNL     1       3.061   4.173  18.028  0.00  0.00    +0.000 S 
BRANCH  14  19
ATOM     15  C   UNL     1       6.666   5.579  17.362  0.00  0.00    +0.000 A 
ATOM     16  C   UNL     1       7.051   4.985  16.178  0.00  0.00    +0.000 A 
ATOM     17  C   UNL     1       6.131   4.138  15.614  0.00  0.00    +0.000 A 
ATOM     18  N   UNL     1       4.931   3.870  16.132  0.00  0.00    +0.000 NA
ATOM     19  C   UNL     1       4.638   4.490  17.280  0.00  0.00    +0.000 A 
ATOM     20  N   UNL     1       5.458   5.346  17.918  0.00  0.00    +0.000 NA
BRANCH  17  21
ATOM     21  O   UNL     1       6.391   3.489  14.443  0.00  0.00    +0.000 OA
ATOM     22  H   UNL     1       6.121   2.563  14.535  0.00  0.00    +0.000 HD
ENDBRANCH  17  21
BRANCH  15  23
ATOM     23  C   UNL     1       7.592   6.544  18.066  0.00  0.00    +0.000 C 
BRANCH  23  25
ATOM     24  C   UNL     1       8.412   8.927  18.181  0.00  0.00    +0.000 C 
ATOM     25  C   UNL     1       7.695   7.885  17.337  0.00  0.00    +0.000 C 
ENDBRANCH  23  25
ENDBRANCH  15  23
ENDBRANCH  14  19
ENDBRANCH   1  14
TORSDOF 7
ENDMDL
MODEL 9
REMARK VINA RESULT:      -7.3      3.374      5.166
REMARK  Name = 
REMARK  8 active torsions:
REMARK  status: ('A' for Active; 'I' for Inactive)
REMARK    1  A    between atoms: C_1  and  C_2
REMARK    2  A    between atoms: C_2  and  C_3
REMARK    3  A    between atoms: C_3  and  C_4
REMARK    4  A    between atoms: C_6  and  O_7
REMARK    5  A    between atoms: C_9  and  S_10
REMARK    6  A    between atoms: S_10  and  C_11
REMARK    7  A    between atoms: C_11  and  C_12
REMARK    8  A    between atoms: C_14  and  C_15
REMARK                            x       y       z     vdW  Elec       q    Type
REMARK                         _______ _______ _______ _____ _____    ______ ____
ROOT
ATOM      1  C   UNL     1       2.891   3.624  18.751  0.00  0.00    +0.000 C 
ENDROOT
BRANCH   1   2
ATOM      2  C   UNL     1       2.472   4.958  19.240  0.00  0.00    +0.000 A 
ATOM      3  N   UNL     1       2.441   6.121  18.628  0.00  0.00    +0.000 NA
ATOM      4  C   UNL     1       1.942   6.966  19.604  0.00  0.00    +0.000 A 
ATOM      5  N   UNL     1       1.719   6.351  20.777  0.00  0.00    +0.000 NA
ATOM      6  O   UNL     1       2.064   5.027  20.539  0.00  0.00    +0.000 OA
BRANCH   4   7
ATOM      7  C   UNL     1       1.683   8.378  19.348  0.00  0.00    +0.000 A 
ATOM      8  C   UNL     1       1.010   9.159  20.306  0.00  0.00    +0.000 A 
ATOM      9  C   UNL     1       0.776  10.520  20.088  0.00  0.00    +0.000 A 
ATOM     10  C   UNL     1       1.207  11.125  18.908  0.00  0.00    +0.000 A 
ATOM     11  C   UNL     1       1.870  10.365  17.949  0.00  0.00    +0.000 A 
ATOM     12  C   UNL     1       2.102   9.007  18.170  0.00  0.00    +0.000 A 
ATOM     13  F   UNL     1       2.748   8.330  17.208  0.00  0.00    +0.000 F 
ENDBRANCH   4   7
ENDBRANCH   1   2
BRANCH   1  14
ATOM     14  S   UNL     1       4.504   3.151  19.460  0.00  0.00    +0.000 S 
BRANCH  14  19
ATOM     15  C   UNL     1       6.086   5.317  16.593  0.00  0.00    +0.000 A 
ATOM     16  C   UNL     1       7.111   6.002  17.209  0.00  0.00    +0.000 A 
ATOM     17  C   UNL     1       7.274   5.748  18.547  0.00  0.00    +0.000 A 
ATOM     18  N   UNL     1       6.519   4.905  19.255  0.00  0.00    +0.000 NA
ATOM     19  C   UNL     1       5.549   4.281  18.579  0.00  0.00    +0.000 A 
ATOM     20  N   UNL     1       5.303   4.446  17.266  0.00  0.00    +0.000 NA
BRANCH  17  21
ATOM     21  O   UNL     1       8.252   6.363  19.271  0.00  0.00    +0.000 OA
ATOM     22  H   UNL     1       9.039   5.800  19.272  0.00  0.00    +0.000 HD
ENDBRANCH  17  21
BRANCH  15  23
ATOM     23  C   UNL     1       5.823   5.504  15.117  0.00  0.00    +0.000 C 
BRANCH  23  25
ATOM     24  C   UNL     1       6.078   3.738  13.334  0.00  0.00    +0.000 C 
ATOM     25  C   UNL     1       6.803   4.713  14.249  0.00  0.00    +0.000 C 
ENDBRANCH  23  25
ENDBRANCH  15  23
ENDBRANCH  14  19
ENDBRANCH   1  14
TORSDOF 7
ENDMDL
