MODEL 1
REMARK VINA RESULT:      -7.5      0.000      0.000
REMARK  Name = 
REMARK  4 active torsions:
REMARK  status: ('A' for Active; 'I' for Inactive)
REMARK    1  A    between atoms: N_3  and  C_4
REMARK    2  A    between atoms: N_15  and  C_16
REMARK    3  A    between atoms: C_16  and  C_17
REMARK    4  A    between atoms: C_17  and  N_18
REMARK                            x       y       z     vdW  Elec       q    Type
REMARK                         _______ _______ _______ _____ _____    ______ ____
ROOT
ATOM      1  O   UNL     1       7.553   6.246  16.199  0.00  0.00    +0.000 OA
ATOM      2  C   UNL     1       7.159   6.371  17.358  0.00  0.00    +0.000 C 
ATOM      3  N   UNL     1       7.540   7.410  18.187  0.00  0.00    +0.000 N 
ATOM      4  N   UNL     1       6.288   5.450  17.952  0.00  0.00    +0.000 N 
ATOM      5  C   UNL     1       5.825   4.275  17.204  0.00  0.00    +0.000 C 
ATOM      6  C   UNL     1       4.478   4.408  16.481  0.00  0.00    +0.000 C 
ATOM      7  C   UNL     1       3.362   4.165  17.459  0.00  0.00    +0.000 A 
ATOM      8  C   UNL     1       2.576   2.957  17.286  0.00  0.00    +0.000 A 
ATOM      9  C   UNL     1       1.719   2.569  18.224  0.00  0.00    +0.000 A 
ATOM     10  C   UNL     1       1.516   3.386  19.443  0.00  0.00    +0.000 A 
ATOM     11  O   UNL     1       0.705   2.995  20.283  0.00  0.00    +0.000 OA
ATOM     12  N   UNL     1       2.287   4.548  19.548  0.00  0.00    +0.000 N 
ATOM     13  C   UNL     1       3.200   4.936  18.563  0.00  0.00    +0.000 A 
ATOM     14  C   UNL     1       4.095   6.145  18.756  0.00  0.00    +0.000 C 
ATOM     15  C   UNL     1       5.507   5.736  19.149  0.00  0.00    +0.000 C 
ATOM     16  H   UNL     1       7.569   7.185  19.170  0.00  0.00    +0.000 HD
ENDROOT
BRANCH   3  17
ATOM     17  C   UNL     1       8.445   8.461  17.818  0.00  0.00    +0.000 C 
ATOM     18  C   UNL     1       8.002   9.897  17.773  0.00  0.00    +0.000 C 
ATOM     19  C   UNL     1       8.898   9.437  18.883  0.00  0.00    +0.000 C 
ENDBRANCH   3  17
BRANCH  12  20
ATOM     20  C   UNL     1       2.124   5.341  20.773  0.00  0.00    +0.000 C 
BRANCH  20  21
ATOM     21  C   UNL     1       1.165   6.528  20.566  0.00  0.00    +0.000 C 
BRANCH  21  22
ATOM     22  N   UNL     1       1.809   7.840  20.743  0.00  0.00    +0.000 NA
ATOM     23  C   UNL     1       1.194   8.589  21.853  0.00  0.00    +0.000 C 
ATOM     24  C   UNL     1      -0.074   9.173  21.261  0.00  0.00    +0.000 C 
ATOM     25  C   UNL     1       0.320   9.508  19.834  0.00  0.00    +0.000 C 
ATOM     26  C   UNL     1       1.568   8.680  19.553  0.00  0.00    +0.000 C 
ENDBRANCH  21  22
ENDBRANCH  20  21
ENDBRANCH  12  20
TORSDOF 4
ENDMDL
MODEL 2
REMARK VINA RESULT:      -6.5      2.974      6.396
REMARK  Name = 
REMARK  4 active torsions:
REMARK  status: ('A' for Active; 'I' for Inactive)
REMARK    1  A    between atoms: N_3  and  C_4
REMARK    2  A    between atoms: N_15  and  C_16
REMARK    3  A    between atoms: C_16  and  C_17
REMARK    4  A    between atoms: C_17  and  N_18
REMARK                            x       y       z     vdW  Elec       q    Type
REMARK                         _______ _______ _______ _____ _____    ______ ____
ROOT
ATOM      1  O   UNL     1       0.631  11.571  20.427  0.00  0.00    +0.000 OA
ATOM      2  C   UNL     1       1.002  11.065  19.369  0.00  0.00    +0.000 C 
ATOM      3  N   UNL     1       1.545  11.790  18.324  0.00  0.00    +0.000 N 
ATOM      4  N   UNL     1       0.893   9.692  19.120  0.00  0.00    +0.000 N 
ATOM      5  C   UNL     1       0.302   8.800  20.126  0.00  0.00    +0.000 C 
ATOM      6  C   UNL     1       1.279   8.097  21.078  0.00  0.00    +0.000 C 
ATOM      7  C   UNL     1       1.847   6.880  20.402  0.00  0.00    +0.000 A 
ATOM      8  C   UNL     1       1.453   5.584  20.924  0.00  0.00    +0.000 A 
ATOM      9  C   UNL     1       1.740   4.472  20.255  0.00  0.00    +0.000 A 
ATOM     10  C   UNL     1       2.507   4.531  18.989  0.00  0.00    +0.000 A 
ATOM     11  O   UNL     1       2.760   3.477  18.407  0.00  0.00    +0.000 OA
ATOM     12  N   UNL     1       2.874   5.805  18.544  0.00  0.00    +0.000 N 
ATOM     13  C   UNL     1       2.549   6.969  19.245  0.00  0.00    +0.000 A 
ATOM     14  C   UNL     1       2.873   8.341  18.682  0.00  0.00    +0.000 C 
ATOM     15  C   UNL     1       1.641   8.998  18.079  0.00  0.00    +0.000 C 
ATOM     16  H   UNL     1       1.372  11.412  17.404  0.00  0.00    +0.000 HD
ENDROOT
BRANCH   3  17
ATOM     17  C   UNL     1       1.734  13.212  18.327  0.00  0.00    +0.000 C 
ATOM     18  C   UNL     1       2.724  13.871  19.248  0.00  0.00    +0.000 C 
ATOM     19  C   UNL     1       3.032  13.774  17.785  0.00  0.00    +0.000 C 
ENDBRANCH   3  17
BRANCH  12  20
ATOM     20  C   UNL     1       3.597   5.876  17.267  0.00  0.00    +0.000 C 
BRANCH  20  21
ATOM     21  C   UNL     1       5.123   5.870  17.470  0.00  0.00    +0.000 C 
BRANCH  21  22
ATOM     22  N   UNL     1       5.731   4.538  17.306  0.00  0.00    +0.000 NA
ATOM     23  C   UNL     1       7.151   4.645  16.927  0.00  0.00    +0.000 C 
ATOM     24  C   UNL     1       7.126   4.934  15.438  0.00  0.00    +0.000 C 
ATOM     25  C   UNL     1       5.944   4.124  14.938  0.00  0.00    +0.000 C 
ATOM     26  C   UNL     1       5.098   3.836  16.173  0.00  0.00    +0.000 C 
ENDBRANCH  21  22
ENDBRANCH  20  21
ENDBRANCH  12  20
TORSDOF 4
ENDMDL
MODEL 3
REMARK VINA RESULT:      -6.4      2.919      6.168
REMARK  Name = 
REMARK  4 active torsions:
REMARK  status: ('A' for Active; 'I' for Inactive)
REMARK    1  A    between atoms: N_3  and  C_4
REMARK    2  A    between atoms: N_15  and  C_16
REMARK    3  A    between atoms: C_16  and  C_17
REMARK    4  A    between atoms: C_17  and  N_18
REMARK                            x       y       z     vdW  Elec       q    Type
REMARK                         _______ _______ _______ _____ _____    ______ ____
ROOT
ATOM      1  O   UNL     1       0.855  11.551  20.397  0.00  0.00    +0.000 OA
ATOM      2  C   UNL     1       1.174  11.025  19.331  0.00  0.00    +0.000 C 
ATOM      3  N   UNL     1       1.722  11.722  18.269  0.00  0.00    +0.000 N 
ATOM      4  N   UNL     1       0.993   9.658  19.090  0.00  0.00    +0.000 N 
ATOM      5  C   UNL     1       0.389   8.797  20.114  0.00  0.00    +0.000 C 
ATOM      6  C   UNL     1       1.357   8.052  21.043  0.00  0.00    +0.000 C 
ATOM      7  C   UNL     1       1.849   6.808  20.357  0.00  0.00    +0.000 A 
ATOM      8  C   UNL     1       1.409   5.533  20.893  0.00  0.00    +0.000 A 
ATOM      9  C   UNL     1       1.626   4.407  20.221  0.00  0.00    +0.000 A 
ATOM     10  C   UNL     1       2.361   4.427  18.935  0.00  0.00    +0.000 A 
ATOM     11  O   UNL     1       2.548   3.360  18.350  0.00  0.00    +0.000 OA
ATOM     12  N   UNL     1       2.775   5.682  18.476  0.00  0.00    +0.000 N 
ATOM     13  C   UNL     1       2.524   6.861  19.181  0.00  0.00    +0.000 A 
ATOM     14  C   UNL     1       2.895   8.215  18.605  0.00  0.00    +0.000 C 
ATOM     15  C   UNL     1       1.680   8.928  18.032  0.00  0.00    +0.000 C 
ATOM     16  H   UNL     1       1.507  11.350  17.355  0.00  0.00    +0.000 HD
ENDROOT
BRANCH   3  17
ATOM     17  C   UNL     1       1.977  13.133  18.262  0.00  0.00    +0.000 C 
ATOM     18  C   UNL     1       2.784  13.791  19.347  0.00  0.00    +0.000 C 
ATOM     19  C   UNL     1       3.386  13.616  17.986  0.00  0.00    +0.000 C 
ENDBRANCH   3  17
BRANCH  12  20
ATOM     20  C   UNL     1       3.466   5.715  17.180  0.00  0.00    +0.000 C 
BRANCH  20  21
ATOM     21  C   UNL     1       4.763   4.886  17.199  0.00  0.00    +0.000 C 
BRANCH  21  22
ATOM     22  N   UNL     1       5.891   5.546  16.519  0.00  0.00    +0.000 NA
ATOM     23  C   UNL     1       7.082   4.678  16.500  0.00  0.00    +0.000 C 
ATOM     24  C   UNL     1       7.686   4.833  17.883  0.00  0.00    +0.000 C 
ATOM     25  C   UNL     1       7.430   6.291  18.223  0.00  0.00    +0.000 C 
ATOM     26  C   UNL     1       6.311   6.735  17.288  0.00  0.00    +0.000 C 
ENDBRANCH  21  22
ENDBRANCH  20  21
ENDBRANCH  12  20
TORSDOF 4
ENDMDL
MODEL 4
REMARK VINA RESULT:      -6.2      3.850      7.691
REMARK  Name = 
REMARK  4 active torsions:
REMARK  status: ('A' for Active; 'I' for Inactive)
REMARK    1  A    between atoms: N_3  and  C_4
REMARK    2  A    between atoms: N_15  and  C_16
REMARK    3  A    between atoms: C_16  and  C_17
REMARK    4  A    between atoms: C_17  and  N_18
REMARK                            x       y       z     vdW  Elec       q    Type
REMARK                         _______ _______ _______ _____ _____    ______ ____
ROOT
ATOM      1  O   UNL     1       1.719   5.820  21.217  0.00  0.00    +0.000 OA
ATOM      2  C   UNL     1       1.887   6.664  20.338  0.00  0.00    +0.000 C 
ATOM      3  N   UNL     1       2.236   6.354  19.036  0.00  0.00    +0.000 N 
ATOM      4  N   UNL     1       1.751   8.036  20.586  0.00  0.00    +0.000 N 
ATOM      5  C   UNL     1       1.417   8.518  21.932  0.00  0.00    +0.000 C 
ATOM      6  C   UNL     1      -0.068   8.771  22.222  0.00  0.00    +0.000 C 
ATOM      7  C   UNL     1      -0.456  10.124  21.693  0.00  0.00    +0.000 A 
ATOM      8  C   UNL     1      -0.780  11.151  22.666  0.00  0.00    +0.000 A 
ATOM      9  C   UNL     1      -0.924  12.418  22.289  0.00  0.00    +0.000 A 
ATOM     10  C   UNL     1      -0.802  12.796  20.861  0.00  0.00    +0.000 A 
ATOM     11  O   UNL     1      -0.952  13.978  20.554  0.00  0.00    +0.000 OA
ATOM     12  N   UNL     1      -0.506  11.762  19.967  0.00  0.00    +0.000 N 
ATOM     13  C   UNL     1      -0.337  10.437  20.379  0.00  0.00    +0.000 A 
ATOM     14  C   UNL     1       0.085   9.359  19.398  0.00  0.00    +0.000 C 
ATOM     15  C   UNL     1       1.564   9.030  19.536  0.00  0.00    +0.000 C 
ATOM     16  H   UNL     1       2.788   7.054  18.562  0.00  0.00    +0.000 HD
ENDROOT
BRANCH   3  17
ATOM     17  C   UNL     1       2.460   5.025  18.545  0.00  0.00    +0.000 C 
ATOM     18  C   UNL     1       1.514   3.901  18.862  0.00  0.00    +0.000 C 
ATOM     19  C   UNL     1       1.533   4.478  17.479  0.00  0.00    +0.000 C 
ENDBRANCH   3  17
BRANCH  12  20
ATOM     20  C   UNL     1      -0.340  12.136  18.556  0.00  0.00    +0.000 C 
BRANCH  20  21
ATOM     21  C   UNL     1      -1.691  12.213  17.821  0.00  0.00    +0.000 C 
BRANCH  21  22
ATOM     22  N   UNL     1      -2.451  10.952  17.857  0.00  0.00    +0.000 NA
ATOM     23  C   UNL     1      -2.251  10.175  16.621  0.00  0.00    +0.000 C 
ATOM     24  C   UNL     1      -3.175  10.826  15.610  0.00  0.00    +0.000 C 
ATOM     25  C   UNL     1      -4.383  11.228  16.437  0.00  0.00    +0.000 C 
ATOM     26  C   UNL     1      -3.899  11.242  17.882  0.00  0.00    +0.000 C 
ENDBRANCH  21  22
ENDBRANCH  20  21
ENDBRANCH  12  20
TORSDOF 4
ENDMDL
MODEL 5
REMARK VINA RESULT:      -6.2      3.053      6.731
REMARK  Name = 
REMARK  4 active torsions:
REMARK  status: ('A' for Active; 'I' for Inactive)
REMARK    1  A    between atoms: N_3  and  C_4
REMARK    2  A    between atoms: N_15  and  C_16
REMARK    3  A    between atoms: C_16  and  C_17
REMARK    4  A    between atoms: C_17  and  N_18
REMARK                            x       y       z     vdW  Elec       q    Type
REMARK                         _______ _______ _______ _____ _____    ______ ____
ROOT
ATOM      1  O   UNL     1      -0.027  11.837  20.574  0.00  0.00    +0.000 OA
ATOM      2  C   UNL     1       0.399  11.410  19.501  0.00  0.00    +0.000 C 
ATOM      3  N   UNL     1       0.867  12.224  18.485  0.00  0.00    +0.000 N 
ATOM      4  N   UNL     1       0.435  10.042  19.205  0.00  0.00    +0.000 N 
ATOM      5  C   UNL     1      -0.062   9.058  20.175  0.00  0.00    +0.000 C 
ATOM      6  C   UNL     1       0.980   8.430  21.110  0.00  0.00    +0.000 C 
ATOM      7  C   UNL     1       1.675   7.303  20.397  0.00  0.00    +0.000 A 
ATOM      8  C   UNL     1       1.417   5.955  20.871  0.00  0.00    +0.000 A 
ATOM      9  C   UNL     1       1.821   4.903  20.167  0.00  0.00    +0.000 A 
ATOM     10  C   UNL     1       2.583   5.087  18.909  0.00  0.00    +0.000 A 
ATOM     11  O   UNL     1       2.947   4.085  18.293  0.00  0.00    +0.000 OA
ATOM     12  N   UNL     1       2.816   6.407  18.510  0.00  0.00    +0.000 N 
ATOM     13  C   UNL     1       2.368   7.506  19.249  0.00  0.00    +0.000 A 
ATOM     14  C   UNL     1       2.547   8.922  18.735  0.00  0.00    +0.000 C 
ATOM     15  C   UNL     1       1.255   9.468  18.146  0.00  0.00    +0.000 C 
ATOM     16  H   UNL     1       0.737  11.862  17.552  0.00  0.00    +0.000 HD
ENDROOT
BRANCH   3  17
ATOM     17  C   UNL     1       0.905  13.657  18.539  0.00  0.00    +0.000 C 
ATOM     18  C   UNL     1       1.690  14.382  19.596  0.00  0.00    +0.000 C 
ATOM     19  C   UNL     1       2.199  14.363  18.187  0.00  0.00    +0.000 C 
ENDBRANCH   3  17
BRANCH  12  20
ATOM     20  C   UNL     1       3.531   6.597  17.242  0.00  0.00    +0.000 C 
BRANCH  20  21
ATOM     21  C   UNL     1       5.057   6.647  17.445  0.00  0.00    +0.000 C 
BRANCH  21  22
ATOM     22  N   UNL     1       5.822   6.387  16.214  0.00  0.00    +0.000 NA
ATOM     23  C   UNL     1       5.305   5.201  15.508  0.00  0.00    +0.000 C 
ATOM     24  C   UNL     1       5.904   4.025  16.254  0.00  0.00    +0.000 C 
ATOM     25  C   UNL     1       7.285   4.518  16.648  0.00  0.00    +0.000 C 
ATOM     26  C   UNL     1       7.214   6.038  16.555  0.00  0.00    +0.000 C 
ENDBRANCH  21  22
ENDBRANCH  20  21
ENDBRANCH  12  20
TORSDOF 4
ENDMDL
MODEL 6
REMARK VINA RESULT:      -6.1      3.022      6.262
REMARK  Name = 
REMARK  4 active torsions:
REMARK  status: ('A' for Active; 'I' for Inactive)
REMARK    1  A    between atoms: N_3  and  C_4
REMARK    2  A    between atoms: N_15  and  C_16
REMARK    3  A    between atoms: C_16  and  C_17
REMARK    4  A    between atoms: C_17  and  N_18
REMARK                            x       y       z     vdW  Elec       q    Type
REMARK                         _______ _______ _______ _____ _____    ______ ____
ROOT
ATOM      1  O   UNL     1       0.681  11.907  20.493  0.00  0.00    +0.000 OA
ATOM      2  C   UNL     1       0.971  11.374  19.422  0.00  0.00    +0.000 C 
ATOM      3  N   UNL     1       1.481  12.063  18.337  0.00  0.00    +0.000 N 
ATOM      4  N   UNL     1       0.792  10.003  19.201  0.00  0.00    +0.000 N 
ATOM      5  C   UNL     1       0.225   9.148  20.251  0.00  0.00    +0.000 C 
ATOM      6  C   UNL     1       1.226   8.418  21.157  0.00  0.00    +0.000 C 
ATOM      7  C   UNL     1       1.705   7.171  20.467  0.00  0.00    +0.000 A 
ATOM      8  C   UNL     1       1.291   5.898  21.029  0.00  0.00    +0.000 A 
ATOM      9  C   UNL     1       1.494   4.767  20.362  0.00  0.00    +0.000 A 
ATOM     10  C   UNL     1       2.189   4.779  19.053  0.00  0.00    +0.000 A 
ATOM     11  O   UNL     1       2.366   3.709  18.473  0.00  0.00    +0.000 OA
ATOM     12  N   UNL     1       2.581   6.032  18.570  0.00  0.00    +0.000 N 
ATOM     13  C   UNL     1       2.343   7.217  19.271  0.00  0.00    +0.000 A 
ATOM     14  C   UNL     1       2.688   8.567  18.671  0.00  0.00    +0.000 C 
ATOM     15  C   UNL     1       1.451   9.267  18.129  0.00  0.00    +0.000 C 
ATOM     16  H   UNL     1       1.241  11.681  17.435  0.00  0.00    +0.000 HD
ENDROOT
BRANCH   3  17
ATOM     17  C   UNL     1       1.727  13.476  18.309  0.00  0.00    +0.000 C 
ATOM     18  C   UNL     1       2.651  14.132  19.297  0.00  0.00    +0.000 C 
ATOM     19  C   UNL     1       3.092  13.968  17.874  0.00  0.00    +0.000 C 
ENDBRANCH   3  17
BRANCH  12  20
ATOM     20  C   UNL     1       3.231   6.058  17.253  0.00  0.00    +0.000 C 
BRANCH  20  21
ATOM     21  C   UNL     1       4.766   6.092  17.371  0.00  0.00    +0.000 C 
BRANCH  21  22
ATOM     22  N   UNL     1       5.344   4.830  17.864  0.00  0.00    +0.000 NA
ATOM     23  C   UNL     1       5.828   4.971  19.249  0.00  0.00    +0.000 C 
ATOM     24  C   UNL     1       7.174   5.658  19.112  0.00  0.00    +0.000 C 
ATOM     25  C   UNL     1       7.745   5.070  17.834  0.00  0.00    +0.000 C 
ATOM     26  C   UNL     1       6.551   4.495  17.082  0.00  0.00    +0.000 C 
ENDBRANCH  21  22
ENDBRANCH  20  21
ENDBRANCH  12  20
TORSDOF 4
ENDMDL
MODEL 7
REMARK VINA RESULT:      -5.8      6.653     11.271
REMARK  Name = 
REMARK  4 active torsions:
REMARK  status: ('A' for Active; 'I' for Inactive)
REMARK    1  A    between atoms: N_3  and  C_4
REMARK    2  A    between atoms: N_15  and  C_16
REMARK    3  A    between atoms: C_16  and  C_17
REMARK    4  A    between atoms: C_17  and  N_18
REMARK                            x       y       z     vdW  Elec       q    Type
REMARK                         _______ _______ _______ _____ _____    ______ ____
ROOT
ATOM      1  O   UNL     1      -6.044  14.523  22.996  0.00  0.00    +0.000 OA
ATOM      2  C   UNL     1      -4.905  14.597  22.537  0.00  0.00    +0.000 C 
ATOM      3  N   UNL     1      -3.799  14.955  23.287  0.00  0.00    +0.000 N 
ATOM      4  N   UNL     1      -4.626  14.335  21.190  0.00  0.00    +0.000 N 
ATOM      5  C   UNL     1      -5.706  13.977  20.263  0.00  0.00    +0.000 C 
ATOM      6  C   UNL     1      -5.953  12.479  20.042  0.00  0.00    +0.000 C 
ATOM      7  C   UNL     1      -4.974  11.957  19.027  0.00  0.00    +0.000 A 
ATOM      8  C   UNL     1      -5.504  11.552  17.738  0.00  0.00    +0.000 A 
ATOM      9  C   UNL     1      -4.686  11.284  16.725  0.00  0.00    +0.000 A 
ATOM     10  C   UNL     1      -3.217  11.348  16.906  0.00  0.00    +0.000 A 
ATOM     11  O   UNL     1      -2.496  11.083  15.945  0.00  0.00    +0.000 OA
ATOM     12  N   UNL     1      -2.764  11.728  18.174  0.00  0.00    +0.000 N 
ATOM     13  C   UNL     1      -3.634  12.027  19.226  0.00  0.00    +0.000 A 
ATOM     14  C   UNL     1      -3.111  12.535  20.556  0.00  0.00    +0.000 C 
ATOM     15  C   UNL     1      -3.290  14.040  20.686  0.00  0.00    +0.000 C 
ATOM     16  H   UNL     1      -3.071  15.431  22.777  0.00  0.00    +0.000 HD
ENDROOT
BRANCH   3  17
ATOM     17  C   UNL     1      -3.833  15.296  24.680  0.00  0.00    +0.000 C 
ATOM     18  C   UNL     1      -2.591  15.260  25.528  0.00  0.00    +0.000 C 
ATOM     19  C   UNL     1      -3.172  16.583  25.129  0.00  0.00    +0.000 C 
ENDBRANCH   3  17
BRANCH  12  20
ATOM     20  C   UNL     1      -1.310  11.837  18.350  0.00  0.00    +0.000 C 
BRANCH  20  21
ATOM     21  C   UNL     1      -0.658  10.465  18.605  0.00  0.00    +0.000 C 
BRANCH  21  22
ATOM     22  N   UNL     1       0.608  10.547  19.354  0.00  0.00    +0.000 NA
ATOM     23  C   UNL     1       0.876   9.295  20.083  0.00  0.00    +0.000 C 
ATOM     24  C   UNL     1       0.012   9.387  21.326  0.00  0.00    +0.000 C 
ATOM     25  C   UNL     1       0.055  10.863  21.682  0.00  0.00    +0.000 C 
ATOM     26  C   UNL     1       0.498  11.574  20.409  0.00  0.00    +0.000 C 
ENDBRANCH  21  22
ENDBRANCH  20  21
ENDBRANCH  12  20
TORSDOF 4
ENDMDL
MODEL 8
REMARK VINA RESULT:      -5.8      7.720     11.165
REMARK  Name = 
REMARK  4 active torsions:
REMARK  status: ('A' for Active; 'I' for Inactive)
REMARK    1  A    between atoms: N_3  and  C_4
REMARK    2  A    between atoms: N_15  and  C_16
REMARK    3  A    between atoms: C_16  and  C_17
REMARK    4  A    between atoms: C_17  and  N_18
REMARK                            x       y       z     vdW  Elec       q    Type
REMARK                         _______ _______ _______ _____ _____    ______ ____
ROOT
ATOM      1  O   UNL     1      -5.604  12.195  16.777  0.00  0.00    +0.000 OA
ATOM      2  C   UNL     1      -4.666  11.785  17.460  0.00  0.00    +0.000 C 
ATOM      3  N   UNL     1      -3.517  11.231  16.926  0.00  0.00    +0.000 N 
ATOM      4  N   UNL     1      -4.687  11.831  18.859  0.00  0.00    +0.000 N 
ATOM      5  C   UNL     1      -5.858  12.361  19.568  0.00  0.00    +0.000 C 
ATOM      6  C   UNL     1      -5.808  13.842  19.964  0.00  0.00    +0.000 C 
ATOM      7  C   UNL     1      -5.028  13.991  21.241  0.00  0.00    +0.000 A 
ATOM      8  C   UNL     1      -5.763  14.389  22.428  0.00  0.00    +0.000 A 
ATOM      9  C   UNL     1      -5.190  14.335  23.626  0.00  0.00    +0.000 A 
ATOM     10  C   UNL     1      -3.777  13.914  23.767  0.00  0.00    +0.000 A 
ATOM     11  O   UNL     1      -3.282  13.888  24.894  0.00  0.00    +0.000 OA
ATOM     12  N   UNL     1      -3.114  13.559  22.588  0.00  0.00    +0.000 N 
ATOM     13  C   UNL     1      -3.733  13.599  21.335  0.00  0.00    +0.000 A 
ATOM     14  C   UNL     1      -3.018  13.109  20.091  0.00  0.00    +0.000 C 
ATOM     15  C   UNL     1      -3.492  11.721  19.687  0.00  0.00    +0.000 C 
ATOM     16  H   UNL     1      -3.068  10.535  17.503  0.00  0.00    +0.000 HD
ENDROOT
BRANCH   3  17
ATOM     17  C   UNL     1      -3.272  11.050  15.524  0.00  0.00    +0.000 C 
ATOM     18  C   UNL     1      -2.511   9.860  15.008  0.00  0.00    +0.000 C 
ATOM     19  C   UNL     1      -3.993   9.933  14.799  0.00  0.00    +0.000 C 
ENDBRANCH   3  17
BRANCH  12  20
ATOM     20  C   UNL     1      -1.726  13.097  22.724  0.00  0.00    +0.000 C 
BRANCH  20  21
ATOM     21  C   UNL     1      -1.648  11.581  22.978  0.00  0.00    +0.000 C 
BRANCH  21  22
ATOM     22  N   UNL     1      -0.277  11.046  22.916  0.00  0.00    +0.000 NA
ATOM     23  C   UNL     1       0.282  11.170  21.558  0.00  0.00    +0.000 C 
ATOM     24  C   UNL     1      -0.320  10.007  20.793  0.00  0.00    +0.000 C 
ATOM     25  C   UNL     1      -0.385   8.895  21.826  0.00  0.00    +0.000 C 
ATOM     26  C   UNL     1      -0.295   9.593  23.178  0.00  0.00    +0.000 C 
ENDBRANCH  21  22
ENDBRANCH  20  21
ENDBRANCH  12  20
TORSDOF 4
ENDMDL
MODEL 9
REMARK VINA RESULT:      -5.7      4.083      7.643
REMARK  Name = 
REMARK  4 active torsions:
REMARK  status: ('A' for Active; 'I' for Inactive)
REMARK    1  A    between atoms: N_3  and  C_4
REMARK    2  A    between atoms: N_15  and  C_16
REMARK    3  A    between atoms: C_16  and  C_17
REMARK    4  A    between atoms: C_17  and  N_18
REMARK                            x       y       z     vdW  Elec       q    Type
REMARK                         _______ _______ _______ _____ _____    ______ ____
ROOT
ATOM      1  O   UNL     1       1.719   6.353  20.920  0.00  0.00    +0.000 OA
ATOM      2  C   UNL     1       1.880   7.345  20.211  0.00  0.00    +0.000 C 
ATOM      3  N   UNL     1       2.344   7.288  18.909  0.00  0.00    +0.000 N 
ATOM      4  N   UNL     1       1.619   8.641  20.672  0.00  0.00    +0.000 N 
ATOM      5  C   UNL     1       1.154   8.861  22.047  0.00  0.00    +0.000 C 
ATOM      6  C   UNL     1      -0.363   8.961  22.252  0.00  0.00    +0.000 C 
ATOM      7  C   UNL     1      -0.819  10.356  21.926  0.00  0.00    +0.000 A 
ATOM      8  C   UNL     1      -1.291  11.177  23.027  0.00  0.00    +0.000 A 
ATOM      9  C   UNL     1      -1.507  12.477  22.856  0.00  0.00    +0.000 A 
ATOM     10  C   UNL     1      -1.316  13.104  21.527  0.00  0.00    +0.000 A 
ATOM     11  O   UNL     1      -1.537  14.308  21.409  0.00  0.00    +0.000 OA
ATOM     12  N   UNL     1      -0.877  12.261  20.500  0.00  0.00    +0.000 N 
ATOM     13  C   UNL     1      -0.633  10.899  20.697  0.00  0.00    +0.000 A 
ATOM     14  C   UNL     1      -0.059  10.037  19.589  0.00  0.00    +0.000 C 
ATOM     15  C   UNL     1       1.428   9.787  19.792  0.00  0.00    +0.000 C 
ATOM     16  H   UNL     1       2.870   8.094  18.606  0.00  0.00    +0.000 HD
ENDROOT
BRANCH   3  17
ATOM     17  C   UNL     1       2.706   6.081  18.223  0.00  0.00    +0.000 C 
ATOM     18  C   UNL     1       3.884   6.033  17.289  0.00  0.00    +0.000 C 
ATOM     19  C   UNL     1       3.980   5.369  18.629  0.00  0.00    +0.000 C 
ENDBRANCH   3  17
BRANCH  12  20
ATOM     20  C   UNL     1      -0.643  12.883  19.190  0.00  0.00    +0.000 C 
BRANCH  20  21
ATOM     21  C   UNL     1       0.576  13.824  19.212  0.00  0.00    +0.000 C 
BRANCH  21  22
ATOM     22  N   UNL     1       1.849  13.131  19.473  0.00  0.00    +0.000 NA
ATOM     23  C   UNL     1       2.675  13.881  20.435  0.00  0.00    +0.000 C 
ATOM     24  C   UNL     1       3.320  14.976  19.607  0.00  0.00    +0.000 C 
ATOM     25  C   UNL     1       3.578  14.307  18.269  0.00  0.00    +0.000 C 
ATOM     26  C   UNL     1       2.659  13.091  18.240  0.00  0.00    +0.000 C 
ENDBRANCH  21  22
ENDBRANCH  20  21
ENDBRANCH  12  20
TORSDOF 4
ENDMDL
