MODEL 1
REMARK VINA RESULT:      -7.7      0.000      0.000
REMARK  Name = 
REMARK  6 active torsions:
REMARK  status: ('A' for Active; 'I' for Inactive)
REMARK    1  A    between atoms: C_1  and  C_2
REMARK    2  A    between atoms: N_10  and  C_11
REMARK    3  A    between atoms: C_11  and  C_12
REMARK    4  A    between atoms: N_14  and  C_15
REMARK    5  A    between atoms: C_15  and  C_16
REMARK    6  A    between atoms: C_16  and  N_17
REMARK                            x       y       z     vdW  Elec       q    Type
REMARK                         _______ _______ _______ _____ _____    ______ ____
ROOT
ATOM      1  C   UNL     1       3.648   5.295  17.844  0.00  0.00    +0.000 C 
ENDROOT
BRANCH   1  11
ATOM      2  C   UNL     1       8.196   6.823  18.869  0.00  0.00    +0.000 C 
ATOM      3  C   UNL     1       7.157   6.498  17.805  0.00  0.00    +0.000 C 
ATOM      4  O   UNL     1       7.772   5.797  16.727  0.00  0.00    +0.000 OA
ATOM      5  C   UNL     1       6.854   5.261  15.849  0.00  0.00    +0.000 A 
ATOM      6  C   UNL     1       7.378   4.788  14.643  0.00  0.00    +0.000 A 
ATOM      7  C   UNL     1       6.541   4.180  13.708  0.00  0.00    +0.000 A 
ATOM      8  C   UNL     1       5.183   4.043  13.977  0.00  0.00    +0.000 A 
ATOM      9  C   UNL     1       4.654   4.517  15.183  0.00  0.00    +0.000 A 
ATOM     10  C   UNL     1       5.481   5.129  16.133  0.00  0.00    +0.000 A 
ATOM     11  N   UNL     1       5.004   5.531  17.416  0.00  0.00    +0.000 N 
ATOM     12  C   UNL     1       5.968   5.754  18.401  0.00  0.00    +0.000 C 
ATOM     13  O   UNL     1       5.821   5.482  19.592  0.00  0.00    +0.000 OA
ENDBRANCH   1  11
BRANCH   1  14
ATOM     14  C   UNL     1       3.050   6.535  18.536  0.00  0.00    +0.000 C 
ATOM     15  O   UNL     1       2.898   7.620  17.970  0.00  0.00    +0.000 OA
ATOM     16  N   UNL     1       2.632   6.396  19.832  0.00  0.00    +0.000 N 
ATOM     17  H   UNL     1       2.242   7.243  20.231  0.00  0.00    +0.000 HD
BRANCH  16  18
ATOM     18  C   UNL     1       2.493   5.148  20.545  0.00  0.00    +0.000 C 
BRANCH  18  19
ATOM     19  C   UNL     1       1.129   4.439  20.361  0.00  0.00    +0.000 C 
BRANCH  19  20
ATOM     20  N   UNL     1       1.303   2.984  20.479  0.00  0.00    +0.000 NA
ATOM     21  C   UNL     1       2.602   2.580  21.053  0.00  0.00    +0.000 C 
ATOM     22  C   UNL     1       3.753   2.545  20.041  0.00  0.00    +0.000 C 
ATOM     23  O   UNL     1       3.443   1.655  18.967  0.00  0.00    +0.000 OA
ATOM     24  C   UNL     1       2.272   2.105  18.278  0.00  0.00    +0.000 C 
ATOM     25  C   UNL     1       1.062   2.249  19.221  0.00  0.00    +0.000 C 
ENDBRANCH  19  20
ENDBRANCH  18  19
ENDBRANCH  16  18
ENDBRANCH   1  14
TORSDOF 5
ENDMDL
MODEL 2
REMARK VINA RESULT:      -7.5      3.905      7.926
REMARK  Name = 
REMARK  6 active torsions:
REMARK  status: ('A' for Active; 'I' for Inactive)
REMARK    1  A    between atoms: C_1  and  C_2
REMARK    2  A    between atoms: N_10  and  C_11
REMARK    3  A    between atoms: C_11  and  C_12
REMARK    4  A    between atoms: N_14  and  C_15
REMARK    5  A    between atoms: C_15  and  C_16
REMARK    6  A    between atoms: C_16  and  N_17
REMARK                            x       y       z     vdW  Elec       q    Type
REMARK                         _______ _______ _______ _____ _____    ______ ____
ROOT
ATOM      1  C   UNL     1       6.447   7.186  17.389  0.00  0.00    +0.000 C 
ENDROOT
BRANCH   1  11
ATOM      2  C   UNL     1       6.203   3.948  13.712  0.00  0.00    +0.000 C 
ATOM      3  C   UNL     1       5.541   4.547  14.944  0.00  0.00    +0.000 C 
ATOM      4  O   UNL     1       4.946   3.514  15.726  0.00  0.00    +0.000 OA
ATOM      5  C   UNL     1       4.542   3.952  16.969  0.00  0.00    +0.000 A 
ATOM      6  C   UNL     1       3.727   3.071  17.683  0.00  0.00    +0.000 A 
ATOM      7  C   UNL     1       3.308   3.397  18.973  0.00  0.00    +0.000 A 
ATOM      8  C   UNL     1       3.703   4.600  19.548  0.00  0.00    +0.000 A 
ATOM      9  C   UNL     1       4.519   5.486  18.835  0.00  0.00    +0.000 A 
ATOM     10  C   UNL     1       4.949   5.173  17.540  0.00  0.00    +0.000 A 
ATOM     11  N   UNL     1       5.865   5.997  16.819  0.00  0.00    +0.000 N 
ATOM     12  C   UNL     1       6.519   5.407  15.736  0.00  0.00    +0.000 C 
ATOM     13  O   UNL     1       7.683   5.641  15.416  0.00  0.00    +0.000 OA
ENDBRANCH   1  11
BRANCH   1  14
ATOM     14  C   UNL     1       7.660   6.850  18.277  0.00  0.00    +0.000 C 
ATOM     15  O   UNL     1       7.957   5.701  18.613  0.00  0.00    +0.000 OA
ATOM     16  N   UNL     1       8.464   7.886  18.670  0.00  0.00    +0.000 N 
ATOM     17  H   UNL     1       9.249   7.602  19.245  0.00  0.00    +0.000 HD
BRANCH  16  18
ATOM     18  C   UNL     1       8.414   9.235  18.154  0.00  0.00    +0.000 C 
BRANCH  18  19
ATOM     19  C   UNL     1       9.149  10.290  19.016  0.00  0.00    +0.000 C 
BRANCH  19  20
ATOM     20  N   UNL     1       9.456  11.474  18.200  0.00  0.00    +0.000 NA
ATOM     21  C   UNL     1      10.864  11.551  17.763  0.00  0.00    +0.000 C 
ATOM     22  C   UNL     1      11.818  12.137  18.811  0.00  0.00    +0.000 C 
ATOM     23  O   UNL     1      11.395  13.448  19.189  0.00  0.00    +0.000 OA
ATOM     24  C   UNL     1      10.088  13.395  19.772  0.00  0.00    +0.000 C 
ATOM     25  C   UNL     1       9.056  12.751  18.826  0.00  0.00    +0.000 C 
ENDBRANCH  19  20
ENDBRANCH  18  19
ENDBRANCH  16  18
ENDBRANCH   1  14
TORSDOF 5
ENDMDL
MODEL 3
REMARK VINA RESULT:      -7.1      5.013      7.637
REMARK  Name = 
REMARK  6 active torsions:
REMARK  status: ('A' for Active; 'I' for Inactive)
REMARK    1  A    between atoms: C_1  and  C_2
REMARK    2  A    between atoms: N_10  and  C_11
REMARK    3  A    between atoms: C_11  and  C_12
REMARK    4  A    between atoms: N_14  and  C_15
REMARK    5  A    between atoms: C_15  and  C_16
REMARK    6  A    between atoms: C_16  and  N_17
REMARK                            x       y       z     vdW  Elec       q    Type
REMARK                         _______ _______ _______ _____ _____    ______ ____
ROOT
ATOM      1  C   UNL     1       1.222   9.493  19.679  0.00  0.00    +0.000 C 
ENDROOT
BRANCH   1  11
ATOM      2  C   UNL     1      -0.963  12.841  22.522  0.00  0.00    +0.000 C 
ATOM      3  C   UNL     1      -1.106  11.790  21.431  0.00  0.00    +0.000 C 
ATOM      4  O   UNL     1      -1.986  12.263  20.414  0.00  0.00    +0.000 OA
ATOM      5  C   UNL     1      -1.971  11.471  19.287  0.00  0.00    +0.000 A 
ATOM      6  C   UNL     1      -2.987  11.722  18.361  0.00  0.00    +0.000 A 
ATOM      7  C   UNL     1      -3.030  11.010  17.162  0.00  0.00    +0.000 A 
ATOM      8  C   UNL     1      -2.060  10.052  16.887  0.00  0.00    +0.000 A 
ATOM      9  C   UNL     1      -1.042   9.797  17.812  0.00  0.00    +0.000 A 
ATOM     10  C   UNL     1      -0.983  10.503  19.021  0.00  0.00    +0.000 A 
ATOM     11  N   UNL     1       0.094  10.350  19.944  0.00  0.00    +0.000 N 
ATOM     12  C   UNL     1       0.255  11.363  20.892  0.00  0.00    +0.000 C 
ATOM     13  O   UNL     1       1.342  11.765  21.302  0.00  0.00    +0.000 OA
ENDBRANCH   1  11
BRANCH   1  14
ATOM     14  C   UNL     1       1.292   8.326  20.682  0.00  0.00    +0.000 C 
ATOM     15  O   UNL     1       0.687   8.318  21.756  0.00  0.00    +0.000 OA
ATOM     16  N   UNL     1       2.034   7.231  20.328  0.00  0.00    +0.000 N 
ATOM     17  H   UNL     1       2.036   6.494  21.024  0.00  0.00    +0.000 HD
BRANCH  16  18
ATOM     18  C   UNL     1       2.579   6.969  19.016  0.00  0.00    +0.000 C 
BRANCH  18  19
ATOM     19  C   UNL     1       3.578   5.788  18.949  0.00  0.00    +0.000 C 
BRANCH  19  20
ATOM     20  N   UNL     1       3.215   4.890  17.843  0.00  0.00    +0.000 NA
ATOM     21  C   UNL     1       1.779   4.549  17.794  0.00  0.00    +0.000 C 
ATOM     22  C   UNL     1       1.371   3.410  18.736  0.00  0.00    +0.000 C 
ATOM     23  O   UNL     1       2.121   2.230  18.440  0.00  0.00    +0.000 OA
ATOM     24  C   UNL     1       3.518   2.473  18.634  0.00  0.00    +0.000 C 
ATOM     25  C   UNL     1       4.024   3.656  17.785  0.00  0.00    +0.000 C 
ENDBRANCH  19  20
ENDBRANCH  18  19
ENDBRANCH  16  18
ENDBRANCH   1  14
TORSDOF 5
ENDMDL
MODEL 4
REMARK VINA RESULT:      -7.1      4.984      7.533
REMARK  Name = 
REMARK  6 active torsions:
REMARK  status: ('A' for Active; 'I' for Inactive)
REMARK    1  A    between atoms: C_1  and  C_2
REMARK    2  A    between atoms: N_10  and  C_11
REMARK    3  A    between atoms: C_11  and  C_12
REMARK    4  A    between atoms: N_14  and  C_15
REMARK    5  A    between atoms: C_15  and  C_16
REMARK    6  A    between atoms: C_16  and  N_17
REMARK                            x       y       z     vdW  Elec       q    Type
REMARK                         _______ _______ _______ _____ _____    ______ ____
ROOT
ATOM      1  C   UNL     1       1.246   9.525  19.634  0.00  0.00    +0.000 C 
ENDROOT
BRANCH   1  11
ATOM      2  C   UNL     1      -0.911  12.890  22.478  0.00  0.00    +0.000 C 
ATOM      3  C   UNL     1      -1.066  11.827  21.400  0.00  0.00    +0.000 C 
ATOM      4  O   UNL     1      -1.966  12.284  20.393  0.00  0.00    +0.000 OA
ATOM      5  C   UNL     1      -1.965  11.481  19.274  0.00  0.00    +0.000 A 
ATOM      6  C   UNL     1      -2.997  11.716  18.363  0.00  0.00    +0.000 A 
ATOM      7  C   UNL     1      -3.056  10.992  17.172  0.00  0.00    +0.000 A 
ATOM      8  C   UNL     1      -2.085  10.036  16.891  0.00  0.00    +0.000 A 
ATOM      9  C   UNL     1      -1.050   9.797  17.802  0.00  0.00    +0.000 A 
ATOM     10  C   UNL     1      -0.976  10.516  19.002  0.00  0.00    +0.000 A 
ATOM     11  N   UNL     1       0.118  10.379  19.909  0.00  0.00    +0.000 N 
ATOM     12  C   UNL     1       0.288  11.402  20.844  0.00  0.00    +0.000 C 
ATOM     13  O   UNL     1       1.379  11.814  21.232  0.00  0.00    +0.000 OA
ENDBRANCH   1  11
BRANCH   1  14
ATOM     14  C   UNL     1       1.353   8.383  20.662  0.00  0.00    +0.000 C 
ATOM     15  O   UNL     1       0.731   8.368  21.727  0.00  0.00    +0.000 OA
ATOM     16  N   UNL     1       2.151   7.317  20.342  0.00  0.00    +0.000 N 
ATOM     17  H   UNL     1       2.175   6.595  21.053  0.00  0.00    +0.000 HD
BRANCH  16  18
ATOM     18  C   UNL     1       2.729   7.054  19.045  0.00  0.00    +0.000 C 
BRANCH  18  19
ATOM     19  C   UNL     1       2.348   5.687  18.426  0.00  0.00    +0.000 C 
BRANCH  19  20
ATOM     20  N   UNL     1       2.471   4.629  19.439  0.00  0.00    +0.000 NA
ATOM     21  C   UNL     1       3.599   3.706  19.208  0.00  0.00    +0.000 C 
ATOM     22  C   UNL     1       3.300   2.586  18.204  0.00  0.00    +0.000 C 
ATOM     23  O   UNL     1       2.176   1.818  18.638  0.00  0.00    +0.000 OA
ATOM     24  C   UNL     1       1.014   2.650  18.720  0.00  0.00    +0.000 C 
ATOM     25  C   UNL     1       1.229   3.858  19.651  0.00  0.00    +0.000 C 
ENDBRANCH  19  20
ENDBRANCH  18  19
ENDBRANCH  16  18
ENDBRANCH   1  14
TORSDOF 5
ENDMDL
MODEL 5
REMARK VINA RESULT:      -7.1      3.596      6.064
REMARK  Name = 
REMARK  6 active torsions:
REMARK  status: ('A' for Active; 'I' for Inactive)
REMARK    1  A    between atoms: C_1  and  C_2
REMARK    2  A    between atoms: N_10  and  C_11
REMARK    3  A    between atoms: C_11  and  C_12
REMARK    4  A    between atoms: N_14  and  C_15
REMARK    5  A    between atoms: C_15  and  C_16
REMARK    6  A    between atoms: C_16  and  N_17
REMARK                            x       y       z     vdW  Elec       q    Type
REMARK                         _______ _______ _______ _____ _____    ______ ____
ROOT
ATOM      1  C   UNL     1       3.222   6.956  18.968  0.00  0.00    +0.000 C 
ENDROOT
BRANCH   1  11
ATOM      2  C   UNL     1       6.058   4.109  16.154  0.00  0.00    +0.000 C 
ATOM      3  C   UNL     1       4.697   4.333  16.798  0.00  0.00    +0.000 C 
ATOM      4  O   UNL     1       4.200   3.104  17.322  0.00  0.00    +0.000 OA
ATOM      5  C   UNL     1       3.095   3.276  18.126  0.00  0.00    +0.000 A 
ATOM      6  C   UNL     1       2.406   2.109  18.462  0.00  0.00    +0.000 A 
ATOM      7  C   UNL     1       1.304   2.169  19.315  0.00  0.00    +0.000 A 
ATOM      8  C   UNL     1       0.892   3.392  19.833  0.00  0.00    +0.000 A 
ATOM      9  C   UNL     1       1.579   4.565  19.498  0.00  0.00    +0.000 A 
ATOM     10  C   UNL     1       2.688   4.521  18.644  0.00  0.00    +0.000 A 
ATOM     11  N   UNL     1       3.480   5.675  18.360  0.00  0.00    +0.000 N 
ATOM     12  C   UNL     1       4.754   5.446  17.838  0.00  0.00    +0.000 C 
ATOM     13  O   UNL     1       5.746   6.122  18.105  0.00  0.00    +0.000 OA
ENDBRANCH   1  11
BRANCH   1  14
ATOM     14  C   UNL     1       2.788   8.000  17.922  0.00  0.00    +0.000 C 
ATOM     15  O   UNL     1       3.226   8.028  16.769  0.00  0.00    +0.000 OA
ATOM     16  N   UNL     1       1.834   8.910  18.293  0.00  0.00    +0.000 N 
ATOM     17  H   UNL     1       1.585   9.565  17.561  0.00  0.00    +0.000 HD
BRANCH  16  18
ATOM     18  C   UNL     1       1.036   8.852  19.496  0.00  0.00    +0.000 C 
BRANCH  18  19
ATOM     19  C   UNL     1       0.279  10.158  19.839  0.00  0.00    +0.000 C 
BRANCH  19  20
ATOM     20  N   UNL     1       0.799  10.722  21.093  0.00  0.00    +0.000 NA
ATOM     21  C   UNL     1       0.958   9.731  22.175  0.00  0.00    +0.000 C 
ATOM     22  C   UNL     1      -0.332   9.431  22.949  0.00  0.00    +0.000 C 
ATOM     23  O   UNL     1      -0.859  10.632  23.516  0.00  0.00    +0.000 OA
ATOM     24  C   UNL     1      -1.181  11.566  22.480  0.00  0.00    +0.000 C 
ATOM     25  C   UNL     1       0.034  11.884  21.588  0.00  0.00    +0.000 C 
ENDBRANCH  19  20
ENDBRANCH  18  19
ENDBRANCH  16  18
ENDBRANCH   1  14
TORSDOF 5
ENDMDL
MODEL 6
REMARK VINA RESULT:      -7.1      3.579      5.991
REMARK  Name = 
REMARK  6 active torsions:
REMARK  status: ('A' for Active; 'I' for Inactive)
REMARK    1  A    between atoms: C_1  and  C_2
REMARK    2  A    between atoms: N_10  and  C_11
REMARK    3  A    between atoms: C_11  and  C_12
REMARK    4  A    between atoms: N_14  and  C_15
REMARK    5  A    between atoms: C_15  and  C_16
REMARK    6  A    between atoms: C_16  and  N_17
REMARK                            x       y       z     vdW  Elec       q    Type
REMARK                         _______ _______ _______ _____ _____    ______ ____
ROOT
ATOM      1  C   UNL     1       3.308   6.860  18.792  0.00  0.00    +0.000 C 
ENDROOT
BRANCH   1  11
ATOM      2  C   UNL     1       6.165   4.074  15.939  0.00  0.00    +0.000 C 
ATOM      3  C   UNL     1       4.797   4.289  16.570  0.00  0.00    +0.000 C 
ATOM      4  O   UNL     1       4.285   3.049  17.052  0.00  0.00    +0.000 OA
ATOM      5  C   UNL     1       3.170   3.206  17.846  0.00  0.00    +0.000 A 
ATOM      6  C   UNL     1       2.468   2.034  18.139  0.00  0.00    +0.000 A 
ATOM      7  C   UNL     1       1.355   2.078  18.978  0.00  0.00    +0.000 A 
ATOM      8  C   UNL     1       0.944   3.289  19.525  0.00  0.00    +0.000 A 
ATOM      9  C   UNL     1       1.642   4.466  19.232  0.00  0.00    +0.000 A 
ATOM     10  C   UNL     1       2.763   4.439  18.393  0.00  0.00    +0.000 A 
ATOM     11  N   UNL     1       3.566   5.595  18.152  0.00  0.00    +0.000 N 
ATOM     12  C   UNL     1       4.846   5.372  17.641  0.00  0.00    +0.000 C 
ATOM     13  O   UNL     1       5.839   6.034  17.941  0.00  0.00    +0.000 OA
ENDBRANCH   1  11
BRANCH   1  14
ATOM     14  C   UNL     1       2.926   7.944  17.766  0.00  0.00    +0.000 C 
ATOM     15  O   UNL     1       3.306   7.931  16.593  0.00  0.00    +0.000 OA
ATOM     16  N   UNL     1       2.085   8.941  18.182  0.00  0.00    +0.000 N 
ATOM     17  H   UNL     1       1.864   9.619  17.462  0.00  0.00    +0.000 HD
BRANCH  16  18
ATOM     18  C   UNL     1       1.346   8.959  19.423  0.00  0.00    +0.000 C 
BRANCH  18  19
ATOM     19  C   UNL     1       0.741  10.333  19.802  0.00  0.00    +0.000 C 
BRANCH  19  20
ATOM     20  N   UNL     1      -0.514  10.137  20.544  0.00  0.00    +0.000 NA
ATOM     21  C   UNL     1      -1.115  11.389  21.045  0.00  0.00    +0.000 C 
ATOM     22  C   UNL     1      -0.516  11.890  22.365  0.00  0.00    +0.000 C 
ATOM     23  O   UNL     1      -0.650  10.892  23.380  0.00  0.00    +0.000 OA
ATOM     24  C   UNL     1       0.061   9.709  23.002  0.00  0.00    +0.000 C 
ATOM     25  C   UNL     1      -0.411   9.156  21.643  0.00  0.00    +0.000 C 
ENDBRANCH  19  20
ENDBRANCH  18  19
ENDBRANCH  16  18
ENDBRANCH   1  14
TORSDOF 5
ENDMDL
MODEL 7
REMARK VINA RESULT:      -6.9      3.948      6.414
REMARK  Name = 
REMARK  6 active torsions:
REMARK  status: ('A' for Active; 'I' for Inactive)
REMARK    1  A    between atoms: C_1  and  C_2
REMARK    2  A    between atoms: N_10  and  C_11
REMARK    3  A    between atoms: C_11  and  C_12
REMARK    4  A    between atoms: N_14  and  C_15
REMARK    5  A    between atoms: C_15  and  C_16
REMARK    6  A    between atoms: C_16  and  N_17
REMARK                            x       y       z     vdW  Elec       q    Type
REMARK                         _______ _______ _______ _____ _____    ______ ____
ROOT
ATOM      1  C   UNL     1       3.134   6.936  19.255  0.00  0.00    +0.000 C 
ENDROOT
BRANCH   1  11
ATOM      2  C   UNL     1       5.709   4.644  15.764  0.00  0.00    +0.000 C 
ATOM      3  C   UNL     1       4.410   4.739  16.551  0.00  0.00    +0.000 C 
ATOM      4  O   UNL     1       3.956   3.433  16.897  0.00  0.00    +0.000 OA
ATOM      5  C   UNL     1       2.925   3.452  17.810  0.00  0.00    +0.000 A 
ATOM      6  C   UNL     1       2.263   2.237  17.999  0.00  0.00    +0.000 A 
ATOM      7  C   UNL     1       1.238   2.138  18.940  0.00  0.00    +0.000 A 
ATOM      8  C   UNL     1       0.876   3.250  19.693  0.00  0.00    +0.000 A 
ATOM      9  C   UNL     1       1.535   4.470  19.506  0.00  0.00    +0.000 A 
ATOM     10  C   UNL     1       2.567   4.586  18.566  0.00  0.00    +0.000 A 
ATOM     11  N   UNL     1       3.335   5.780  18.417  0.00  0.00    +0.000 N 
ATOM     12  C   UNL     1       4.559   5.659  17.757  0.00  0.00    +0.000 C 
ATOM     13  O   UNL     1       5.572   6.291  18.050  0.00  0.00    +0.000 OA
ENDBRANCH   1  11
BRANCH   1  14
ATOM     14  C   UNL     1       2.389   8.056  18.503  0.00  0.00    +0.000 C 
ATOM     15  O   UNL     1       2.481   8.233  17.286  0.00  0.00    +0.000 OA
ATOM     16  N   UNL     1       1.551   8.858  19.230  0.00  0.00    +0.000 N 
ATOM     17  H   UNL     1       1.084   9.570  18.680  0.00  0.00    +0.000 HD
BRANCH  16  18
ATOM     18  C   UNL     1       1.129   8.623  20.592  0.00  0.00    +0.000 C 
BRANCH  18  19
ATOM     19  C   UNL     1      -0.117   9.426  21.036  0.00  0.00    +0.000 C 
BRANCH  19  20
ATOM     20  N   UNL     1       0.288  10.518  21.934  0.00  0.00    +0.000 NA
ATOM     21  C   UNL     1      -0.691  10.812  22.999  0.00  0.00    +0.000 C 
ATOM     22  C   UNL     1      -1.845  11.721  22.560  0.00  0.00    +0.000 C 
ATOM     23  O   UNL     1      -1.338  12.962  22.064  0.00  0.00    +0.000 OA
ATOM     24  C   UNL     1      -0.507  12.732  20.921  0.00  0.00    +0.000 C 
ATOM     25  C   UNL     1       0.652  11.765  21.231  0.00  0.00    +0.000 C 
ENDBRANCH  19  20
ENDBRANCH  18  19
ENDBRANCH  16  18
ENDBRANCH   1  14
TORSDOF 5
ENDMDL
MODEL 8
REMARK VINA RESULT:      -6.9      3.901      7.605
REMARK  Name = 
REMARK  6 active torsions:
REMARK  status: ('A' for Active; 'I' for Inactive)
REMARK    1  A    between atoms: C_1  and  C_2
REMARK    2  A    between atoms: N_10  and  C_11
REMARK    3  A    between atoms: C_11  and  C_12
REMARK    4  A    between atoms: N_14  and  C_15
REMARK    5  A    between atoms: C_15  and  C_16
REMARK    6  A    between atoms: C_16  and  N_17
REMARK                            x       y       z     vdW  Elec       q    Type
REMARK                         _______ _______ _______ _____ _____    ______ ____
ROOT
ATOM      1  C   UNL     1       6.651   7.212  17.296  0.00  0.00    +0.000 C 
ENDROOT
BRANCH   1  11
ATOM      2  C   UNL     1       2.793   4.320  18.199  0.00  0.00    +0.000 C 
ATOM      3  C   UNL     1       4.140   4.489  17.512  0.00  0.00    +0.000 C 
ATOM      4  O   UNL     1       4.089   3.935  16.200  0.00  0.00    +0.000 OA
ATOM      5  C   UNL     1       5.188   4.266  15.438  0.00  0.00    +0.000 A 
ATOM      6  C   UNL     1       5.331   3.555  14.244  0.00  0.00    +0.000 A 
ATOM      7  C   UNL     1       6.382   3.852  13.376  0.00  0.00    +0.000 A 
ATOM      8  C   UNL     1       7.287   4.858  13.700  0.00  0.00    +0.000 A 
ATOM      9  C   UNL     1       7.149   5.571  14.895  0.00  0.00    +0.000 A 
ATOM     10  C   UNL     1       6.098   5.286  15.777  0.00  0.00    +0.000 A 
ATOM     11  N   UNL     1       5.859   6.057  16.954  0.00  0.00    +0.000 N 
ATOM     12  C   UNL     1       4.591   5.945  17.529  0.00  0.00    +0.000 C 
ATOM     13  O   UNL     1       3.985   6.872  18.063  0.00  0.00    +0.000 OA
ENDBRANCH   1  11
BRANCH   1  14
ATOM     14  C   UNL     1       7.733   6.866  18.337  0.00  0.00    +0.000 C 
ATOM     15  O   UNL     1       7.964   5.716  18.718  0.00  0.00    +0.000 OA
ATOM     16  N   UNL     1       8.496   7.893  18.822  0.00  0.00    +0.000 N 
ATOM     17  H   UNL     1       9.195   7.603  19.496  0.00  0.00    +0.000 HD
BRANCH  16  18
ATOM     18  C   UNL     1       8.537   9.237  18.293  0.00  0.00    +0.000 C 
BRANCH  18  19
ATOM     19  C   UNL     1       9.276  10.266  19.182  0.00  0.00    +0.000 C 
BRANCH  19  20
ATOM     20  N   UNL     1      10.042  11.195  18.339  0.00  0.00    +0.000 NA
ATOM     21  C   UNL     1      11.313  11.643  18.942  0.00  0.00    +0.000 C 
ATOM     22  C   UNL     1      11.164  12.805  19.931  0.00  0.00    +0.000 C 
ATOM     23  O   UNL     1      10.554  13.927  19.291  0.00  0.00    +0.000 OA
ATOM     24  C   UNL     1       9.244  13.578  18.831  0.00  0.00    +0.000 C 
ATOM     25  C   UNL     1       9.266  12.365  17.881  0.00  0.00    +0.000 C 
ENDBRANCH  19  20
ENDBRANCH  18  19
ENDBRANCH  16  18
ENDBRANCH   1  14
TORSDOF 5
ENDMDL
MODEL 9
REMARK VINA RESULT:      -6.9      3.945      6.237
REMARK  Name = 
REMARK  6 active torsions:
REMARK  status: ('A' for Active; 'I' for Inactive)
REMARK    1  A    between atoms: C_1  and  C_2
REMARK    2  A    between atoms: N_10  and  C_11
REMARK    3  A    between atoms: C_11  and  C_12
REMARK    4  A    between atoms: N_14  and  C_15
REMARK    5  A    between atoms: C_15  and  C_16
REMARK    6  A    between atoms: C_16  and  N_17
REMARK                            x       y       z     vdW  Elec       q    Type
REMARK                         _______ _______ _______ _____ _____    ______ ____
ROOT
ATOM      1  C   UNL     1       2.236   6.893  17.924  0.00  0.00    +0.000 C 
ENDROOT
BRANCH   1  11
ATOM      2  C   UNL     1       2.482   2.005  18.273  0.00  0.00    +0.000 C 
ATOM      3  C   UNL     1       3.212   3.338  18.348  0.00  0.00    +0.000 C 
ATOM      4  O   UNL     1       4.484   3.231  17.713  0.00  0.00    +0.000 OA
ATOM      5  C   UNL     1       5.093   4.453  17.530  0.00  0.00    +0.000 A 
ATOM      6  C   UNL     1       6.437   4.407  17.153  0.00  0.00    +0.000 A 
ATOM      7  C   UNL     1       7.130   5.589  16.892  0.00  0.00    +0.000 A 
ATOM      8  C   UNL     1       6.481   6.815  17.005  0.00  0.00    +0.000 A 
ATOM      9  C   UNL     1       5.135   6.865  17.383  0.00  0.00    +0.000 A 
ATOM     10  C   UNL     1       4.424   5.688  17.647  0.00  0.00    +0.000 A 
ATOM     11  N   UNL     1       3.026   5.687  17.933  0.00  0.00    +0.000 N 
ATOM     12  C   UNL     1       2.358   4.470  17.788  0.00  0.00    +0.000 C 
ATOM     13  O   UNL     1       1.208   4.354  17.368  0.00  0.00    +0.000 OA
ENDBRANCH   1  11
BRANCH   1  14
ATOM     14  C   UNL     1       2.006   7.428  19.351  0.00  0.00    +0.000 C 
ATOM     15  O   UNL     1       2.183   6.750  20.365  0.00  0.00    +0.000 OA
ATOM     16  N   UNL     1       1.630   8.737  19.482  0.00  0.00    +0.000 N 
ATOM     17  H   UNL     1       1.502   9.033  20.443  0.00  0.00    +0.000 HD
BRANCH  16  18
ATOM     18  C   UNL     1       1.639   9.728  18.431  0.00  0.00    +0.000 C 
BRANCH  18  19
ATOM     19  C   UNL     1       0.672  10.918  18.648  0.00  0.00    +0.000 C 
BRANCH  19  20
ATOM     20  N   UNL     1      -0.565  10.446  19.287  0.00  0.00    +0.000 NA
ATOM     21  C   UNL     1      -1.688  10.254  18.350  0.00  0.00    +0.000 C 
ATOM     22  C   UNL     1      -2.456  11.539  18.017  0.00  0.00    +0.000 C 
ATOM     23  O   UNL     1      -2.967  12.134  19.211  0.00  0.00    +0.000 OA
ATOM     24  C   UNL     1      -1.890  12.487  20.085  0.00  0.00    +0.000 C 
ATOM     25  C   UNL     1      -1.001  11.276  20.428  0.00  0.00    +0.000 C 
ENDBRANCH  19  20
ENDBRANCH  18  19
ENDBRANCH  16  18
ENDBRANCH   1  14
TORSDOF 5
ENDMDL
