MODEL 1
REMARK VINA RESULT:      -7.8      0.000      0.000
REMARK  Name = 
REMARK  11 active torsions:
REMARK  status: ('A' for Active; 'I' for Inactive)
REMARK    1  A    between atoms: C_1  and  O_2
REMARK    2  A    between atoms: O_2  and  C_3
REMARK    3  A    between atoms: C_6  and  C_7
REMARK    4  A    between atoms: N_9  and  N_10
REMARK    5  A    between atoms: C_11  and  C_12
REMARK    6  A    between atoms: C_11  and  C_13
REMARK    7  A    between atoms: C_16  and  N_17
REMARK    8  A    between atoms: C_18  and  C_20
REMARK    9  A    between atoms: C_20  and  C_21
REMARK   10  A    between atoms: C_29  and  O_30
REMARK   11  A    between atoms: O_30  and  C_31
REMARK                            x       y       z     vdW  Elec       q    Type
REMARK                         _______ _______ _______ _____ _____    ______ ____
ROOT
ATOM      1  N   UNL     1       0.539  11.079  21.071  0.00  0.00    +0.000 NA
ATOM      2  C   UNL     1       0.271  10.500  19.929  0.00  0.00    +0.000 C 
ATOM      3  C   UNL     1      -0.876  10.887  19.011  0.00  0.00    +0.000 C 
ENDROOT
BRANCH   2   4
ATOM      4  C   UNL     1       1.114   9.316  19.505  0.00  0.00    +0.000 A 
ATOM      5  C   UNL     1       1.562   9.186  18.184  0.00  0.00    +0.000 A 
ATOM      6  C   UNL     1       2.319   8.081  17.785  0.00  0.00    +0.000 A 
ATOM      7  C   UNL     1       2.624   7.069  18.694  0.00  0.00    +0.000 A 
ATOM      8  C   UNL     1       2.151   7.162  20.003  0.00  0.00    +0.000 A 
ATOM      9  C   UNL     1       1.423   8.293  20.414  0.00  0.00    +0.000 A 
BRANCH   7  10
ATOM     10  N   UNL     1       3.381   5.948  18.307  0.00  0.00    +0.000 N 
ATOM     11  C   UNL     1       2.796   4.777  17.847  0.00  0.00    +0.000 C 
ATOM     12  O   UNL     1       1.590   4.626  17.648  0.00  0.00    +0.000 OA
ATOM     13  H   UNL     1       4.359   6.094  18.099  0.00  0.00    +0.000 HD
BRANCH  11  14
ATOM     14  C   UNL     1       3.777   3.641  17.586  0.00  0.00    +0.000 C 
BRANCH  14  15
ATOM     15  C   UNL     1       4.991   4.131  16.838  0.00  0.00    +0.000 A 
ATOM     16  C   UNL     1       4.929   4.338  15.451  0.00  0.00    +0.000 A 
ATOM     17  C   UNL     1       6.072   4.682  14.733  0.00  0.00    +0.000 A 
ATOM     18  C   UNL     1       7.286   4.842  15.395  0.00  0.00    +0.000 A 
ATOM     19  C   UNL     1       7.351   4.685  16.779  0.00  0.00    +0.000 A 
ATOM     20  C   UNL     1       6.208   4.335  17.500  0.00  0.00    +0.000 A 
ENDBRANCH  14  15
ENDBRANCH  11  14
ENDBRANCH   7  10
ENDBRANCH   2   4
BRANCH   1  23
ATOM     21  C   UNL     1      -1.000  12.143  22.670  0.00  0.00    +0.000 C 
ATOM     22  O   UNL     1      -1.086  11.220  23.477  0.00  0.00    +0.000 OA
ATOM     23  N   UNL     1      -0.226  12.135  21.504  0.00  0.00    +0.000 N 
ATOM     24  H   UNL     1      -0.488  12.770  20.759  0.00  0.00    +0.000 HD
BRANCH  21  28
ATOM     25  C   UNL     1      -3.338  15.670  23.400  0.00  0.00    +0.000 A 
ATOM     26  C   UNL     1      -3.946  14.428  23.214  0.00  0.00    +0.000 A 
ATOM     27  C   UNL     1      -3.177  13.296  22.957  0.00  0.00    +0.000 A 
ATOM     28  C   UNL     1      -1.785  13.392  22.880  0.00  0.00    +0.000 A 
ATOM     29  C   UNL     1      -1.157  14.647  23.038  0.00  0.00    +0.000 A 
ATOM     30  C   UNL     1      -1.948  15.780  23.294  0.00  0.00    +0.000 A 
BRANCH  25  32
ATOM     31  C   UNL     1      -4.480  16.950  25.055  0.00  0.00    +0.000 C 
ATOM     32  O   UNL     1      -4.209  16.686  23.685  0.00  0.00    +0.000 OA
ENDBRANCH  25  32
BRANCH  29  33
ATOM     33  O   UNL     1       0.207  14.697  22.893  0.00  0.00    +0.000 OA
ATOM     34  C   UNL     1       0.784  15.921  22.444  0.00  0.00    +0.000 C 
ENDBRANCH  29  33
ENDBRANCH  21  28
ENDBRANCH   1  23
TORSDOF 8
ENDMDL
MODEL 2
REMARK VINA RESULT:      -7.7      2.289     12.431
REMARK  Name = 
REMARK  11 active torsions:
REMARK  status: ('A' for Active; 'I' for Inactive)
REMARK    1  A    between atoms: C_1  and  O_2
REMARK    2  A    between atoms: O_2  and  C_3
REMARK    3  A    between atoms: C_6  and  C_7
REMARK    4  A    between atoms: N_9  and  N_10
REMARK    5  A    between atoms: C_11  and  C_12
REMARK    6  A    between atoms: C_11  and  C_13
REMARK    7  A    between atoms: C_16  and  N_17
REMARK    8  A    between atoms: C_18  and  C_20
REMARK    9  A    between atoms: C_20  and  C_21
REMARK   10  A    between atoms: C_29  and  O_30
REMARK   11  A    between atoms: O_30  and  C_31
REMARK                            x       y       z     vdW  Elec       q    Type
REMARK                         _______ _______ _______ _____ _____    ______ ____
ROOT
ATOM      1  N   UNL     1       1.735   7.902  19.537  0.00  0.00    +0.000 NA
ATOM      2  C   UNL     1       1.353   9.136  19.332  0.00  0.00    +0.000 C 
ATOM      3  C   UNL     1       1.750   9.978  18.131  0.00  0.00    +0.000 C 
ENDROOT
BRANCH   2   4
ATOM      4  C   UNL     1       0.505   9.812  20.388  0.00  0.00    +0.000 A 
ATOM      5  C   UNL     1       0.116  11.152  20.252  0.00  0.00    +0.000 A 
ATOM      6  C   UNL     1      -0.646  11.784  21.238  0.00  0.00    +0.000 A 
ATOM      7  C   UNL     1      -1.016  11.098  22.394  0.00  0.00    +0.000 A 
ATOM      8  C   UNL     1      -0.603   9.776  22.565  0.00  0.00    +0.000 A 
ATOM      9  C   UNL     1       0.131   9.128  21.554  0.00  0.00    +0.000 A 
BRANCH   7  10
ATOM     10  N   UNL     1      -1.778  11.722  23.398  0.00  0.00    +0.000 N 
ATOM     11  C   UNL     1      -3.040  12.248  23.158  0.00  0.00    +0.000 C 
ATOM     12  O   UNL     1      -3.649  12.151  22.093  0.00  0.00    +0.000 OA
ATOM     13  H   UNL     1      -1.526  11.536  24.359  0.00  0.00    +0.000 HD
BRANCH  11  14
ATOM     14  C   UNL     1      -3.654  12.981  24.345  0.00  0.00    +0.000 C 
BRANCH  14  15
ATOM     15  C   UNL     1      -5.050  13.455  24.027  0.00  0.00    +0.000 A 
ATOM     16  C   UNL     1      -5.271  14.788  23.645  0.00  0.00    +0.000 A 
ATOM     17  C   UNL     1      -6.566  15.266  23.458  0.00  0.00    +0.000 A 
ATOM     18  C   UNL     1      -7.654  14.414  23.633  0.00  0.00    +0.000 A 
ATOM     19  C   UNL     1      -7.444  13.077  23.967  0.00  0.00    +0.000 A 
ATOM     20  C   UNL     1      -6.148  12.596  24.160  0.00  0.00    +0.000 A 
ENDBRANCH  14  15
ENDBRANCH  11  14
ENDBRANCH   7  10
ENDBRANCH   2   4
BRANCH   1  23
ATOM     21  C   UNL     1       3.341   6.155  18.881  0.00  0.00    +0.000 C 
ATOM     22  O   UNL     1       3.430   5.579  19.963  0.00  0.00    +0.000 OA
ATOM     23  N   UNL     1       2.534   7.267  18.616  0.00  0.00    +0.000 N 
ATOM     24  H   UNL     1       2.789   7.859  17.833  0.00  0.00    +0.000 HD
BRANCH  21  28
ATOM     25  C   UNL     1       5.826   4.853  15.630  0.00  0.00    +0.000 A 
ATOM     26  C   UNL     1       6.036   6.086  16.250  0.00  0.00    +0.000 A 
ATOM     27  C   UNL     1       5.210   6.505  17.289  0.00  0.00    +0.000 A 
ATOM     28  C   UNL     1       4.157   5.695  17.722  0.00  0.00    +0.000 A 
ATOM     29  C   UNL     1       3.913   4.458  17.086  0.00  0.00    +0.000 A 
ATOM     30  C   UNL     1       4.756   4.051  16.037  0.00  0.00    +0.000 A 
BRANCH  25  32
ATOM     31  C   UNL     1       6.268   3.824  13.526  0.00  0.00    +0.000 C 
ATOM     32  O   UNL     1       6.736   4.552  14.654  0.00  0.00    +0.000 OA
ENDBRANCH  25  32
BRANCH  29  33
ATOM     33  O   UNL     1       2.830   3.729  17.509  0.00  0.00    +0.000 OA
ATOM     34  C   UNL     1       3.076   2.462  18.114  0.00  0.00    +0.000 C 
ENDBRANCH  29  33
ENDBRANCH  21  28
ENDBRANCH   1  23
TORSDOF 8
ENDMDL
MODEL 3
REMARK VINA RESULT:      -7.6      1.537      2.164
REMARK  Name = 
REMARK  11 active torsions:
REMARK  status: ('A' for Active; 'I' for Inactive)
REMARK    1  A    between atoms: C_1  and  O_2
REMARK    2  A    between atoms: O_2  and  C_3
REMARK    3  A    between atoms: C_6  and  C_7
REMARK    4  A    between atoms: N_9  and  N_10
REMARK    5  A    between atoms: C_11  and  C_12
REMARK    6  A    between atoms: C_11  and  C_13
REMARK    7  A    between atoms: C_16  and  N_17
REMARK    8  A    between atoms: C_18  and  C_20
REMARK    9  A    between atoms: C_20  and  C_21
REMARK   10  A    between atoms: C_29  and  O_30
REMARK   11  A    between atoms: O_30  and  C_31
REMARK                            x       y       z     vdW  Elec       q    Type
REMARK                         _______ _______ _______ _____ _____    ______ ____
ROOT
ATOM      1  N   UNL     1       0.341   9.608  20.761  0.00  0.00    +0.000 NA
ATOM      2  C   UNL     1       1.086   9.781  19.701  0.00  0.00    +0.000 C 
ATOM      3  C   UNL     1       1.217  11.089  18.938  0.00  0.00    +0.000 C 
ENDROOT
BRANCH   2   4
ATOM      4  C   UNL     1       1.831   8.588  19.141  0.00  0.00    +0.000 A 
ATOM      5  C   UNL     1       2.008   7.425  19.902  0.00  0.00    +0.000 A 
ATOM      6  C   UNL     1       2.716   6.333  19.395  0.00  0.00    +0.000 A 
ATOM      7  C   UNL     1       3.286   6.388  18.124  0.00  0.00    +0.000 A 
ATOM      8  C   UNL     1       3.155   7.554  17.368  0.00  0.00    +0.000 A 
ATOM      9  C   UNL     1       2.408   8.638  17.863  0.00  0.00    +0.000 A 
BRANCH   7  10
ATOM     10  N   UNL     1       4.007   5.300  17.601  0.00  0.00    +0.000 N 
ATOM     11  C   UNL     1       4.814   5.411  16.478  0.00  0.00    +0.000 C 
ATOM     12  O   UNL     1       5.051   6.464  15.885  0.00  0.00    +0.000 OA
ATOM     13  H   UNL     1       4.158   4.506  18.207  0.00  0.00    +0.000 HD
BRANCH  11  14
ATOM     14  C   UNL     1       5.421   4.096  16.003  0.00  0.00    +0.000 C 
BRANCH  14  15
ATOM     15  C   UNL     1       5.965   4.222  14.603  0.00  0.00    +0.000 A 
ATOM     16  C   UNL     1       5.305   3.602  13.531  0.00  0.00    +0.000 A 
ATOM     17  C   UNL     1       5.858   3.617  12.253  0.00  0.00    +0.000 A 
ATOM     18  C   UNL     1       7.068   4.268  12.027  0.00  0.00    +0.000 A 
ATOM     19  C   UNL     1       7.710   4.928  13.073  0.00  0.00    +0.000 A 
ATOM     20  C   UNL     1       7.160   4.910  14.357  0.00  0.00    +0.000 A 
ENDBRANCH  14  15
ENDBRANCH  11  14
ENDBRANCH   7  10
ENDBRANCH   2   4
BRANCH   1  23
ATOM     21  C   UNL     1      -0.549  10.924  22.642  0.00  0.00    +0.000 C 
ATOM     22  O   UNL     1      -0.067  10.269  23.563  0.00  0.00    +0.000 OA
ATOM     23  N   UNL     1      -0.376  10.660  21.278  0.00  0.00    +0.000 N 
ATOM     24  H   UNL     1      -1.071  11.024  20.635  0.00  0.00    +0.000 HD
BRANCH  21  28
ATOM     25  C   UNL     1      -3.107  14.228  23.636  0.00  0.00    +0.000 A 
ATOM     26  C   UNL     1      -3.576  12.914  23.677  0.00  0.00    +0.000 A 
ATOM     27  C   UNL     1      -2.743  11.854  23.332  0.00  0.00    +0.000 A 
ATOM     28  C   UNL     1      -1.423  12.094  22.937  0.00  0.00    +0.000 A 
ATOM     29  C   UNL     1      -0.943  13.420  22.863  0.00  0.00    +0.000 A 
ATOM     30  C   UNL     1      -1.799  14.478  23.212  0.00  0.00    +0.000 A 
BRANCH  25  32
ATOM     31  C   UNL     1      -3.612  16.084  25.044  0.00  0.00    +0.000 C 
ATOM     32  O   UNL     1      -4.019  15.164  24.039  0.00  0.00    +0.000 OA
ENDBRANCH  25  32
BRANCH  29  33
ATOM     33  O   UNL     1       0.340  13.605  22.411  0.00  0.00    +0.000 OA
ATOM     34  C   UNL     1       0.607  14.762  21.623  0.00  0.00    +0.000 C 
ENDBRANCH  29  33
ENDBRANCH  21  28
ENDBRANCH   1  23
TORSDOF 8
ENDMDL
MODEL 4
REMARK VINA RESULT:      -7.6      2.199     12.462
REMARK  Name = 
REMARK  11 active torsions:
REMARK  status: ('A' for Active; 'I' for Inactive)
REMARK    1  A    between atoms: C_1  and  O_2
REMARK    2  A    between atoms: O_2  and  C_3
REMARK    3  A    between atoms: C_6  and  C_7
REMARK    4  A    between atoms: N_9  and  N_10
REMARK    5  A    between atoms: C_11  and  C_12
REMARK    6  A    between atoms: C_11  and  C_13
REMARK    7  A    between atoms: C_16  and  N_17
REMARK    8  A    between atoms: C_18  and  C_20
REMARK    9  A    between atoms: C_20  and  C_21
REMARK   10  A    between atoms: C_29  and  O_30
REMARK   11  A    between atoms: O_30  and  C_31
REMARK                            x       y       z     vdW  Elec       q    Type
REMARK                         _______ _______ _______ _____ _____    ______ ____
ROOT
ATOM      1  N   UNL     1       2.108   7.594  19.429  0.00  0.00    +0.000 NA
ATOM      2  C   UNL     1       1.514   8.717  19.122  0.00  0.00    +0.000 C 
ATOM      3  C   UNL     1       1.551   9.369  17.749  0.00  0.00    +0.000 C 
ENDROOT
BRANCH   2   4
ATOM      4  C   UNL     1       0.785   9.470  20.214  0.00  0.00    +0.000 A 
ATOM      5  C   UNL     1       0.321   8.809  21.359  0.00  0.00    +0.000 A 
ATOM      6  C   UNL     1      -0.375   9.498  22.356  0.00  0.00    +0.000 A 
ATOM      7  C   UNL     1      -0.643  10.859  22.219  0.00  0.00    +0.000 A 
ATOM      8  C   UNL     1      -0.225  11.524  21.066  0.00  0.00    +0.000 A 
ATOM      9  C   UNL     1       0.510  10.839  20.081  0.00  0.00    +0.000 A 
BRANCH   7  10
ATOM     10  N   UNL     1      -1.347  11.566  23.210  0.00  0.00    +0.000 N 
ATOM     11  C   UNL     1      -2.439  12.371  22.919  0.00  0.00    +0.000 C 
ATOM     12  O   UNL     1      -2.951  12.482  21.805  0.00  0.00    +0.000 OA
ATOM     13  H   UNL     1      -1.231  11.266  24.168  0.00  0.00    +0.000 HD
BRANCH  11  14
ATOM     14  C   UNL     1      -2.993  13.140  24.112  0.00  0.00    +0.000 C 
BRANCH  14  15
ATOM     15  C   UNL     1      -4.469  13.403  23.952  0.00  0.00    +0.000 A 
ATOM     16  C   UNL     1      -4.920  14.675  23.565  0.00  0.00    +0.000 A 
ATOM     17  C   UNL     1      -6.282  14.962  23.523  0.00  0.00    +0.000 A 
ATOM     18  C   UNL     1      -7.210  13.976  23.848  0.00  0.00    +0.000 A 
ATOM     19  C   UNL     1      -6.776  12.696  24.188  0.00  0.00    +0.000 A 
ATOM     20  C   UNL     1      -5.411  12.407  24.237  0.00  0.00    +0.000 A 
ENDBRANCH  14  15
ENDBRANCH  11  14
ENDBRANCH   7  10
ENDBRANCH   2   4
BRANCH   1  23
ATOM     21  C   UNL     1       3.780   5.927  18.732  0.00  0.00    +0.000 C 
ATOM     22  O   UNL     1       4.124   5.541  19.846  0.00  0.00    +0.000 OA
ATOM     23  N   UNL     1       2.809   6.900  18.472  0.00  0.00    +0.000 N 
ATOM     24  H   UNL     1       2.850   7.381  17.580  0.00  0.00    +0.000 HD
BRANCH  21  28
ATOM     25  C   UNL     1       5.794   4.413  15.255  0.00  0.00    +0.000 A 
ATOM     26  C   UNL     1       5.619   5.784  15.447  0.00  0.00    +0.000 A 
ATOM     27  C   UNL     1       4.946   6.261  16.568  0.00  0.00    +0.000 A 
ATOM     28  C   UNL     1       4.435   5.368  17.515  0.00  0.00    +0.000 A 
ATOM     29  C   UNL     1       4.578   3.977  17.320  0.00  0.00    +0.000 A 
ATOM     30  C   UNL     1       5.259   3.514  16.181  0.00  0.00    +0.000 A 
BRANCH  25  32
ATOM     31  C   UNL     1       5.775   3.676  12.987  0.00  0.00    +0.000 C 
ATOM     32  O   UNL     1       6.509   4.089  14.133  0.00  0.00    +0.000 OA
ENDBRANCH  25  32
BRANCH  29  33
ATOM     33  O   UNL     1       4.005   3.144  18.247  0.00  0.00    +0.000 OA
ATOM     34  C   UNL     1       3.073   2.171  17.781  0.00  0.00    +0.000 C 
ENDBRANCH  29  33
ENDBRANCH  21  28
ENDBRANCH   1  23
TORSDOF 8
ENDMDL
MODEL 5
REMARK VINA RESULT:      -7.6      1.996     12.139
REMARK  Name = 
REMARK  11 active torsions:
REMARK  status: ('A' for Active; 'I' for Inactive)
REMARK    1  A    between atoms: C_1  and  O_2
REMARK    2  A    between atoms: O_2  and  C_3
REMARK    3  A    between atoms: C_6  and  C_7
REMARK    4  A    between atoms: N_9  and  N_10
REMARK    5  A    between atoms: C_11  and  C_12
REMARK    6  A    between atoms: C_11  and  C_13
REMARK    7  A    between atoms: C_16  and  N_17
REMARK    8  A    between atoms: C_18  and  C_20
REMARK    9  A    between atoms: C_20  and  C_21
REMARK   10  A    between atoms: C_29  and  O_30
REMARK   11  A    between atoms: O_30  and  C_31
REMARK                            x       y       z     vdW  Elec       q    Type
REMARK                         _______ _______ _______ _____ _____    ______ ____
ROOT
ATOM      1  N   UNL     1       1.646   8.179  20.311  0.00  0.00    +0.000 NA
ATOM      2  C   UNL     1       0.999   9.225  19.867  0.00  0.00    +0.000 C 
ATOM      3  C   UNL     1       0.955   9.663  18.413  0.00  0.00    +0.000 C 
ENDROOT
BRANCH   2   4
ATOM      4  C   UNL     1       0.288  10.112  20.868  0.00  0.00    +0.000 A 
ATOM      5  C   UNL     1      -0.179   9.597  22.084  0.00  0.00    +0.000 A 
ATOM      6  C   UNL     1      -0.857  10.408  22.997  0.00  0.00    +0.000 A 
ATOM      7  C   UNL     1      -1.105  11.748  22.704  0.00  0.00    +0.000 A 
ATOM      8  C   UNL     1      -0.684  12.267  21.479  0.00  0.00    +0.000 A 
ATOM      9  C   UNL     1       0.034  11.461  20.577  0.00  0.00    +0.000 A 
BRANCH   7  10
ATOM     10  N   UNL     1      -1.791  12.577  23.609  0.00  0.00    +0.000 N 
ATOM     11  C   UNL     1      -3.158  12.799  23.528  0.00  0.00    +0.000 C 
ATOM     12  O   UNL     1      -3.914  12.241  22.732  0.00  0.00    +0.000 OA
ATOM     13  H   UNL     1      -1.336  12.787  24.487  0.00  0.00    +0.000 HD
BRANCH  11  14
ATOM     14  C   UNL     1      -3.694  13.815  24.530  0.00  0.00    +0.000 C 
BRANCH  14  15
ATOM     15  C   UNL     1      -2.862  15.073  24.526  0.00  0.00    +0.000 A 
ATOM     16  C   UNL     1      -2.180  15.470  25.686  0.00  0.00    +0.000 A 
ATOM     17  C   UNL     1      -1.501  16.686  25.729  0.00  0.00    +0.000 A 
ATOM     18  C   UNL     1      -1.481  17.510  24.607  0.00  0.00    +0.000 A 
ATOM     19  C   UNL     1      -2.116  17.105  23.434  0.00  0.00    +0.000 A 
ATOM     20  C   UNL     1      -2.801  15.890  23.390  0.00  0.00    +0.000 A 
ENDBRANCH  14  15
ENDBRANCH  11  14
ENDBRANCH   7  10
ENDBRANCH   2   4
BRANCH   1  23
ATOM     21  C   UNL     1       2.612   6.015  19.645  0.00  0.00    +0.000 C 
ATOM     22  O   UNL     1       2.268   5.357  20.623  0.00  0.00    +0.000 OA
ATOM     23  N   UNL     1       2.331   7.370  19.436  0.00  0.00    +0.000 N 
ATOM     24  H   UNL     1       2.933   7.886  18.804  0.00  0.00    +0.000 HD
BRANCH  21  28
ATOM     25  C   UNL     1       5.073   4.174  16.646  0.00  0.00    +0.000 A 
ATOM     26  C   UNL     1       5.518   5.287  17.360  0.00  0.00    +0.000 A 
ATOM     27  C   UNL     1       4.702   5.887  18.315  0.00  0.00    +0.000 A 
ATOM     28  C   UNL     1       3.423   5.381  18.567  0.00  0.00    +0.000 A 
ATOM     29  C   UNL     1       2.948   4.274  17.832  0.00  0.00    +0.000 A 
ATOM     30  C   UNL     1       3.784   3.682  16.870  0.00  0.00    +0.000 A 
BRANCH  25  32
ATOM     31  C   UNL     1       6.767   4.590  15.021  0.00  0.00    +0.000 C 
ATOM     32  O   UNL     1       5.992   3.663  15.770  0.00  0.00    +0.000 OA
ENDBRANCH  25  32
BRANCH  29  33
ATOM     33  O   UNL     1       1.663   3.856  18.075  0.00  0.00    +0.000 OA
ATOM     34  C   UNL     1       1.470   2.503  18.480  0.00  0.00    +0.000 C 
ENDBRANCH  29  33
ENDBRANCH  21  28
ENDBRANCH   1  23
TORSDOF 8
ENDMDL
MODEL 6
REMARK VINA RESULT:      -7.5      2.227     12.049
REMARK  Name = 
REMARK  11 active torsions:
REMARK  status: ('A' for Active; 'I' for Inactive)
REMARK    1  A    between atoms: C_1  and  O_2
REMARK    2  A    between atoms: O_2  and  C_3
REMARK    3  A    between atoms: C_6  and  C_7
REMARK    4  A    between atoms: N_9  and  N_10
REMARK    5  A    between atoms: C_11  and  C_12
REMARK    6  A    between atoms: C_11  and  C_13
REMARK    7  A    between atoms: C_16  and  N_17
REMARK    8  A    between atoms: C_18  and  C_20
REMARK    9  A    between atoms: C_20  and  C_21
REMARK   10  A    between atoms: C_29  and  O_30
REMARK   11  A    between atoms: O_30  and  C_31
REMARK                            x       y       z     vdW  Elec       q    Type
REMARK                         _______ _______ _______ _____ _____    ______ ____
ROOT
ATOM      1  N   UNL     1       2.232   7.551  19.191  0.00  0.00    +0.000 NA
ATOM      2  C   UNL     1       1.765   8.734  18.884  0.00  0.00    +0.000 C 
ATOM      3  C   UNL     1       2.089   9.488  17.606  0.00  0.00    +0.000 C 
ENDROOT
BRANCH   2   4
ATOM      4  C   UNL     1       0.887   9.445  19.891  0.00  0.00    +0.000 A 
ATOM      5  C   UNL     1      -0.074  10.378  19.479  0.00  0.00    +0.000 A 
ATOM      6  C   UNL     1      -0.868  11.054  20.409  0.00  0.00    +0.000 A 
ATOM      7  C   UNL     1      -0.702  10.830  21.775  0.00  0.00    +0.000 A 
ATOM      8  C   UNL     1       0.278   9.935  22.205  0.00  0.00    +0.000 A 
ATOM      9  C   UNL     1       1.050   9.225  21.267  0.00  0.00    +0.000 A 
BRANCH   7  10
ATOM     10  N   UNL     1      -1.489  11.506  22.724  0.00  0.00    +0.000 N 
ATOM     11  C   UNL     1      -1.303  12.846  23.029  0.00  0.00    +0.000 C 
ATOM     12  O   UNL     1      -0.509  13.592  22.455  0.00  0.00    +0.000 OA
ATOM     13  H   UNL     1      -2.374  11.088  22.979  0.00  0.00    +0.000 HD
BRANCH  11  14
ATOM     14  C   UNL     1      -2.179  13.365  24.163  0.00  0.00    +0.000 C 
BRANCH  14  15
ATOM     15  C   UNL     1      -3.642  13.208  23.834  0.00  0.00    +0.000 A 
ATOM     16  C   UNL     1      -4.183  13.841  22.704  0.00  0.00    +0.000 A 
ATOM     17  C   UNL     1      -5.553  13.796  22.453  0.00  0.00    +0.000 A 
ATOM     18  C   UNL     1      -6.395  13.102  23.318  0.00  0.00    +0.000 A 
ATOM     19  C   UNL     1      -5.864  12.430  24.418  0.00  0.00    +0.000 A 
ATOM     20  C   UNL     1      -4.492  12.478  24.675  0.00  0.00    +0.000 A 
ENDBRANCH  14  15
ENDBRANCH  11  14
ENDBRANCH   7  10
ENDBRANCH   2   4
BRANCH   1  23
ATOM     21  C   UNL     1       3.948   5.866  18.665  0.00  0.00    +0.000 C 
ATOM     22  O   UNL     1       4.094   5.401  19.793  0.00  0.00    +0.000 OA
ATOM     23  N   UNL     1       3.060   6.889  18.316  0.00  0.00    +0.000 N 
ATOM     24  H   UNL     1       3.260   7.421  17.476  0.00  0.00    +0.000 HD
BRANCH  21  28
ATOM     25  C   UNL     1       6.201   4.392  15.320  0.00  0.00    +0.000 A 
ATOM     26  C   UNL     1       5.062   3.725  15.772  0.00  0.00    +0.000 A 
ATOM     27  C   UNL     1       4.352   4.202  16.871  0.00  0.00    +0.000 A 
ATOM     28  C   UNL     1       4.776   5.356  17.536  0.00  0.00    +0.000 A 
ATOM     29  C   UNL     1       5.944   6.025  17.109  0.00  0.00    +0.000 A 
ATOM     30  C   UNL     1       6.649   5.528  16.000  0.00  0.00    +0.000 A 
BRANCH  25  32
ATOM     31  C   UNL     1       5.941   3.634  13.075  0.00  0.00    +0.000 C 
ATOM     32  O   UNL     1       6.775   3.836  14.209  0.00  0.00    +0.000 OA
ENDBRANCH  25  32
BRANCH  29  33
ATOM     33  O   UNL     1       6.351   7.117  17.834  0.00  0.00    +0.000 OA
ATOM     34  C   UNL     1       7.619   7.688  17.522  0.00  0.00    +0.000 C 
ENDBRANCH  29  33
ENDBRANCH  21  28
ENDBRANCH   1  23
TORSDOF 8
ENDMDL
MODEL 7
REMARK VINA RESULT:      -7.5      2.209     12.419
REMARK  Name = 
REMARK  11 active torsions:
REMARK  status: ('A' for Active; 'I' for Inactive)
REMARK    1  A    between atoms: C_1  and  O_2
REMARK    2  A    between atoms: O_2  and  C_3
REMARK    3  A    between atoms: C_6  and  C_7
REMARK    4  A    between atoms: N_9  and  N_10
REMARK    5  A    between atoms: C_11  and  C_12
REMARK    6  A    between atoms: C_11  and  C_13
REMARK    7  A    between atoms: C_16  and  N_17
REMARK    8  A    between atoms: C_18  and  C_20
REMARK    9  A    between atoms: C_20  and  C_21
REMARK   10  A    between atoms: C_29  and  O_30
REMARK   11  A    between atoms: O_30  and  C_31
REMARK                            x       y       z     vdW  Elec       q    Type
REMARK                         _______ _______ _______ _____ _____    ______ ____
ROOT
ATOM      1  N   UNL     1       1.795   7.938  19.899  0.00  0.00    +0.000 NA
ATOM      2  C   UNL     1       1.274   9.076  19.521  0.00  0.00    +0.000 C 
ATOM      3  C   UNL     1       1.408   9.669  18.128  0.00  0.00    +0.000 C 
ENDROOT
BRANCH   2   4
ATOM      4  C   UNL     1       0.533   9.907  20.546  0.00  0.00    +0.000 A 
ATOM      5  C   UNL     1       0.015   9.324  21.710  0.00  0.00    +0.000 A 
ATOM      6  C   UNL     1      -0.690  10.085  22.645  0.00  0.00    +0.000 A 
ATOM      7  C   UNL     1      -0.914  11.443  22.427  0.00  0.00    +0.000 A 
ATOM      8  C   UNL     1      -0.441  12.032  21.253  0.00  0.00    +0.000 A 
ATOM      9  C   UNL     1       0.303  11.274  20.331  0.00  0.00    +0.000 A 
BRANCH   7  10
ATOM     10  N   UNL     1      -1.627  12.223  23.356  0.00  0.00    +0.000 N 
ATOM     11  C   UNL     1      -2.957  12.570  23.172  0.00  0.00    +0.000 C 
ATOM     12  O   UNL     1      -3.665  12.172  22.246  0.00  0.00    +0.000 OA
ATOM     13  H   UNL     1      -1.251  12.293  24.291  0.00  0.00    +0.000 HD
BRANCH  11  14
ATOM     14  C   UNL     1      -3.517  13.511  24.232  0.00  0.00    +0.000 C 
BRANCH  14  15
ATOM     15  C   UNL     1      -4.998  13.723  24.045  0.00  0.00    +0.000 A 
ATOM     16  C   UNL     1      -5.896  12.672  24.286  0.00  0.00    +0.000 A 
ATOM     17  C   UNL     1      -7.254  12.821  24.009  0.00  0.00    +0.000 A 
ATOM     18  C   UNL     1      -7.731  14.028  23.505  0.00  0.00    +0.000 A 
ATOM     19  C   UNL     1      -6.856  15.094  23.304  0.00  0.00    +0.000 A 
ATOM     20  C   UNL     1      -5.494  14.946  23.576  0.00  0.00    +0.000 A 
ENDBRANCH  14  15
ENDBRANCH  11  14
ENDBRANCH   7  10
ENDBRANCH   2   4
BRANCH   1  23
ATOM     21  C   UNL     1       3.074   5.927  19.285  0.00  0.00    +0.000 C 
ATOM     22  O   UNL     1       3.003   5.334  20.359  0.00  0.00    +0.000 OA
ATOM     23  N   UNL     1       2.503   7.173  19.004  0.00  0.00    +0.000 N 
ATOM     24  H   UNL     1       2.901   7.713  18.244  0.00  0.00    +0.000 HD
BRANCH  21  28
ATOM     25  C   UNL     1       5.422   4.288  16.085  0.00  0.00    +0.000 A 
ATOM     26  C   UNL     1       5.391   5.662  16.326  0.00  0.00    +0.000 A 
ATOM     27  C   UNL     1       4.609   6.182  17.354  0.00  0.00    +0.000 A 
ATOM     28  C   UNL     1       3.843   5.331  18.156  0.00  0.00    +0.000 A 
ATOM     29  C   UNL     1       3.841   3.942  17.905  0.00  0.00    +0.000 A 
ATOM     30  C   UNL     1       4.634   3.434  16.862  0.00  0.00    +0.000 A 
BRANCH  25  32
ATOM     31  C   UNL     1       7.017   4.937  14.437  0.00  0.00    +0.000 C 
ATOM     32  O   UNL     1       6.262   3.913  15.072  0.00  0.00    +0.000 OA
ENDBRANCH  25  32
BRANCH  29  33
ATOM     33  O   UNL     1       3.024   3.158  18.682  0.00  0.00    +0.000 OA
ATOM     34  C   UNL     1       2.137   2.261  18.018  0.00  0.00    +0.000 C 
ENDBRANCH  29  33
ENDBRANCH  21  28
ENDBRANCH   1  23
TORSDOF 8
ENDMDL
MODEL 8
REMARK VINA RESULT:      -7.5      2.062     12.176
REMARK  Name = 
REMARK  11 active torsions:
REMARK  status: ('A' for Active; 'I' for Inactive)
REMARK    1  A    between atoms: C_1  and  O_2
REMARK    2  A    between atoms: O_2  and  C_3
REMARK    3  A    between atoms: C_6  and  C_7
REMARK    4  A    between atoms: N_9  and  N_10
REMARK    5  A    between atoms: C_11  and  C_12
REMARK    6  A    between atoms: C_11  and  C_13
REMARK    7  A    between atoms: C_16  and  N_17
REMARK    8  A    between atoms: C_18  and  C_20
REMARK    9  A    between atoms: C_20  and  C_21
REMARK   10  A    between atoms: C_29  and  O_30
REMARK   11  A    between atoms: O_30  and  C_31
REMARK                            x       y       z     vdW  Elec       q    Type
REMARK                         _______ _______ _______ _____ _____    ______ ____
ROOT
ATOM      1  N   UNL     1       1.800   8.036  19.962  0.00  0.00    +0.000 NA
ATOM      2  C   UNL     1       1.161   9.105  19.561  0.00  0.00    +0.000 C 
ATOM      3  C   UNL     1       1.200   9.657  18.146  0.00  0.00    +0.000 C 
ENDROOT
BRANCH   2   4
ATOM      4  C   UNL     1       0.372   9.898  20.580  0.00  0.00    +0.000 A 
ATOM      5  C   UNL     1       0.075  11.251  20.370  0.00  0.00    +0.000 A 
ATOM      6  C   UNL     1      -0.632  11.990  21.321  0.00  0.00    +0.000 A 
ATOM      7  C   UNL     1      -1.038  11.399  22.517  0.00  0.00    +0.000 A 
ATOM      8  C   UNL     1      -0.715  10.063  22.761  0.00  0.00    +0.000 A 
ATOM      9  C   UNL     1      -0.038   9.309  21.786  0.00  0.00    +0.000 A 
BRANCH   7  10
ATOM     10  N   UNL     1      -1.746  12.130  23.487  0.00  0.00    +0.000 N 
ATOM     11  C   UNL     1      -3.073  12.499  23.321  0.00  0.00    +0.000 C 
ATOM     12  O   UNL     1      -3.782  12.162  22.373  0.00  0.00    +0.000 OA
ATOM     13  H   UNL     1      -1.372  12.143  24.426  0.00  0.00    +0.000 HD
BRANCH  11  14
ATOM     14  C   UNL     1      -3.626  13.383  24.433  0.00  0.00    +0.000 C 
BRANCH  14  15
ATOM     15  C   UNL     1      -2.918  14.714  24.473  0.00  0.00    +0.000 A 
ATOM     16  C   UNL     1      -2.337  15.167  25.668  0.00  0.00    +0.000 A 
ATOM     17  C   UNL     1      -1.779  16.441  25.747  0.00  0.00    +0.000 A 
ATOM     18  C   UNL     1      -1.779  17.270  24.628  0.00  0.00    +0.000 A 
ATOM     19  C   UNL     1      -2.311  16.814  23.423  0.00  0.00    +0.000 A 
ATOM     20  C   UNL     1      -2.875  15.539  23.343  0.00  0.00    +0.000 A 
ENDBRANCH  14  15
ENDBRANCH  11  14
ENDBRANCH   7  10
ENDBRANCH   2   4
BRANCH   1  23
ATOM     21  C   UNL     1       3.059   6.026  19.303  0.00  0.00    +0.000 C 
ATOM     22  O   UNL     1       2.879   5.361  20.321  0.00  0.00    +0.000 OA
ATOM     23  N   UNL     1       2.555   7.311  19.071  0.00  0.00    +0.000 N 
ATOM     24  H   UNL     1       3.032   7.889  18.388  0.00  0.00    +0.000 HD
BRANCH  21  28
ATOM     25  C   UNL     1       5.612   4.515  16.198  0.00  0.00    +0.000 A 
ATOM     26  C   UNL     1       5.711   5.837  16.634  0.00  0.00    +0.000 A 
ATOM     27  C   UNL     1       4.863   6.320  17.627  0.00  0.00    +0.000 A 
ATOM     28  C   UNL     1       3.899   5.484  18.198  0.00  0.00    +0.000 A 
ATOM     29  C   UNL     1       3.767   4.153  17.748  0.00  0.00    +0.000 A 
ATOM     30  C   UNL     1       4.630   3.683  16.743  0.00  0.00    +0.000 A 
BRANCH  25  32
ATOM     31  C   UNL     1       6.068   4.003  13.915  0.00  0.00    +0.000 C 
ATOM     32  O   UNL     1       6.533   4.165  15.249  0.00  0.00    +0.000 OA
ENDBRANCH  25  32
BRANCH  29  33
ATOM     33  O   UNL     1       2.765   3.393  18.298  0.00  0.00    +0.000 OA
ATOM     34  C   UNL     1       2.939   1.978  18.320  0.00  0.00    +0.000 C 
ENDBRANCH  29  33
ENDBRANCH  21  28
ENDBRANCH   1  23
TORSDOF 8
ENDMDL
MODEL 9
REMARK VINA RESULT:      -7.5      0.918      1.561
REMARK  Name = 
REMARK  11 active torsions:
REMARK  status: ('A' for Active; 'I' for Inactive)
REMARK    1  A    between atoms: C_1  and  O_2
REMARK    2  A    between atoms: O_2  and  C_3
REMARK    3  A    between atoms: C_6  and  C_7
REMARK    4  A    between atoms: N_9  and  N_10
REMARK    5  A    between atoms: C_11  and  C_12
REMARK    6  A    between atoms: C_11  and  C_13
REMARK    7  A    between atoms: C_16  and  N_17
REMARK    8  A    between atoms: C_18  and  C_20
REMARK    9  A    between atoms: C_20  and  C_21
REMARK   10  A    between atoms: C_29  and  O_30
REMARK   11  A    between atoms: O_30  and  C_31
REMARK                            x       y       z     vdW  Elec       q    Type
REMARK                         _______ _______ _______ _____ _____    ______ ____
ROOT
ATOM      1  N   UNL     1      -0.661  10.253  20.702  0.00  0.00    +0.000 NA
ATOM      2  C   UNL     1       0.555  10.382  20.237  0.00  0.00    +0.000 C 
ATOM      3  C   UNL     1       1.342  11.681  20.222  0.00  0.00    +0.000 C 
ENDROOT
BRANCH   2   4
ATOM      4  C   UNL     1       1.219   9.175  19.609  0.00  0.00    +0.000 A 
ATOM      5  C   UNL     1       1.610   8.079  20.389  0.00  0.00    +0.000 A 
ATOM      6  C   UNL     1       2.246   6.976  19.814  0.00  0.00    +0.000 A 
ATOM      7  C   UNL     1       2.526   6.954  18.448  0.00  0.00    +0.000 A 
ATOM      8  C   UNL     1       2.180   8.055  17.664  0.00  0.00    +0.000 A 
ATOM      9  C   UNL     1       1.505   9.148  18.236  0.00  0.00    +0.000 A 
BRANCH   7  10
ATOM     10  N   UNL     1       3.170   5.854  17.854  0.00  0.00    +0.000 N 
ATOM     11  C   UNL     1       2.553   4.620  17.708  0.00  0.00    +0.000 C 
ATOM     12  O   UNL     1       1.379   4.383  17.993  0.00  0.00    +0.000 OA
ATOM     13  H   UNL     1       3.981   6.041  17.281  0.00  0.00    +0.000 HD
BRANCH  11  14
ATOM     14  C   UNL     1       3.454   3.527  17.145  0.00  0.00    +0.000 C 
BRANCH  14  15
ATOM     15  C   UNL     1       4.878   4.005  17.022  0.00  0.00    +0.000 A 
ATOM     16  C   UNL     1       5.648   4.229  18.174  0.00  0.00    +0.000 A 
ATOM     17  C   UNL     1       6.926   4.777  18.079  0.00  0.00    +0.000 A 
ATOM     18  C   UNL     1       7.455   5.090  16.829  0.00  0.00    +0.000 A 
ATOM     19  C   UNL     1       6.719   4.829  15.675  0.00  0.00    +0.000 A 
ATOM     20  C   UNL     1       5.436   4.285  15.768  0.00  0.00    +0.000 A 
ENDBRANCH  14  15
ENDBRANCH  11  14
ENDBRANCH   7  10
ENDBRANCH   2   4
BRANCH   1  23
ATOM     21  C   UNL     1      -1.417  11.599  22.618  0.00  0.00    +0.000 C 
ATOM     22  O   UNL     1      -0.932  10.918  23.518  0.00  0.00    +0.000 OA
ATOM     23  N   UNL     1      -1.308  11.335  21.249  0.00  0.00    +0.000 N 
ATOM     24  H   UNL     1      -2.008  11.734  20.633  0.00  0.00    +0.000 HD
BRANCH  21  28
ATOM     25  C   UNL     1      -3.735  15.038  23.732  0.00  0.00    +0.000 A 
ATOM     26  C   UNL     1      -4.118  13.754  24.121  0.00  0.00    +0.000 A 
ATOM     27  C   UNL     1      -3.369  12.645  23.735  0.00  0.00    +0.000 A 
ATOM     28  C   UNL     1      -2.224  12.808  22.950  0.00  0.00    +0.000 A 
ATOM     29  C   UNL     1      -1.840  14.098  22.526  0.00  0.00    +0.000 A 
ATOM     30  C   UNL     1      -2.609  15.205  22.922  0.00  0.00    +0.000 A 
BRANCH  25  32
ATOM     31  C   UNL     1      -5.938  15.911  23.997  0.00  0.00    +0.000 C 
ATOM     32  O   UNL     1      -4.539  16.035  24.215  0.00  0.00    +0.000 OA
ENDBRANCH  25  32
BRANCH  29  33
ATOM     33  O   UNL     1      -0.743  14.196  21.706  0.00  0.00    +0.000 OA
ATOM     34  C   UNL     1       0.411  14.860  22.217  0.00  0.00    +0.000 C 
ENDBRANCH  29  33
ENDBRANCH  21  28
ENDBRANCH   1  23
TORSDOF 8
ENDMDL
