MODEL 1
REMARK VINA RESULT:      -9.2      0.000      0.000
REMARK  Name = 
REMARK  9 active torsions:
REMARK  status: ('A' for Active; 'I' for Inactive)
REMARK    1  A    between atoms: C_2  and  C_5
REMARK    2  A    between atoms: N_3  and  O_4
REMARK    3  A    between atoms: C_5  and  C_6
REMARK    4  A    between atoms: C_5  and  C_19
REMARK    5  A    between atoms: C_6  and  C_7
REMARK    6  A    between atoms: C_7  and  N_8
REMARK    7  A    between atoms: C_19  and  O_20
REMARK    8  A    between atoms: O_20  and  C_21
REMARK    9  A    between atoms: C_24  and  C_25
REMARK                            x       y       z     vdW  Elec       q    Type
REMARK                         _______ _______ _______ _____ _____    ______ ____
ROOT
ATOM      1  C   UNL     1       6.424   5.811  16.817  0.00  0.00    +0.000 C 
ENDROOT
BRANCH   1   3
ATOM      2  O   UNL     1       7.878   7.158  18.224  0.00  0.00    +0.000 OA
ATOM      3  C   UNL     1       7.169   6.160  18.097  0.00  0.00    +0.000 C 
ATOM      4  N   UNL     1       7.063   5.242  19.110  0.00  0.00    +0.000 N 
ATOM      5  H   UNL     1       6.357   4.516  19.173  0.00  0.00    +0.000 HD
BRANCH   4   6
ATOM      6  O   UNL     1       7.766   5.554  20.295  0.00  0.00    +0.000 OA
ATOM      7  H   UNL     1       7.058   5.513  20.978  0.00  0.00    +0.000 HD
ENDBRANCH   4   6
ENDBRANCH   1   3
BRANCH   1   8
ATOM      8  C   UNL     1       6.362   4.297  16.570  0.00  0.00    +0.000 C 
BRANCH   8   9
ATOM      9  C   UNL     1       4.937   3.774  16.377  0.00  0.00    +0.000 C 
BRANCH   9  10
ATOM     10  N   UNL     1       4.318   3.432  17.640  0.00  0.00    +0.000 N 
ATOM     11  N   UNL     1       5.186   3.094  18.635  0.00  0.00    +0.000 NA
ATOM     12  N   UNL     1       4.782   2.803  19.780  0.00  0.00    +0.000 NA
ATOM     13  C   UNL     1       3.415   2.859  20.063  0.00  0.00    +0.000 A 
ATOM     14  C   UNL     1       2.995   2.616  21.374  0.00  0.00    +0.000 A 
ATOM     15  C   UNL     1       1.640   2.664  21.706  0.00  0.00    +0.000 A 
ATOM     16  C   UNL     1       0.689   2.954  20.728  0.00  0.00    +0.000 A 
ATOM     17  C   UNL     1       1.094   3.196  19.418  0.00  0.00    +0.000 A 
ATOM     18  C   UNL     1       2.455   3.147  19.106  0.00  0.00    +0.000 A 
ATOM     19  C   UNL     1       2.945   3.422  17.763  0.00  0.00    +0.000 A 
ATOM     20  O   UNL     1       2.157   3.639  16.845  0.00  0.00    +0.000 OA
ENDBRANCH   9  10
ENDBRANCH   8   9
ENDBRANCH   1   8
BRANCH   1  21
ATOM     21  C   UNL     1       5.042   6.492  16.882  0.00  0.00    +0.000 C 
BRANCH  21  22
ATOM     22  O   UNL     1       4.394   6.358  18.147  0.00  0.00    +0.000 OA
BRANCH  22  23
ATOM     23  C   UNL     1       3.369   7.211  18.432  0.00  0.00    +0.000 A 
ATOM     24  C   UNL     1       2.927   8.235  17.605  0.00  0.00    +0.000 A 
ATOM     25  C   UNL     1       1.900   9.078  18.019  0.00  0.00    +0.000 A 
ATOM     26  C   UNL     1       1.289   8.933  19.273  0.00  0.00    +0.000 A 
ATOM     27  C   UNL     1       1.710   7.855  20.072  0.00  0.00    +0.000 A 
ATOM     28  C   UNL     1       2.735   7.000  19.653  0.00  0.00    +0.000 A 
BRANCH  26  29
ATOM     29  C   UNL     1       0.297   9.926  19.733  0.00  0.00    +0.000 A 
ATOM     30  C   UNL     1      -0.365  10.774  18.825  0.00  0.00    +0.000 A 
ATOM     31  C   UNL     1      -1.226  11.781  19.262  0.00  0.00    +0.000 A 
ATOM     32  C   UNL     1      -1.466  11.947  20.621  0.00  0.00    +0.000 A 
ATOM     33  C   UNL     1      -0.841  11.109  21.540  0.00  0.00    +0.000 A 
ATOM     34  C   UNL     1       0.035  10.115  21.101  0.00  0.00    +0.000 A 
ENDBRANCH  26  29
ENDBRANCH  22  23
ENDBRANCH  21  22
ENDBRANCH   1  21
TORSDOF 9
ENDMDL
MODEL 2
REMARK VINA RESULT:      -9.2      1.325      1.854
REMARK  Name = 
REMARK  9 active torsions:
REMARK  status: ('A' for Active; 'I' for Inactive)
REMARK    1  A    between atoms: C_2  and  C_5
REMARK    2  A    between atoms: N_3  and  O_4
REMARK    3  A    between atoms: C_5  and  C_6
REMARK    4  A    between atoms: C_5  and  C_19
REMARK    5  A    between atoms: C_6  and  C_7
REMARK    6  A    between atoms: C_7  and  N_8
REMARK    7  A    between atoms: C_19  and  O_20
REMARK    8  A    between atoms: O_20  and  C_21
REMARK    9  A    between atoms: C_24  and  C_25
REMARK                            x       y       z     vdW  Elec       q    Type
REMARK                         _______ _______ _______ _____ _____    ______ ____
ROOT
ATOM      1  C   UNL     1       5.719   6.057  16.249  0.00  0.00    +0.000 C 
ENDROOT
BRANCH   1   3
ATOM      2  O   UNL     1       7.062   6.244  18.267  0.00  0.00    +0.000 OA
ATOM      3  C   UNL     1       6.769   5.608  17.255  0.00  0.00    +0.000 C 
ATOM      4  N   UNL     1       7.441   4.457  16.931  0.00  0.00    +0.000 N 
ATOM      5  H   UNL     1       7.137   3.771  16.247  0.00  0.00    +0.000 HD
BRANCH   4   6
ATOM      6  O   UNL     1       8.428   4.044  17.855  0.00  0.00    +0.000 OA
ATOM      7  H   UNL     1       7.928   4.020  18.702  0.00  0.00    +0.000 HD
ENDBRANCH   4   6
ENDBRANCH   1   3
BRANCH   1   8
ATOM      8  C   UNL     1       5.011   4.873  15.576  0.00  0.00    +0.000 C 
BRANCH   8   9
ATOM      9  C   UNL     1       5.114   3.572  16.376  0.00  0.00    +0.000 C 
BRANCH   9  10
ATOM     10  N   UNL     1       4.055   3.462  17.356  0.00  0.00    +0.000 N 
ATOM     11  N   UNL     1       2.791   3.517  16.847  0.00  0.00    +0.000 NA
ATOM     12  N   UNL     1       1.789   3.409  17.584  0.00  0.00    +0.000 NA
ATOM     13  C   UNL     1       1.960   3.188  18.954  0.00  0.00    +0.000 A 
ATOM     14  C   UNL     1       0.825   2.981  19.742  0.00  0.00    +0.000 A 
ATOM     15  C   UNL     1       0.946   2.754  21.114  0.00  0.00    +0.000 A 
ATOM     16  C   UNL     1       2.205   2.734  21.712  0.00  0.00    +0.000 A 
ATOM     17  C   UNL     1       3.343   2.940  20.938  0.00  0.00    +0.000 A 
ATOM     18  C   UNL     1       3.202   3.163  19.566  0.00  0.00    +0.000 A 
ATOM     19  C   UNL     1       4.355   3.354  18.697  0.00  0.00    +0.000 A 
ATOM     20  O   UNL     1       5.490   3.394  19.168  0.00  0.00    +0.000 OA
ENDBRANCH   9  10
ENDBRANCH   8   9
ENDBRANCH   1   8
BRANCH   1  21
ATOM     21  C   UNL     1       4.766   7.029  16.974  0.00  0.00    +0.000 C 
BRANCH  21  22
ATOM     22  O   UNL     1       3.793   6.377  17.791  0.00  0.00    +0.000 OA
BRANCH  22  23
ATOM     23  C   UNL     1       2.901   7.158  18.464  0.00  0.00    +0.000 A 
ATOM     24  C   UNL     1       2.407   8.377  18.018  0.00  0.00    +0.000 A 
ATOM     25  C   UNL     1       1.535   9.114  18.813  0.00  0.00    +0.000 A 
ATOM     26  C   UNL     1       1.136   8.666  20.080  0.00  0.00    +0.000 A 
ATOM     27  C   UNL     1       1.600   7.403  20.490  0.00  0.00    +0.000 A 
ATOM     28  C   UNL     1       2.469   6.655  19.688  0.00  0.00    +0.000 A 
BRANCH  26  29
ATOM     29  C   UNL     1       0.317   9.535  20.950  0.00  0.00    +0.000 A 
ATOM     30  C   UNL     1      -0.254  10.726  20.464  0.00  0.00    +0.000 A 
ATOM     31  C   UNL     1      -0.943  11.601  21.305  0.00  0.00    +0.000 A 
ATOM     32  C   UNL     1      -1.098  11.290  22.651  0.00  0.00    +0.000 A 
ATOM     33  C   UNL     1      -0.561  10.109  23.154  0.00  0.00    +0.000 A 
ATOM     34  C   UNL     1       0.144   9.244  22.314  0.00  0.00    +0.000 A 
ENDBRANCH  26  29
ENDBRANCH  22  23
ENDBRANCH  21  22
ENDBRANCH   1  21
TORSDOF 9
ENDMDL
MODEL 3
REMARK VINA RESULT:      -9.1      1.386      2.117
REMARK  Name = 
REMARK  9 active torsions:
REMARK  status: ('A' for Active; 'I' for Inactive)
REMARK    1  A    between atoms: C_2  and  C_5
REMARK    2  A    between atoms: N_3  and  O_4
REMARK    3  A    between atoms: C_5  and  C_6
REMARK    4  A    between atoms: C_5  and  C_19
REMARK    5  A    between atoms: C_6  and  C_7
REMARK    6  A    between atoms: C_7  and  N_8
REMARK    7  A    between atoms: C_19  and  O_20
REMARK    8  A    between atoms: O_20  and  C_21
REMARK    9  A    between atoms: C_24  and  C_25
REMARK                            x       y       z     vdW  Elec       q    Type
REMARK                         _______ _______ _______ _____ _____    ______ ____
ROOT
ATOM      1  C   UNL     1       5.285   6.136  16.084  0.00  0.00    +0.000 C 
ENDROOT
BRANCH   1   3
ATOM      2  O   UNL     1       7.713   6.258  16.066  0.00  0.00    +0.000 OA
ATOM      3  C   UNL     1       6.664   6.282  16.710  0.00  0.00    +0.000 C 
ATOM      4  N   UNL     1       6.684   6.376  18.078  0.00  0.00    +0.000 N 
ATOM      5  H   UNL     1       5.887   6.608  18.662  0.00  0.00    +0.000 HD
BRANCH   4   6
ATOM      6  O   UNL     1       7.964   6.496  18.665  0.00  0.00    +0.000 OA
ATOM      7  H   UNL     1       8.242   7.397  18.382  0.00  0.00    +0.000 HD
ENDBRANCH   4   6
ENDBRANCH   1   3
BRANCH   1   8
ATOM      8  C   UNL     1       5.055   4.737  15.496  0.00  0.00    +0.000 C 
BRANCH   8   9
ATOM      9  C   UNL     1       5.294   3.611  16.505  0.00  0.00    +0.000 C 
BRANCH   9  10
ATOM     10  N   UNL     1       4.192   3.482  17.433  0.00  0.00    +0.000 N 
ATOM     11  N   UNL     1       2.963   3.352  16.855  0.00  0.00    +0.000 NA
ATOM     12  N   UNL     1       1.932   3.208  17.544  0.00  0.00    +0.000 NA
ATOM     13  C   UNL     1       2.037   3.139  18.936  0.00  0.00    +0.000 A 
ATOM     14  C   UNL     1       0.881   2.888  19.680  0.00  0.00    +0.000 A 
ATOM     15  C   UNL     1       0.937   2.808  21.072  0.00  0.00    +0.000 A 
ATOM     16  C   UNL     1       2.150   2.981  21.736  0.00  0.00    +0.000 A 
ATOM     17  C   UNL     1       3.309   3.233  21.007  0.00  0.00    +0.000 A 
ATOM     18  C   UNL     1       3.234   3.307  19.614  0.00  0.00    +0.000 A 
ATOM     19  C   UNL     1       4.414   3.537  18.793  0.00  0.00    +0.000 A 
ATOM     20  O   UNL     1       5.507   3.743  19.316  0.00  0.00    +0.000 OA
ENDBRANCH   9  10
ENDBRANCH   8   9
ENDBRANCH   1   8
BRANCH   1  21
ATOM     21  C   UNL     1       4.246   6.549  17.145  0.00  0.00    +0.000 C 
BRANCH  21  22
ATOM     22  O   UNL     1       3.547   7.754  16.828  0.00  0.00    +0.000 OA
BRANCH  22  23
ATOM     23  C   UNL     1       2.713   8.274  17.772  0.00  0.00    +0.000 A 
ATOM     24  C   UNL     1       2.021   9.472  17.656  0.00  0.00    +0.000 A 
ATOM     25  C   UNL     1       1.231   9.931  18.706  0.00  0.00    +0.000 A 
ATOM     26  C   UNL     1       1.115   9.216  19.907  0.00  0.00    +0.000 A 
ATOM     27  C   UNL     1       1.776   7.978  19.984  0.00  0.00    +0.000 A 
ATOM     28  C   UNL     1       2.562   7.509  18.925  0.00  0.00    +0.000 A 
BRANCH  26  29
ATOM     29  C   UNL     1       0.377   9.798  21.047  0.00  0.00    +0.000 A 
ATOM     30  C   UNL     1       0.135   9.054  22.217  0.00  0.00    +0.000 A 
ATOM     31  C   UNL     1      -0.647   9.561  23.255  0.00  0.00    +0.000 A 
ATOM     32  C   UNL     1      -1.187  10.839  23.156  0.00  0.00    +0.000 A 
ATOM     33  C   UNL     1      -0.947  11.604  22.019  0.00  0.00    +0.000 A 
ATOM     34  C   UNL     1      -0.180  11.086  20.974  0.00  0.00    +0.000 A 
ENDBRANCH  26  29
ENDBRANCH  22  23
ENDBRANCH  21  22
ENDBRANCH   1  21
TORSDOF 9
ENDMDL
MODEL 4
REMARK VINA RESULT:      -9.0      0.991      1.455
REMARK  Name = 
REMARK  9 active torsions:
REMARK  status: ('A' for Active; 'I' for Inactive)
REMARK    1  A    between atoms: C_2  and  C_5
REMARK    2  A    between atoms: N_3  and  O_4
REMARK    3  A    between atoms: C_5  and  C_6
REMARK    4  A    between atoms: C_5  and  C_19
REMARK    5  A    between atoms: C_6  and  C_7
REMARK    6  A    between atoms: C_7  and  N_8
REMARK    7  A    between atoms: C_19  and  O_20
REMARK    8  A    between atoms: O_20  and  C_21
REMARK    9  A    between atoms: C_24  and  C_25
REMARK                            x       y       z     vdW  Elec       q    Type
REMARK                         _______ _______ _______ _____ _____    ______ ____
ROOT
ATOM      1  C   UNL     1       5.415   6.523  16.759  0.00  0.00    +0.000 C 
ENDROOT
BRANCH   1   3
ATOM      2  O   UNL     1       7.831   6.449  16.501  0.00  0.00    +0.000 OA
ATOM      3  C   UNL     1       6.854   6.426  17.248  0.00  0.00    +0.000 C 
ATOM      4  N   UNL     1       7.006   6.237  18.598  0.00  0.00    +0.000 N 
ATOM      5  H   UNL     1       6.293   6.408  19.299  0.00  0.00    +0.000 HD
BRANCH   4   6
ATOM      6  O   UNL     1       8.340   6.131  19.054  0.00  0.00    +0.000 OA
ATOM      7  H   UNL     1       8.794   6.841  18.546  0.00  0.00    +0.000 HD
ENDBRANCH   4   6
ENDBRANCH   1   3
BRANCH   1   8
ATOM      8  C   UNL     1       5.006   5.316  15.903  0.00  0.00    +0.000 C 
BRANCH   8   9
ATOM      9  C   UNL     1       5.417   3.974  16.514  0.00  0.00    +0.000 C 
BRANCH   9  10
ATOM     10  N   UNL     1       4.630   3.659  17.687  0.00  0.00    +0.000 N 
ATOM     11  N   UNL     1       5.341   3.543  18.845  0.00  0.00    +0.000 NA
ATOM     12  N   UNL     1       4.778   3.298  19.932  0.00  0.00    +0.000 NA
ATOM     13  C   UNL     1       3.387   3.177  19.977  0.00  0.00    +0.000 A 
ATOM     14  C   UNL     1       2.773   2.992  21.218  0.00  0.00    +0.000 A 
ATOM     15  C   UNL     1       1.386   2.870  21.313  0.00  0.00    +0.000 A 
ATOM     16  C   UNL     1       0.597   2.929  20.165  0.00  0.00    +0.000 A 
ATOM     17  C   UNL     1       1.196   3.111  18.922  0.00  0.00    +0.000 A 
ATOM     18  C   UNL     1       2.586   3.234  18.847  0.00  0.00    +0.000 A 
ATOM     19  C   UNL     1       3.270   3.458  17.582  0.00  0.00    +0.000 A 
ATOM     20  O   UNL     1       2.639   3.474  16.526  0.00  0.00    +0.000 OA
ENDBRANCH   9  10
ENDBRANCH   8   9
ENDBRANCH   1   8
BRANCH   1  21
ATOM     21  C   UNL     1       4.519   6.749  17.993  0.00  0.00    +0.000 C 
BRANCH  21  22
ATOM     22  O   UNL     1       3.128   6.848  17.684  0.00  0.00    +0.000 OA
BRANCH  22  23
ATOM     23  C   UNL     1       2.363   7.677  18.447  0.00  0.00    +0.000 A 
ATOM     24  C   UNL     1       1.789   8.865  18.012  0.00  0.00    +0.000 A 
ATOM     25  C   UNL     1       1.064   9.660  18.894  0.00  0.00    +0.000 A 
ATOM     26  C   UNL     1       0.897   9.302  20.240  0.00  0.00    +0.000 A 
ATOM     27  C   UNL     1       1.436   8.069  20.648  0.00  0.00    +0.000 A 
ATOM     28  C   UNL     1       2.155   7.263  19.760  0.00  0.00    +0.000 A 
BRANCH  26  29
ATOM     29  C   UNL     1       0.237  10.233  21.178  0.00  0.00    +0.000 A 
ATOM     30  C   UNL     1      -0.400   9.768  22.343  0.00  0.00    +0.000 A 
ATOM     31  C   UNL     1      -1.111  10.629  23.179  0.00  0.00    +0.000 A 
ATOM     32  C   UNL     1      -1.182  11.985  22.880  0.00  0.00    +0.000 A 
ATOM     33  C   UNL     1      -0.544  12.476  21.744  0.00  0.00    +0.000 A 
ATOM     34  C   UNL     1       0.151  11.608  20.899  0.00  0.00    +0.000 A 
ENDBRANCH  26  29
ENDBRANCH  22  23
ENDBRANCH  21  22
ENDBRANCH   1  21
TORSDOF 9
ENDMDL
MODEL 5
REMARK VINA RESULT:      -8.8      1.268      2.121
REMARK  Name = 
REMARK  9 active torsions:
REMARK  status: ('A' for Active; 'I' for Inactive)
REMARK    1  A    between atoms: C_2  and  C_5
REMARK    2  A    between atoms: N_3  and  O_4
REMARK    3  A    between atoms: C_5  and  C_6
REMARK    4  A    between atoms: C_5  and  C_19
REMARK    5  A    between atoms: C_6  and  C_7
REMARK    6  A    between atoms: C_7  and  N_8
REMARK    7  A    between atoms: C_19  and  O_20
REMARK    8  A    between atoms: O_20  and  C_21
REMARK    9  A    between atoms: C_24  and  C_25
REMARK                            x       y       z     vdW  Elec       q    Type
REMARK                         _______ _______ _______ _____ _____    ______ ____
ROOT
ATOM      1  C   UNL     1       5.606   6.227  16.585  0.00  0.00    +0.000 C 
ENDROOT
BRANCH   1   3
ATOM      2  O   UNL     1       7.757   5.097  16.516  0.00  0.00    +0.000 OA
ATOM      3  C   UNL     1       6.882   5.650  17.181  0.00  0.00    +0.000 C 
ATOM      4  N   UNL     1       6.978   5.721  18.547  0.00  0.00    +0.000 N 
ATOM      5  H   UNL     1       6.425   6.326  19.145  0.00  0.00    +0.000 HD
BRANCH   4   6
ATOM      6  O   UNL     1       8.155   5.173  19.106  0.00  0.00    +0.000 OA
ATOM      7  H   UNL     1       7.891   4.242  19.286  0.00  0.00    +0.000 HD
ENDBRANCH   4   6
ENDBRANCH   1   3
BRANCH   1   8
ATOM      8  C   UNL     1       4.837   5.198  15.743  0.00  0.00    +0.000 C 
BRANCH   8   9
ATOM      9  C   UNL     1       4.851   3.792  16.346  0.00  0.00    +0.000 C 
BRANCH   9  10
ATOM     10  N   UNL     1       3.850   3.645  17.381  0.00  0.00    +0.000 N 
ATOM     11  N   UNL     1       2.561   3.792  16.961  0.00  0.00    +0.000 NA
ATOM     12  N   UNL     1       1.602   3.665  17.751  0.00  0.00    +0.000 NA
ATOM     13  C   UNL     1       1.846   3.327  19.085  0.00  0.00    +0.000 A 
ATOM     14  C   UNL     1       0.754   3.103  19.927  0.00  0.00    +0.000 A 
ATOM     15  C   UNL     1       0.948   2.760  21.265  0.00  0.00    +0.000 A 
ATOM     16  C   UNL     1       2.239   2.641  21.778  0.00  0.00    +0.000 A 
ATOM     17  C   UNL     1       3.336   2.864  20.950  0.00  0.00    +0.000 A 
ATOM     18  C   UNL     1       3.122   3.203  19.612  0.00  0.00    +0.000 A 
ATOM     19  C   UNL     1       4.226   3.417  18.688  0.00  0.00    +0.000 A 
ATOM     20  O   UNL     1       5.389   3.373  19.085  0.00  0.00    +0.000 OA
ENDBRANCH   9  10
ENDBRANCH   8   9
ENDBRANCH   1   8
BRANCH   1  21
ATOM     21  C   UNL     1       4.783   6.830  17.741  0.00  0.00    +0.000 C 
BRANCH  21  22
ATOM     22  O   UNL     1       3.406   7.036  17.421  0.00  0.00    +0.000 OA
BRANCH  22  23
ATOM     23  C   UNL     1       2.667   7.813  18.261  0.00  0.00    +0.000 A 
ATOM     24  C   UNL     1       2.289   7.464  19.551  0.00  0.00    +0.000 A 
ATOM     25  C   UNL     1       1.490   8.318  20.305  0.00  0.00    +0.000 A 
ATOM     26  C   UNL     1       1.034   9.542  19.794  0.00  0.00    +0.000 A 
ATOM     27  C   UNL     1       1.474   9.905  18.508  0.00  0.00    +0.000 A 
ATOM     28  C   UNL     1       2.287   9.052  17.753  0.00  0.00    +0.000 A 
BRANCH  26  29
ATOM     29  C   UNL     1       0.081  10.360  20.570  0.00  0.00    +0.000 A 
ATOM     30  C   UNL     1      -0.007  10.250  21.970  0.00  0.00    +0.000 A 
ATOM     31  C   UNL     1      -0.974  10.944  22.698  0.00  0.00    +0.000 A 
ATOM     32  C   UNL     1      -1.863  11.788  22.041  0.00  0.00    +0.000 A 
ATOM     33  C   UNL     1      -1.785  11.932  20.659  0.00  0.00    +0.000 A 
ATOM     34  C   UNL     1      -0.829  11.221  19.932  0.00  0.00    +0.000 A 
ENDBRANCH  26  29
ENDBRANCH  22  23
ENDBRANCH  21  22
ENDBRANCH   1  21
TORSDOF 9
ENDMDL
MODEL 6
REMARK VINA RESULT:      -8.5      2.461      4.938
REMARK  Name = 
REMARK  9 active torsions:
REMARK  status: ('A' for Active; 'I' for Inactive)
REMARK    1  A    between atoms: C_2  and  C_5
REMARK    2  A    between atoms: N_3  and  O_4
REMARK    3  A    between atoms: C_5  and  C_6
REMARK    4  A    between atoms: C_5  and  C_19
REMARK    5  A    between atoms: C_6  and  C_7
REMARK    6  A    between atoms: C_7  and  N_8
REMARK    7  A    between atoms: C_19  and  O_20
REMARK    8  A    between atoms: O_20  and  C_21
REMARK    9  A    between atoms: C_24  and  C_25
REMARK                            x       y       z     vdW  Elec       q    Type
REMARK                         _______ _______ _______ _____ _____    ______ ____
ROOT
ATOM      1  C   UNL     1       4.232   4.207  19.428  0.00  0.00    +0.000 C 
ENDROOT
BRANCH   1   3
ATOM      2  O   UNL     1       2.629   2.423  19.831  0.00  0.00    +0.000 OA
ATOM      3  C   UNL     1       3.633   2.820  19.240  0.00  0.00    +0.000 C 
ATOM      4  N   UNL     1       4.330   1.986  18.404  0.00  0.00    +0.000 N 
ATOM      5  H   UNL     1       5.029   2.280  17.730  0.00  0.00    +0.000 HD
BRANCH   4   6
ATOM      6  O   UNL     1       3.786   0.692  18.238  0.00  0.00    +0.000 OA
ATOM      7  H   UNL     1       3.509   0.460  19.153  0.00  0.00    +0.000 HD
ENDBRANCH   4   6
ENDBRANCH   1   3
BRANCH   1   8
ATOM      8  C   UNL     1       5.577   4.365  18.706  0.00  0.00    +0.000 C 
BRANCH   8   9
ATOM      9  C   UNL     1       5.668   5.645  17.872  0.00  0.00    +0.000 C 
BRANCH   9  10
ATOM     10  N   UNL     1       6.065   5.368  16.508  0.00  0.00    +0.000 N 
ATOM     11  N   UNL     1       7.241   5.940  16.122  0.00  0.00    +0.000 NA
ATOM     12  N   UNL     1       7.708   5.758  14.979  0.00  0.00    +0.000 NA
ATOM     13  C   UNL     1       7.036   4.921  14.084  0.00  0.00    +0.000 A 
ATOM     14  C   UNL     1       7.624   4.662  12.843  0.00  0.00    +0.000 A 
ATOM     15  C   UNL     1       6.992   3.830  11.918  0.00  0.00    +0.000 A 
ATOM     16  C   UNL     1       5.762   3.249  12.224  0.00  0.00    +0.000 A 
ATOM     17  C   UNL     1       5.165   3.500  13.456  0.00  0.00    +0.000 A 
ATOM     18  C   UNL     1       5.814   4.333  14.370  0.00  0.00    +0.000 A 
ATOM     19  C   UNL     1       5.258   4.610  15.687  0.00  0.00    +0.000 A 
ATOM     20  O   UNL     1       4.155   4.167  16.003  0.00  0.00    +0.000 OA
ENDBRANCH   9  10
ENDBRANCH   8   9
ENDBRANCH   1   8
BRANCH   1  21
ATOM     21  C   UNL     1       3.166   5.236  19.003  0.00  0.00    +0.000 C 
BRANCH  21  22
ATOM     22  O   UNL     1       2.728   6.083  20.066  0.00  0.00    +0.000 OA
BRANCH  22  23
ATOM     23  C   UNL     1       2.176   7.285  19.736  0.00  0.00    +0.000 A 
ATOM     24  C   UNL     1       2.240   7.879  18.482  0.00  0.00    +0.000 A 
ATOM     25  C   UNL     1       1.679   9.134  18.270  0.00  0.00    +0.000 A 
ATOM     26  C   UNL     1       1.047   9.842  19.302  0.00  0.00    +0.000 A 
ATOM     27  C   UNL     1       0.941   9.201  20.549  0.00  0.00    +0.000 A 
ATOM     28  C   UNL     1       1.494   7.933  20.761  0.00  0.00    +0.000 A 
BRANCH  26  29
ATOM     29  C   UNL     1       0.582  11.226  19.075  0.00  0.00    +0.000 A 
ATOM     30  C   UNL     1      -0.695  11.491  18.545  0.00  0.00    +0.000 A 
ATOM     31  C   UNL     1      -1.100  12.789  18.234  0.00  0.00    +0.000 A 
ATOM     32  C   UNL     1      -0.244  13.859  18.471  0.00  0.00    +0.000 A 
ATOM     33  C   UNL     1       1.017  13.627  19.013  0.00  0.00    +0.000 A 
ATOM     34  C   UNL     1       1.427  12.325  19.306  0.00  0.00    +0.000 A 
ENDBRANCH  26  29
ENDBRANCH  22  23
ENDBRANCH  21  22
ENDBRANCH   1  21
TORSDOF 9
ENDMDL
MODEL 7
REMARK VINA RESULT:      -8.4      0.865      1.585
REMARK  Name = 
REMARK  9 active torsions:
REMARK  status: ('A' for Active; 'I' for Inactive)
REMARK    1  A    between atoms: C_2  and  C_5
REMARK    2  A    between atoms: N_3  and  O_4
REMARK    3  A    between atoms: C_5  and  C_6
REMARK    4  A    between atoms: C_5  and  C_19
REMARK    5  A    between atoms: C_6  and  C_7
REMARK    6  A    between atoms: C_7  and  N_8
REMARK    7  A    between atoms: C_19  and  O_20
REMARK    8  A    between atoms: O_20  and  C_21
REMARK    9  A    between atoms: C_24  and  C_25
REMARK                            x       y       z     vdW  Elec       q    Type
REMARK                         _______ _______ _______ _____ _____    ______ ____
ROOT
ATOM      1  C   UNL     1       5.616   6.261  16.915  0.00  0.00    +0.000 C 
ENDROOT
BRANCH   1   3
ATOM      2  O   UNL     1       7.098   8.185  17.000  0.00  0.00    +0.000 OA
ATOM      3  C   UNL     1       6.772   7.090  17.455  0.00  0.00    +0.000 C 
ATOM      4  N   UNL     1       7.497   6.504  18.461  0.00  0.00    +0.000 N 
ATOM      5  H   UNL     1       7.190   5.720  19.028  0.00  0.00    +0.000 HD
BRANCH   4   6
ATOM      6  O   UNL     1       8.582   7.264  18.956  0.00  0.00    +0.000 OA
ATOM      7  H   UNL     1       8.332   8.180  18.700  0.00  0.00    +0.000 HD
ENDBRANCH   4   6
ENDBRANCH   1   3
BRANCH   1   8
ATOM      8  C   UNL     1       6.041   4.830  16.554  0.00  0.00    +0.000 C 
BRANCH   8   9
ATOM      9  C   UNL     1       4.858   3.878  16.363  0.00  0.00    +0.000 C 
BRANCH   9  10
ATOM     10  N   UNL     1       4.263   3.506  17.628  0.00  0.00    +0.000 N 
ATOM     11  N   UNL     1       5.152   3.192  18.614  0.00  0.00    +0.000 NA
ATOM     12  N   UNL     1       4.768   2.879  19.760  0.00  0.00    +0.000 NA
ATOM     13  C   UNL     1       3.403   2.884  20.056  0.00  0.00    +0.000 A 
ATOM     14  C   UNL     1       3.004   2.617  21.368  0.00  0.00    +0.000 A 
ATOM     15  C   UNL     1       1.651   2.615  21.713  0.00  0.00    +0.000 A 
ATOM     16  C   UNL     1       0.682   2.878  20.746  0.00  0.00    +0.000 A 
ATOM     17  C   UNL     1       1.066   3.144  19.435  0.00  0.00    +0.000 A 
ATOM     18  C   UNL     1       2.424   3.145  19.110  0.00  0.00    +0.000 A 
ATOM     19  C   UNL     1       2.892   3.447  17.764  0.00  0.00    +0.000 A 
ATOM     20  O   UNL     1       2.088   3.642  16.855  0.00  0.00    +0.000 OA
ENDBRANCH   9  10
ENDBRANCH   8   9
ENDBRANCH   1   8
BRANCH   1  21
ATOM     21  C   UNL     1       4.470   6.333  17.944  0.00  0.00    +0.000 C 
BRANCH  21  22
ATOM     22  O   UNL     1       3.310   7.016  17.465  0.00  0.00    +0.000 OA
BRANCH  22  23
ATOM     23  C   UNL     1       2.606   7.774  18.353  0.00  0.00    +0.000 A 
ATOM     24  C   UNL     1       2.301   7.404  19.656  0.00  0.00    +0.000 A 
ATOM     25  C   UNL     1       1.532   8.239  20.462  0.00  0.00    +0.000 A 
ATOM     26  C   UNL     1       1.034   9.462  19.990  0.00  0.00    +0.000 A 
ATOM     27  C   UNL     1       1.401   9.846  18.688  0.00  0.00    +0.000 A 
ATOM     28  C   UNL     1       2.183   9.013  17.881  0.00  0.00    +0.000 A 
BRANCH  26  29
ATOM     29  C   UNL     1       0.112  10.259  20.826  0.00  0.00    +0.000 A 
ATOM     30  C   UNL     1      -0.013  10.021  22.207  0.00  0.00    +0.000 A 
ATOM     31  C   UNL     1      -0.954  10.699  22.982  0.00  0.00    +0.000 A 
ATOM     32  C   UNL     1      -1.778  11.653  22.395  0.00  0.00    +0.000 A 
ATOM     33  C   UNL     1      -1.662  11.923  21.034  0.00  0.00    +0.000 A 
ATOM     34  C   UNL     1      -0.732  11.229  20.258  0.00  0.00    +0.000 A 
ENDBRANCH  26  29
ENDBRANCH  22  23
ENDBRANCH  21  22
ENDBRANCH   1  21
TORSDOF 9
ENDMDL
MODEL 8
REMARK VINA RESULT:      -8.3      3.297      6.810
REMARK  Name = 
REMARK  9 active torsions:
REMARK  status: ('A' for Active; 'I' for Inactive)
REMARK    1  A    between atoms: C_2  and  C_5
REMARK    2  A    between atoms: N_3  and  O_4
REMARK    3  A    between atoms: C_5  and  C_6
REMARK    4  A    between atoms: C_5  and  C_19
REMARK    5  A    between atoms: C_6  and  C_7
REMARK    6  A    between atoms: C_7  and  N_8
REMARK    7  A    between atoms: C_19  and  O_20
REMARK    8  A    between atoms: O_20  and  C_21
REMARK    9  A    between atoms: C_24  and  C_25
REMARK                            x       y       z     vdW  Elec       q    Type
REMARK                         _______ _______ _______ _____ _____    ______ ____
ROOT
ATOM      1  C   UNL     1       4.187   4.433  17.862  0.00  0.00    +0.000 C 
ENDROOT
BRANCH   1   3
ATOM      2  O   UNL     1       3.214   2.307  18.528  0.00  0.00    +0.000 OA
ATOM      3  C   UNL     1       4.142   3.110  18.614  0.00  0.00    +0.000 C 
ATOM      4  N   UNL     1       5.189   2.884  19.470  0.00  0.00    +0.000 N 
ATOM      5  H   UNL     1       6.078   3.373  19.455  0.00  0.00    +0.000 HD
BRANCH   4   6
ATOM      6  O   UNL     1       5.144   1.663  20.182  0.00  0.00    +0.000 OA
ATOM      7  H   UNL     1       6.098   1.451  20.297  0.00  0.00    +0.000 HD
ENDBRANCH   4   6
ENDBRANCH   1   3
BRANCH   1   8
ATOM      8  C   UNL     1       4.118   5.643  18.804  0.00  0.00    +0.000 C 
BRANCH   8   9
ATOM      9  C   UNL     1       2.748   5.819  19.462  0.00  0.00    +0.000 C 
BRANCH   9  10
ATOM     10  N   UNL     1       2.262   7.176  19.327  0.00  0.00    +0.000 N 
ATOM     11  N   UNL     1       2.594   7.794  18.158  0.00  0.00    +0.000 NA
ATOM     12  N   UNL     1       2.215   8.957  17.907  0.00  0.00    +0.000 NA
ATOM     13  C   UNL     1       1.401   9.630  18.822  0.00  0.00    +0.000 A 
ATOM     14  C   UNL     1       0.916  10.895  18.479  0.00  0.00    +0.000 A 
ATOM     15  C   UNL     1       0.097  11.604  19.358  0.00  0.00    +0.000 A 
ATOM     16  C   UNL     1      -0.245  11.055  20.594  0.00  0.00    +0.000 A 
ATOM     17  C   UNL     1       0.233   9.797  20.949  0.00  0.00    +0.000 A 
ATOM     18  C   UNL     1       1.049   9.101  20.054  0.00  0.00    +0.000 A 
ATOM     19  C   UNL     1       1.555   7.768  20.352  0.00  0.00    +0.000 A 
ATOM     20  O   UNL     1       1.329   7.246  21.442  0.00  0.00    +0.000 OA
ENDBRANCH   9  10
ENDBRANCH   8   9
ENDBRANCH   1   8
BRANCH   1  21
ATOM     21  C   UNL     1       5.435   4.412  16.957  0.00  0.00    +0.000 C 
BRANCH  21  22
ATOM     22  O   UNL     1       6.668   4.447  17.677  0.00  0.00    +0.000 OA
BRANCH  22  23
ATOM     23  C   UNL     1       7.235   5.665  17.909  0.00  0.00    +0.000 A 
ATOM     24  C   UNL     1       7.974   6.003  19.036  0.00  0.00    +0.000 A 
ATOM     25  C   UNL     1       8.467   7.295  19.191  0.00  0.00    +0.000 A 
ATOM     26  C   UNL     1       8.231   8.292  18.234  0.00  0.00    +0.000 A 
ATOM     27  C   UNL     1       7.531   7.917  17.074  0.00  0.00    +0.000 A 
ATOM     28  C   UNL     1       7.044   6.616  16.911  0.00  0.00    +0.000 A 
BRANCH  26  29
ATOM     29  C   UNL     1       8.655   9.684  18.494  0.00  0.00    +0.000 A 
ATOM     30  C   UNL     1       8.327  10.726  17.607  0.00  0.00    +0.000 A 
ATOM     31  C   UNL     1       8.809  12.022  17.794  0.00  0.00    +0.000 A 
ATOM     32  C   UNL     1       9.613  12.311  18.890  0.00  0.00    +0.000 A 
ATOM     33  C   UNL     1       9.937  11.304  19.795  0.00  0.00    +0.000 A 
ATOM     34  C   UNL     1       9.468  10.004  19.595  0.00  0.00    +0.000 A 
ENDBRANCH  26  29
ENDBRANCH  22  23
ENDBRANCH  21  22
ENDBRANCH   1  21
TORSDOF 9
ENDMDL
MODEL 9
REMARK VINA RESULT:      -8.3      3.334      7.001
REMARK  Name = 
REMARK  9 active torsions:
REMARK  status: ('A' for Active; 'I' for Inactive)
REMARK    1  A    between atoms: C_2  and  C_5
REMARK    2  A    between atoms: N_3  and  O_4
REMARK    3  A    between atoms: C_5  and  C_6
REMARK    4  A    between atoms: C_5  and  C_19
REMARK    5  A    between atoms: C_6  and  C_7
REMARK    6  A    between atoms: C_7  and  N_8
REMARK    7  A    between atoms: C_19  and  O_20
REMARK    8  A    between atoms: O_20  and  C_21
REMARK    9  A    between atoms: C_24  and  C_25
REMARK                            x       y       z     vdW  Elec       q    Type
REMARK                         _______ _______ _______ _____ _____    ______ ____
ROOT
ATOM      1  C   UNL     1       3.843   4.583  17.520  0.00  0.00    +0.000 C 
ENDROOT
BRANCH   1   3
ATOM      2  O   UNL     1       2.208   2.792  17.348  0.00  0.00    +0.000 OA
ATOM      3  C   UNL     1       3.369   3.138  17.568  0.00  0.00    +0.000 C 
ATOM      4  N   UNL     1       4.315   2.220  17.946  0.00  0.00    +0.000 N 
ATOM      5  H   UNL     1       5.318   2.374  17.944  0.00  0.00    +0.000 HD
BRANCH   4   6
ATOM      6  O   UNL     1       3.875   0.878  18.006  0.00  0.00    +0.000 OA
ATOM      7  H   UNL     1       3.957   0.586  17.070  0.00  0.00    +0.000 HD
ENDBRANCH   4   6
ENDBRANCH   1   3
BRANCH   1   8
ATOM      8  C   UNL     1       2.731   5.575  17.889  0.00  0.00    +0.000 C 
BRANCH   8   9
ATOM      9  C   UNL     1       3.234   7.010  18.063  0.00  0.00    +0.000 C 
BRANCH   9  10
ATOM     10  N   UNL     1       2.349   7.788  18.903  0.00  0.00    +0.000 N 
ATOM     11  N   UNL     1       2.067   7.231  20.116  0.00  0.00    +0.000 NA
ATOM     12  N   UNL     1       1.336   7.813  20.944  0.00  0.00    +0.000 NA
ATOM     13  C   UNL     1       0.824   9.078  20.644  0.00  0.00    +0.000 A 
ATOM     14  C   UNL     1       0.083   9.747  21.622  0.00  0.00    +0.000 A 
ATOM     15  C   UNL     1      -0.445  11.014  21.370  0.00  0.00    +0.000 A 
ATOM     16  C   UNL     1      -0.239  11.625  20.133  0.00  0.00    +0.000 A 
ATOM     17  C   UNL     1       0.495  10.969  19.150  0.00  0.00    +0.000 A 
ATOM     18  C   UNL     1       1.019   9.703  19.422  0.00  0.00    +0.000 A 
ATOM     19  C   UNL     1       1.823   8.978  18.448  0.00  0.00    +0.000 A 
ATOM     20  O   UNL     1       2.003   9.440  17.323  0.00  0.00    +0.000 OA
ENDBRANCH   9  10
ENDBRANCH   8   9
ENDBRANCH   1   8
BRANCH   1  21
ATOM     21  C   UNL     1       5.099   4.691  18.408  0.00  0.00    +0.000 C 
BRANCH  21  22
ATOM     22  O   UNL     1       6.306   4.897  17.673  0.00  0.00    +0.000 OA
BRANCH  22  23
ATOM     23  C   UNL     1       7.036   6.015  17.948  0.00  0.00    +0.000 A 
ATOM     24  C   UNL     1       7.893   6.166  19.030  0.00  0.00    +0.000 A 
ATOM     25  C   UNL     1       8.553   7.373  19.240  0.00  0.00    +0.000 A 
ATOM     26  C   UNL     1       8.373   8.469  18.385  0.00  0.00    +0.000 A 
ATOM     27  C   UNL     1       7.547   8.279  17.263  0.00  0.00    +0.000 A 
ATOM     28  C   UNL     1       6.891   7.063  17.043  0.00  0.00    +0.000 A 
BRANCH  26  29
ATOM     29  C   UNL     1       8.984   9.773  18.713  0.00  0.00    +0.000 A 
ATOM     30  C   UNL     1       9.226  10.153  20.047  0.00  0.00    +0.000 A 
ATOM     31  C   UNL     1       9.709  11.422  20.368  0.00  0.00    +0.000 A 
ATOM     32  C   UNL     1       9.985  12.335  19.357  0.00  0.00    +0.000 A 
ATOM     33  C   UNL     1       9.774  11.980  18.028  0.00  0.00    +0.000 A 
ATOM     34  C   UNL     1       9.273  10.715  17.711  0.00  0.00    +0.000 A 
ENDBRANCH  26  29
ENDBRANCH  22  23
ENDBRANCH  21  22
ENDBRANCH   1  21
TORSDOF 9
ENDMDL
