MODEL 1
REMARK VINA RESULT:      -6.8      0.000      0.000
REMARK  Name = 
REMARK  15 active torsions:
REMARK  status: ('A' for Active; 'I' for Inactive)
REMARK    1  A    between atoms: C_1  and  C_2
REMARK    2  A    between atoms: C_2  and  O_3
REMARK    3  A    between atoms: O_3  and  C_4
REMARK    4  A    between atoms: C_4  and  C_6
REMARK    5  A    between atoms: C_6  and  C_7
REMARK    6  A    between atoms: C_6  and  C_24
REMARK    7  A    between atoms: C_7  and  C_8
REMARK    8  A    between atoms: C_7  and  N_13
REMARK    9  A    between atoms: C_8  and  C_9
REMARK   10  A    between atoms: C_9  and  O_11
REMARK   11  A    between atoms: O_11  and  C_12
REMARK   12  A    between atoms: C_14  and  O_16
REMARK   13  A    between atoms: O_16  and  C_17
REMARK   14  A    between atoms: C_17  and  C_18
REMARK   15  A    between atoms: C_24  and  C_25
REMARK                            x       y       z     vdW  Elec       q    Type
REMARK                         _______ _______ _______ _____ _____    ______ ____
ROOT
ATOM      1  C   UNL     1       4.978   5.779  18.537  0.00  0.00    +0.000 C 
ENDROOT
BRANCH   1   2
ATOM      2  N   UNL     1       4.951   5.089  17.245  0.00  0.00    +0.000 N 
ATOM      3  C   UNL     1       5.111   5.669  16.028  0.00  0.00    +0.000 C 
ATOM      4  O   UNL     1       5.206   6.872  15.828  0.00  0.00    +0.000 OA
ATOM      5  H   UNL     1       4.833   4.082  17.231  0.00  0.00    +0.000 HD
BRANCH   3   6
ATOM      6  O   UNL     1       5.115   4.701  15.082  0.00  0.00    +0.000 OA
BRANCH   6   7
ATOM      7  C   UNL     1       6.127   4.809  14.078  0.00  0.00    +0.000 C 
BRANCH   7   8
ATOM      8  C   UNL     1       6.020   3.760  12.995  0.00  0.00    +0.000 A 
ATOM      9  C   UNL     1       4.782   3.427  12.437  0.00  0.00    +0.000 A 
ATOM     10  C   UNL     1       4.702   2.531  11.363  0.00  0.00    +0.000 A 
ATOM     11  C   UNL     1       5.866   1.956  10.850  0.00  0.00    +0.000 A 
ATOM     12  C   UNL     1       7.101   2.263  11.417  0.00  0.00    +0.000 A 
ATOM     13  C   UNL     1       7.179   3.154  12.485  0.00  0.00    +0.000 A 
ENDBRANCH   7   8
ENDBRANCH   6   7
ENDBRANCH   3   6
ENDBRANCH   1   2
BRANCH   1  14
ATOM     14  C   UNL     1       3.691   5.533  19.386  0.00  0.00    +0.000 C 
BRANCH  14  15
ATOM     15  C   UNL     1       2.864   4.282  19.002  0.00  0.00    +0.000 C 
ATOM     16  C   UNL     1       1.936   4.464  17.803  0.00  0.00    +0.000 C 
ATOM     17  O   UNL     1       2.077   3.890  20.146  0.00  0.00    +0.000 OA
ATOM     18  C   UNL     1       2.420   2.534  20.432  0.00  0.00    +0.000 C 
ATOM     19  C   UNL     1       3.771   2.338  19.809  0.00  0.00    +0.000 C 
ATOM     20  O   UNL     1       3.739   3.181  18.667  0.00  0.00    +0.000 OA
ENDBRANCH  14  15
BRANCH  14  21
ATOM     21  C   UNL     1       2.801   6.762  19.345  0.00  0.00    +0.000 C 
ATOM     22  O   UNL     1       1.930   7.019  20.171  0.00  0.00    +0.000 OA
BRANCH  21  23
ATOM     23  O   UNL     1       3.059   7.522  18.242  0.00  0.00    +0.000 OA
BRANCH  23  25
ATOM     24  C   UNL     1       1.966   9.668  18.009  0.00  0.00    +0.000 C 
ATOM     25  C   UNL     1       1.945   8.198  17.632  0.00  0.00    +0.000 C 
ENDBRANCH  23  25
ENDBRANCH  21  23
ENDBRANCH  14  21
ENDBRANCH   1  14
BRANCH   1  26
ATOM     26  C   UNL     1       6.280   5.376  19.268  0.00  0.00    +0.000 C 
BRANCH  26  27
ATOM     27  C   UNL     1       7.522   5.585  18.427  0.00  0.00    +0.000 C 
ATOM     28  O   UNL     1       7.974   4.785  17.617  0.00  0.00    +0.000 OA
BRANCH  27  29
ATOM     29  O   UNL     1       8.073   6.799  18.701  0.00  0.00    +0.000 OA
ATOM     30  C   UNL     1       7.859   7.780  17.684  0.00  0.00    +0.000 C 
ENDBRANCH  27  29
ENDBRANCH  26  27
ENDBRANCH   1  26
TORSDOF 12
ENDMDL
MODEL 2
REMARK VINA RESULT:      -6.7      1.147      1.464
REMARK  Name = 
REMARK  15 active torsions:
REMARK  status: ('A' for Active; 'I' for Inactive)
REMARK    1  A    between atoms: C_1  and  C_2
REMARK    2  A    between atoms: C_2  and  O_3
REMARK    3  A    between atoms: O_3  and  C_4
REMARK    4  A    between atoms: C_4  and  C_6
REMARK    5  A    between atoms: C_6  and  C_7
REMARK    6  A    between atoms: C_6  and  C_24
REMARK    7  A    between atoms: C_7  and  C_8
REMARK    8  A    between atoms: C_7  and  N_13
REMARK    9  A    between atoms: C_8  and  C_9
REMARK   10  A    between atoms: C_9  and  O_11
REMARK   11  A    between atoms: O_11  and  C_12
REMARK   12  A    between atoms: C_14  and  O_16
REMARK   13  A    between atoms: O_16  and  C_17
REMARK   14  A    between atoms: C_17  and  C_18
REMARK   15  A    between atoms: C_24  and  C_25
REMARK                            x       y       z     vdW  Elec       q    Type
REMARK                         _______ _______ _______ _____ _____    ______ ____
ROOT
ATOM      1  C   UNL     1       4.633   5.374  19.015  0.00  0.00    +0.000 C 
ENDROOT
BRANCH   1   2
ATOM      2  N   UNL     1       4.660   5.363  17.551  0.00  0.00    +0.000 N 
ATOM      3  C   UNL     1       4.826   6.446  16.748  0.00  0.00    +0.000 C 
ATOM      4  O   UNL     1       4.881   7.605  17.132  0.00  0.00    +0.000 OA
ATOM      5  H   UNL     1       4.580   4.475  17.067  0.00  0.00    +0.000 HD
BRANCH   3   6
ATOM      6  O   UNL     1       4.886   6.028  15.462  0.00  0.00    +0.000 OA
BRANCH   6   7
ATOM      7  C   UNL     1       5.164   4.639  15.266  0.00  0.00    +0.000 C 
BRANCH   7   8
ATOM      8  C   UNL     1       5.946   4.350  14.006  0.00  0.00    +0.000 A 
ATOM      9  C   UNL     1       5.480   3.425  13.066  0.00  0.00    +0.000 A 
ATOM     10  C   UNL     1       6.154   3.239  11.853  0.00  0.00    +0.000 A 
ATOM     11  C   UNL     1       7.309   3.975  11.581  0.00  0.00    +0.000 A 
ATOM     12  C   UNL     1       7.795   4.880  12.522  0.00  0.00    +0.000 A 
ATOM     13  C   UNL     1       7.123   5.064  13.728  0.00  0.00    +0.000 A 
ENDBRANCH   7   8
ENDBRANCH   6   7
ENDBRANCH   3   6
ENDBRANCH   1   2
BRANCH   1  14
ATOM     14  C   UNL     1       3.268   4.897  19.603  0.00  0.00    +0.000 C 
BRANCH  14  15
ATOM     15  C   UNL     1       2.447   3.943  18.703  0.00  0.00    +0.000 C 
ATOM     16  C   UNL     1       1.608   4.631  17.629  0.00  0.00    +0.000 C 
ATOM     17  O   UNL     1       1.577   3.160  19.546  0.00  0.00    +0.000 OA
ATOM     18  C   UNL     1       1.875   1.790  19.279  0.00  0.00    +0.000 C 
ATOM     19  C   UNL     1       3.262   1.800  18.707  0.00  0.00    +0.000 C 
ATOM     20  O   UNL     1       3.323   3.031  18.002  0.00  0.00    +0.000 OA
ENDBRANCH  14  15
BRANCH  14  21
ATOM     21  C   UNL     1       2.418   6.097  19.978  0.00  0.00    +0.000 C 
ATOM     22  O   UNL     1       1.503   6.075  20.795  0.00  0.00    +0.000 OA
BRANCH  21  23
ATOM     23  O   UNL     1       2.770   7.197  19.252  0.00  0.00    +0.000 OA
BRANCH  23  25
ATOM     24  C   UNL     1       1.711   8.855  17.843  0.00  0.00    +0.000 C 
ATOM     25  C   UNL     1       1.854   8.307  19.251  0.00  0.00    +0.000 C 
ENDBRANCH  23  25
ENDBRANCH  21  23
ENDBRANCH  14  21
ENDBRANCH   1  14
BRANCH   1  26
ATOM     26  C   UNL     1       5.840   4.550  19.522  0.00  0.00    +0.000 C 
BRANCH  26  27
ATOM     27  C   UNL     1       7.127   5.348  19.571  0.00  0.00    +0.000 C 
ATOM     28  O   UNL     1       7.839   5.487  20.557  0.00  0.00    +0.000 OA
BRANCH  27  29
ATOM     29  O   UNL     1       7.382   5.895  18.351  0.00  0.00    +0.000 OA
ATOM     30  C   UNL     1       8.068   7.149  18.406  0.00  0.00    +0.000 C 
ENDBRANCH  27  29
ENDBRANCH  26  27
ENDBRANCH   1  26
TORSDOF 12
ENDMDL
MODEL 3
REMARK VINA RESULT:      -6.6      2.082      5.800
REMARK  Name = 
REMARK  15 active torsions:
REMARK  status: ('A' for Active; 'I' for Inactive)
REMARK    1  A    between atoms: C_1  and  C_2
REMARK    2  A    between atoms: C_2  and  O_3
REMARK    3  A    between atoms: O_3  and  C_4
REMARK    4  A    between atoms: C_4  and  C_6
REMARK    5  A    between atoms: C_6  and  C_7
REMARK    6  A    between atoms: C_6  and  C_24
REMARK    7  A    between atoms: C_7  and  C_8
REMARK    8  A    between atoms: C_7  and  N_13
REMARK    9  A    between atoms: C_8  and  C_9
REMARK   10  A    between atoms: C_9  and  O_11
REMARK   11  A    between atoms: O_11  and  C_12
REMARK   12  A    between atoms: C_14  and  O_16
REMARK   13  A    between atoms: O_16  and  C_17
REMARK   14  A    between atoms: C_17  and  C_18
REMARK   15  A    between atoms: C_24  and  C_25
REMARK                            x       y       z     vdW  Elec       q    Type
REMARK                         _______ _______ _______ _____ _____    ______ ____
ROOT
ATOM      1  C   UNL     1       5.664   5.052  18.015  0.00  0.00    +0.000 C 
ENDROOT
BRANCH   1   2
ATOM      2  N   UNL     1       6.728   6.055  18.096  0.00  0.00    +0.000 N 
ATOM      3  C   UNL     1       7.640   6.170  19.096  0.00  0.00    +0.000 C 
ATOM      4  O   UNL     1       7.647   5.508  20.124  0.00  0.00    +0.000 OA
ATOM      5  H   UNL     1       6.834   6.718  17.337  0.00  0.00    +0.000 HD
BRANCH   3   6
ATOM      6  O   UNL     1       8.513   7.154  18.775  0.00  0.00    +0.000 OA
BRANCH   6   7
ATOM      7  C   UNL     1       7.994   8.214  17.969  0.00  0.00    +0.000 C 
BRANCH   7   8
ATOM      8  C   UNL     1       8.555   9.572  18.323  0.00  0.00    +0.000 A 
ATOM      9  C   UNL     1       8.337  10.678  17.495  0.00  0.00    +0.000 A 
ATOM     10  C   UNL     1       8.769  11.954  17.880  0.00  0.00    +0.000 A 
ATOM     11  C   UNL     1       9.434  12.124  19.096  0.00  0.00    +0.000 A 
ATOM     12  C   UNL     1       9.678  11.024  19.914  0.00  0.00    +0.000 A 
ATOM     13  C   UNL     1       9.248   9.756  19.531  0.00  0.00    +0.000 A 
ENDBRANCH   7   8
ENDBRANCH   6   7
ENDBRANCH   3   6
ENDBRANCH   1   2
BRANCH   1  14
ATOM     14  C   UNL     1       4.337   5.514  18.694  0.00  0.00    +0.000 C 
BRANCH  14  15
ATOM     15  C   UNL     1       3.363   4.381  19.101  0.00  0.00    +0.000 C 
ATOM     16  C   UNL     1       2.649   4.592  20.434  0.00  0.00    +0.000 C 
ATOM     17  O   UNL     1       4.103   3.145  19.158  0.00  0.00    +0.000 OA
ATOM     18  C   UNL     1       3.450   2.237  18.271  0.00  0.00    +0.000 C 
ATOM     19  C   UNL     1       2.688   3.109  17.317  0.00  0.00    +0.000 C 
ATOM     20  O   UNL     1       2.322   4.230  18.109  0.00  0.00    +0.000 OA
ENDBRANCH  14  15
BRANCH  14  21
ATOM     21  C   UNL     1       3.616   6.506  17.800  0.00  0.00    +0.000 C 
ATOM     22  O   UNL     1       4.107   7.034  16.807  0.00  0.00    +0.000 OA
BRANCH  21  23
ATOM     23  O   UNL     1       2.365   6.777  18.272  0.00  0.00    +0.000 OA
BRANCH  23  25
ATOM     24  C   UNL     1       1.580   9.035  17.902  0.00  0.00    +0.000 C 
ATOM     25  C   UNL     1       2.159   8.054  18.903  0.00  0.00    +0.000 C 
ENDBRANCH  23  25
ENDBRANCH  21  23
ENDBRANCH  14  21
ENDBRANCH   1  14
BRANCH   1  26
ATOM     26  C   UNL     1       5.488   4.661  16.529  0.00  0.00    +0.000 C 
BRANCH  26  27
ATOM     27  C   UNL     1       6.766   4.787  15.725  0.00  0.00    +0.000 C 
ATOM     28  O   UNL     1       7.880   4.449  16.105  0.00  0.00    +0.000 OA
BRANCH  27  29
ATOM     29  O   UNL     1       6.500   5.337  14.508  0.00  0.00    +0.000 OA
ATOM     30  C   UNL     1       7.423   4.960  13.484  0.00  0.00    +0.000 C 
ENDBRANCH  27  29
ENDBRANCH  26  27
ENDBRANCH   1  26
TORSDOF 12
ENDMDL
MODEL 4
REMARK VINA RESULT:      -6.5      1.741      3.819
REMARK  Name = 
REMARK  15 active torsions:
REMARK  status: ('A' for Active; 'I' for Inactive)
REMARK    1  A    between atoms: C_1  and  C_2
REMARK    2  A    between atoms: C_2  and  O_3
REMARK    3  A    between atoms: O_3  and  C_4
REMARK    4  A    between atoms: C_4  and  C_6
REMARK    5  A    between atoms: C_6  and  C_7
REMARK    6  A    between atoms: C_6  and  C_24
REMARK    7  A    between atoms: C_7  and  C_8
REMARK    8  A    between atoms: C_7  and  N_13
REMARK    9  A    between atoms: C_8  and  C_9
REMARK   10  A    between atoms: C_9  and  O_11
REMARK   11  A    between atoms: O_11  and  C_12
REMARK   12  A    between atoms: C_14  and  O_16
REMARK   13  A    between atoms: O_16  and  C_17
REMARK   14  A    between atoms: C_17  and  C_18
REMARK   15  A    between atoms: C_24  and  C_25
REMARK                            x       y       z     vdW  Elec       q    Type
REMARK                         _______ _______ _______ _____ _____    ______ ____
ROOT
ATOM      1  C   UNL     1       3.382   5.831  18.044  0.00  0.00    +0.000 C 
ENDROOT
BRANCH   1   2
ATOM      2  N   UNL     1       4.784   5.853  17.624  0.00  0.00    +0.000 N 
ATOM      3  C   UNL     1       5.279   6.486  16.529  0.00  0.00    +0.000 C 
ATOM      4  O   UNL     1       4.607   7.053  15.680  0.00  0.00    +0.000 OA
ATOM      5  H   UNL     1       5.475   5.384  18.201  0.00  0.00    +0.000 HD
BRANCH   3   6
ATOM      6  O   UNL     1       6.627   6.355  16.524  0.00  0.00    +0.000 OA
BRANCH   6   7
ATOM      7  C   UNL     1       7.131   5.076  16.131  0.00  0.00    +0.000 C 
BRANCH   7   8
ATOM      8  C   UNL     1       7.024   4.814  14.646  0.00  0.00    +0.000 A 
ATOM      9  C   UNL     1       7.809   5.525  13.732  0.00  0.00    +0.000 A 
ATOM     10  C   UNL     1       7.782   5.205  12.369  0.00  0.00    +0.000 A 
ATOM     11  C   UNL     1       6.956   4.176  11.913  0.00  0.00    +0.000 A 
ATOM     12  C   UNL     1       6.152   3.480  12.813  0.00  0.00    +0.000 A 
ATOM     13  C   UNL     1       6.180   3.799  14.169  0.00  0.00    +0.000 A 
ENDBRANCH   7   8
ENDBRANCH   6   7
ENDBRANCH   3   6
ENDBRANCH   1   2
BRANCH   1  14
ATOM     14  C   UNL     1       2.944   4.456  18.639  0.00  0.00    +0.000 C 
BRANCH  14  15
ATOM     15  C   UNL     1       3.822   3.244  18.243  0.00  0.00    +0.000 C 
ATOM     16  C   UNL     1       4.256   3.213  16.779  0.00  0.00    +0.000 C 
ATOM     17  O   UNL     1       3.091   2.037  18.539  0.00  0.00    +0.000 OA
ATOM     18  C   UNL     1       3.911   1.268  19.419  0.00  0.00    +0.000 C 
ATOM     19  C   UNL     1       4.844   2.263  20.045  0.00  0.00    +0.000 C 
ATOM     20  O   UNL     1       5.041   3.227  19.021  0.00  0.00    +0.000 OA
ENDBRANCH  14  15
BRANCH  14  21
ATOM     21  C   UNL     1       1.497   4.173  18.281  0.00  0.00    +0.000 C 
ATOM     22  O   UNL     1       0.990   4.410  17.189  0.00  0.00    +0.000 OA
BRANCH  21  23
ATOM     23  O   UNL     1       0.815   3.665  19.348  0.00  0.00    +0.000 OA
BRANCH  23  25
ATOM     24  C   UNL     1       1.459   2.983  21.577  0.00  0.00    +0.000 C 
ATOM     25  C   UNL     1       1.174   4.152  20.653  0.00  0.00    +0.000 C 
ENDBRANCH  23  25
ENDBRANCH  21  23
ENDBRANCH  14  21
ENDBRANCH   1  14
BRANCH   1  26
ATOM     26  C   UNL     1       3.153   7.017  19.010  0.00  0.00    +0.000 C 
BRANCH  26  27
ATOM     27  C   UNL     1       2.310   8.122  18.406  0.00  0.00    +0.000 C 
ATOM     28  O   UNL     1       2.344   8.482  17.236  0.00  0.00    +0.000 OA
BRANCH  27  29
ATOM     29  O   UNL     1       1.501   8.664  19.357  0.00  0.00    +0.000 OA
ATOM     30  C   UNL     1       0.895   9.900  18.971  0.00  0.00    +0.000 C 
ENDBRANCH  27  29
ENDBRANCH  26  27
ENDBRANCH   1  26
TORSDOF 12
ENDMDL
MODEL 5
REMARK VINA RESULT:      -6.5      2.277      6.463
REMARK  Name = 
REMARK  15 active torsions:
REMARK  status: ('A' for Active; 'I' for Inactive)
REMARK    1  A    between atoms: C_1  and  C_2
REMARK    2  A    between atoms: C_2  and  O_3
REMARK    3  A    between atoms: O_3  and  C_4
REMARK    4  A    between atoms: C_4  and  C_6
REMARK    5  A    between atoms: C_6  and  C_7
REMARK    6  A    between atoms: C_6  and  C_24
REMARK    7  A    between atoms: C_7  and  C_8
REMARK    8  A    between atoms: C_7  and  N_13
REMARK    9  A    between atoms: C_8  and  C_9
REMARK   10  A    between atoms: C_9  and  O_11
REMARK   11  A    between atoms: O_11  and  C_12
REMARK   12  A    between atoms: C_14  and  O_16
REMARK   13  A    between atoms: O_16  and  C_17
REMARK   14  A    between atoms: C_17  and  C_18
REMARK   15  A    between atoms: C_24  and  C_25
REMARK                            x       y       z     vdW  Elec       q    Type
REMARK                         _______ _______ _______ _____ _____    ______ ____
ROOT
ATOM      1  C   UNL     1       5.805   4.885  17.032  0.00  0.00    +0.000 C 
ENDROOT
BRANCH   1   2
ATOM      2  N   UNL     1       6.491   6.169  16.871  0.00  0.00    +0.000 N 
ATOM      3  C   UNL     1       7.479   6.651  17.668  0.00  0.00    +0.000 C 
ATOM      4  O   UNL     1       7.875   6.122  18.697  0.00  0.00    +0.000 OA
ATOM      5  H   UNL     1       6.245   6.759  16.083  0.00  0.00    +0.000 HD
BRANCH   3   6
ATOM      6  O   UNL     1       7.923   7.821  17.151  0.00  0.00    +0.000 OA
BRANCH   6   7
ATOM      7  C   UNL     1       7.310   9.006  17.665  0.00  0.00    +0.000 C 
BRANCH   7   8
ATOM      8  C   UNL     1       8.302  10.044  18.137  0.00  0.00    +0.000 A 
ATOM      9  C   UNL     1       8.328  11.323  17.572  0.00  0.00    +0.000 A 
ATOM     10  C   UNL     1       9.178  12.312  18.083  0.00  0.00    +0.000 A 
ATOM     11  C   UNL     1      10.016  12.017  19.161  0.00  0.00    +0.000 A 
ATOM     12  C   UNL     1      10.015  10.739  19.712  0.00  0.00    +0.000 A 
ATOM     13  C   UNL     1       9.169   9.756  19.202  0.00  0.00    +0.000 A 
ENDBRANCH   7   8
ENDBRANCH   6   7
ENDBRANCH   3   6
ENDBRANCH   1   2
BRANCH   1  14
ATOM     14  C   UNL     1       4.253   5.005  16.923  0.00  0.00    +0.000 C 
BRANCH  14  15
ATOM     15  C   UNL     1       3.589   6.015  17.890  0.00  0.00    +0.000 C 
ATOM     16  C   UNL     1       3.664   7.475  17.449  0.00  0.00    +0.000 C 
ATOM     17  O   UNL     1       4.215   5.885  19.183  0.00  0.00    +0.000 OA
ATOM     18  C   UNL     1       3.172   5.598  20.114  0.00  0.00    +0.000 C 
ATOM     19  C   UNL     1       2.057   5.033  19.283  0.00  0.00    +0.000 C 
ATOM     20  O   UNL     1       2.183   5.717  18.045  0.00  0.00    +0.000 OA
ENDBRANCH  14  15
BRANCH  14  21
ATOM     21  C   UNL     1       3.614   3.640  17.099  0.00  0.00    +0.000 C 
ATOM     22  O   UNL     1       2.535   3.307  16.617  0.00  0.00    +0.000 OA
BRANCH  21  23
ATOM     23  O   UNL     1       4.370   2.841  17.907  0.00  0.00    +0.000 OA
BRANCH  23  25
ATOM     24  C   UNL     1       4.320   2.167  20.230  0.00  0.00    +0.000 C 
ATOM     25  C   UNL     1       3.674   2.024  18.864  0.00  0.00    +0.000 C 
ENDBRANCH  23  25
ENDBRANCH  21  23
ENDBRANCH  14  21
ENDBRANCH   1  14
BRANCH   1  26
ATOM     26  C   UNL     1       6.415   3.887  16.021  0.00  0.00    +0.000 C 
BRANCH  26  27
ATOM     27  C   UNL     1       6.656   4.496  14.655  0.00  0.00    +0.000 C 
ATOM     28  O   UNL     1       7.514   5.328  14.389  0.00  0.00    +0.000 OA
BRANCH  27  29
ATOM     29  O   UNL     1       5.773   3.984  13.754  0.00  0.00    +0.000 OA
ATOM     30  C   UNL     1       6.367   3.588  12.515  0.00  0.00    +0.000 C 
ENDBRANCH  27  29
ENDBRANCH  26  27
ENDBRANCH   1  26
TORSDOF 12
ENDMDL
MODEL 6
REMARK VINA RESULT:      -6.5      2.055      5.762
REMARK  Name = 
REMARK  15 active torsions:
REMARK  status: ('A' for Active; 'I' for Inactive)
REMARK    1  A    between atoms: C_1  and  C_2
REMARK    2  A    between atoms: C_2  and  O_3
REMARK    3  A    between atoms: O_3  and  C_4
REMARK    4  A    between atoms: C_4  and  C_6
REMARK    5  A    between atoms: C_6  and  C_7
REMARK    6  A    between atoms: C_6  and  C_24
REMARK    7  A    between atoms: C_7  and  C_8
REMARK    8  A    between atoms: C_7  and  N_13
REMARK    9  A    between atoms: C_8  and  C_9
REMARK   10  A    between atoms: C_9  and  O_11
REMARK   11  A    between atoms: O_11  and  C_12
REMARK   12  A    between atoms: C_14  and  O_16
REMARK   13  A    between atoms: O_16  and  C_17
REMARK   14  A    between atoms: C_17  and  C_18
REMARK   15  A    between atoms: C_24  and  C_25
REMARK                            x       y       z     vdW  Elec       q    Type
REMARK                         _______ _______ _______ _____ _____    ______ ____
ROOT
ATOM      1  C   UNL     1       5.633   5.380  17.765  0.00  0.00    +0.000 C 
ENDROOT
BRANCH   1   2
ATOM      2  N   UNL     1       6.672   6.391  17.978  0.00  0.00    +0.000 N 
ATOM      3  C   UNL     1       7.745   6.269  18.801  0.00  0.00    +0.000 C 
ATOM      4  O   UNL     1       7.949   5.332  19.559  0.00  0.00    +0.000 OA
ATOM      5  H   UNL     1       6.625   7.258  17.454  0.00  0.00    +0.000 HD
BRANCH   3   6
ATOM      6  O   UNL     1       8.524   7.368  18.663  0.00  0.00    +0.000 OA
BRANCH   6   7
ATOM      7  C   UNL     1       7.969   8.438  17.895  0.00  0.00    +0.000 C 
BRANCH   7   8
ATOM      8  C   UNL     1       8.531   9.795  18.254  0.00  0.00    +0.000 A 
ATOM      9  C   UNL     1       8.213  10.927  17.497  0.00  0.00    +0.000 A 
ATOM     10  C   UNL     1       8.652  12.197  17.895  0.00  0.00    +0.000 A 
ATOM     11  C   UNL     1       9.423  12.334  19.051  0.00  0.00    +0.000 A 
ATOM     12  C   UNL     1       9.766  11.208  19.796  0.00  0.00    +0.000 A 
ATOM     13  C   UNL     1       9.329   9.946  19.399  0.00  0.00    +0.000 A 
ENDBRANCH   7   8
ENDBRANCH   6   7
ENDBRANCH   3   6
ENDBRANCH   1   2
BRANCH   1  14
ATOM     14  C   UNL     1       4.301   5.709  18.508  0.00  0.00    +0.000 C 
BRANCH  14  15
ATOM     15  C   UNL     1       3.290   4.542  18.620  0.00  0.00    +0.000 C 
ATOM     16  C   UNL     1       2.138   4.587  17.619  0.00  0.00    +0.000 C 
ATOM     17  O   UNL     1       2.747   4.537  19.956  0.00  0.00    +0.000 OA
ATOM     18  C   UNL     1       3.012   3.244  20.499  0.00  0.00    +0.000 C 
ATOM     19  C   UNL     1       4.162   2.714  19.694  0.00  0.00    +0.000 C 
ATOM     20  O   UNL     1       3.955   3.276  18.406  0.00  0.00    +0.000 OA
ENDBRANCH  14  15
BRANCH  14  21
ATOM     21  C   UNL     1       3.626   6.904  17.859  0.00  0.00    +0.000 C 
ATOM     22  O   UNL     1       3.835   7.282  16.710  0.00  0.00    +0.000 OA
BRANCH  21  23
ATOM     23  O   UNL     1       2.793   7.537  18.734  0.00  0.00    +0.000 OA
BRANCH  23  25
ATOM     24  C   UNL     1       2.038   9.702  17.965  0.00  0.00    +0.000 C 
ATOM     25  C   UNL     1       1.670   8.246  18.182  0.00  0.00    +0.000 C 
ENDBRANCH  23  25
ENDBRANCH  21  23
ENDBRANCH  14  21
ENDBRANCH   1  14
BRANCH   1  26
ATOM     26  C   UNL     1       5.454   5.193  16.240  0.00  0.00    +0.000 C 
BRANCH  26  27
ATOM     27  C   UNL     1       6.764   4.981  15.509  0.00  0.00    +0.000 C 
ATOM     28  O   UNL     1       7.797   4.558  16.011  0.00  0.00    +0.000 OA
BRANCH  27  29
ATOM     29  O   UNL     1       6.630   5.332  14.200  0.00  0.00    +0.000 OA
ATOM     30  C   UNL     1       7.760   5.002  13.389  0.00  0.00    +0.000 C 
ENDBRANCH  27  29
ENDBRANCH  26  27
ENDBRANCH   1  26
TORSDOF 12
ENDMDL
MODEL 7
REMARK VINA RESULT:      -6.5      0.809      1.259
REMARK  Name = 
REMARK  15 active torsions:
REMARK  status: ('A' for Active; 'I' for Inactive)
REMARK    1  A    between atoms: C_1  and  C_2
REMARK    2  A    between atoms: C_2  and  O_3
REMARK    3  A    between atoms: O_3  and  C_4
REMARK    4  A    between atoms: C_4  and  C_6
REMARK    5  A    between atoms: C_6  and  C_7
REMARK    6  A    between atoms: C_6  and  C_24
REMARK    7  A    between atoms: C_7  and  C_8
REMARK    8  A    between atoms: C_7  and  N_13
REMARK    9  A    between atoms: C_8  and  C_9
REMARK   10  A    between atoms: C_9  and  O_11
REMARK   11  A    between atoms: O_11  and  C_12
REMARK   12  A    between atoms: C_14  and  O_16
REMARK   13  A    between atoms: O_16  and  C_17
REMARK   14  A    between atoms: C_17  and  C_18
REMARK   15  A    between atoms: C_24  and  C_25
REMARK                            x       y       z     vdW  Elec       q    Type
REMARK                         _______ _______ _______ _____ _____    ______ ____
ROOT
ATOM      1  C   UNL     1       4.831   5.237  18.270  0.00  0.00    +0.000 C 
ENDROOT
BRANCH   1   2
ATOM      2  N   UNL     1       4.806   4.802  16.872  0.00  0.00    +0.000 N 
ATOM      3  C   UNL     1       5.158   5.554  15.797  0.00  0.00    +0.000 C 
ATOM      4  O   UNL     1       5.457   6.739  15.833  0.00  0.00    +0.000 OA
ATOM      5  H   UNL     1       4.534   3.848  16.661  0.00  0.00    +0.000 HD
BRANCH   3   6
ATOM      6  O   UNL     1       5.090   4.782  14.687  0.00  0.00    +0.000 OA
BRANCH   6   7
ATOM      7  C   UNL     1       6.251   4.782  13.852  0.00  0.00    +0.000 C 
BRANCH   7   8
ATOM      8  C   UNL     1       6.206   3.745  12.753  0.00  0.00    +0.000 A 
ATOM      9  C   UNL     1       7.383   3.217  12.213  0.00  0.00    +0.000 A 
ATOM     10  C   UNL     1       7.334   2.182  11.271  0.00  0.00    +0.000 A 
ATOM     11  C   UNL     1       6.099   1.679  10.855  0.00  0.00    +0.000 A 
ATOM     12  C   UNL     1       4.921   2.217  11.369  0.00  0.00    +0.000 A 
ATOM     13  C   UNL     1       4.971   3.246  12.306  0.00  0.00    +0.000 A 
ENDBRANCH   7   8
ENDBRANCH   6   7
ENDBRANCH   3   6
ENDBRANCH   1   2
BRANCH   1  14
ATOM     14  C   UNL     1       3.481   4.983  19.012  0.00  0.00    +0.000 C 
BRANCH  14  15
ATOM     15  C   UNL     1       2.586   3.872  18.412  0.00  0.00    +0.000 C 
ATOM     16  C   UNL     1       1.551   4.353  17.398  0.00  0.00    +0.000 C 
ATOM     17  O   UNL     1       1.904   3.205  19.494  0.00  0.00    +0.000 OA
ATOM     18  C   UNL     1       2.236   1.820  19.393  0.00  0.00    +0.000 C 
ATOM     19  C   UNL     1       3.514   1.785  18.608  0.00  0.00    +0.000 C 
ATOM     20  O   UNL     1       3.393   2.890  17.724  0.00  0.00    +0.000 OA
ENDBRANCH  14  15
BRANCH  14  21
ATOM     21  C   UNL     1       2.691   6.275  19.107  0.00  0.00    +0.000 C 
ATOM     22  O   UNL     1       2.065   6.638  20.098  0.00  0.00    +0.000 OA
BRANCH  21  23
ATOM     23  O   UNL     1       2.723   6.962  17.928  0.00  0.00    +0.000 OA
BRANCH  23  25
ATOM     24  C   UNL     1       1.464   9.021  17.768  0.00  0.00    +0.000 C 
ATOM     25  C   UNL     1       2.826   8.395  18.002  0.00  0.00    +0.000 C 
ENDBRANCH  23  25
ENDBRANCH  21  23
ENDBRANCH  14  21
ENDBRANCH   1  14
BRANCH   1  26
ATOM     26  C   UNL     1       6.044   4.568  18.958  0.00  0.00    +0.000 C 
BRANCH  26  27
ATOM     27  C   UNL     1       7.151   5.546  19.295  0.00  0.00    +0.000 C 
ATOM     28  O   UNL     1       7.800   5.554  20.332  0.00  0.00    +0.000 OA
BRANCH  27  29
ATOM     29  O   UNL     1       7.324   6.425  18.270  0.00  0.00    +0.000 OA
ATOM     30  C   UNL     1       8.260   7.469  18.549  0.00  0.00    +0.000 C 
ENDBRANCH  27  29
ENDBRANCH  26  27
ENDBRANCH   1  26
TORSDOF 12
ENDMDL
MODEL 8
REMARK VINA RESULT:      -6.4      3.195      8.338
REMARK  Name = 
REMARK  15 active torsions:
REMARK  status: ('A' for Active; 'I' for Inactive)
REMARK    1  A    between atoms: C_1  and  C_2
REMARK    2  A    between atoms: C_2  and  O_3
REMARK    3  A    between atoms: O_3  and  C_4
REMARK    4  A    between atoms: C_4  and  C_6
REMARK    5  A    between atoms: C_6  and  C_7
REMARK    6  A    between atoms: C_6  and  C_24
REMARK    7  A    between atoms: C_7  and  C_8
REMARK    8  A    between atoms: C_7  and  N_13
REMARK    9  A    between atoms: C_8  and  C_9
REMARK   10  A    between atoms: C_9  and  O_11
REMARK   11  A    between atoms: O_11  and  C_12
REMARK   12  A    between atoms: C_14  and  O_16
REMARK   13  A    between atoms: O_16  and  C_17
REMARK   14  A    between atoms: C_17  and  C_18
REMARK   15  A    between atoms: C_24  and  C_25
REMARK                            x       y       z     vdW  Elec       q    Type
REMARK                         _______ _______ _______ _____ _____    ______ ____
ROOT
ATOM      1  C   UNL     1       2.682   5.470  18.239  0.00  0.00    +0.000 C 
ENDROOT
BRANCH   1   2
ATOM      2  N   UNL     1       2.595   6.562  19.211  0.00  0.00    +0.000 N 
ATOM      3  C   UNL     1       2.160   7.822  18.957  0.00  0.00    +0.000 C 
ATOM      4  O   UNL     1       1.865   8.257  17.853  0.00  0.00    +0.000 OA
ATOM      5  H   UNL     1       2.850   6.379  20.175  0.00  0.00    +0.000 HD
BRANCH   3   6
ATOM      6  O   UNL     1       2.139   8.517  20.119  0.00  0.00    +0.000 OA
BRANCH   6   7
ATOM      7  C   UNL     1       1.076   8.197  21.021  0.00  0.00    +0.000 C 
BRANCH   7   8
ATOM      8  C   UNL     1       0.300   9.405  21.493  0.00  0.00    +0.000 A 
ATOM      9  C   UNL     1       0.010  10.459  20.621  0.00  0.00    +0.000 A 
ATOM     10  C   UNL     1      -0.798  11.526  21.036  0.00  0.00    +0.000 A 
ATOM     11  C   UNL     1      -1.310  11.545  22.335  0.00  0.00    +0.000 A 
ATOM     12  C   UNL     1      -1.005  10.512  23.217  0.00  0.00    +0.000 A 
ATOM     13  C   UNL     1      -0.201   9.452  22.804  0.00  0.00    +0.000 A 
ENDBRANCH   7   8
ENDBRANCH   6   7
ENDBRANCH   3   6
ENDBRANCH   1   2
BRANCH   1  14
ATOM     14  C   UNL     1       4.053   4.725  18.278  0.00  0.00    +0.000 C 
BRANCH  14  15
ATOM     15  C   UNL     1       5.247   5.486  17.653  0.00  0.00    +0.000 C 
ATOM     16  C   UNL     1       4.881   6.447  16.524  0.00  0.00    +0.000 C 
ATOM     17  O   UNL     1       6.192   4.517  17.153  0.00  0.00    +0.000 OA
ATOM     18  C   UNL     1       7.438   4.796  17.790  0.00  0.00    +0.000 C 
ATOM     19  C   UNL     1       7.076   5.554  19.033  0.00  0.00    +0.000 C 
ATOM     20  O   UNL     1       5.918   6.284  18.654  0.00  0.00    +0.000 OA
ENDBRANCH  14  15
BRANCH  14  21
ATOM     21  C   UNL     1       3.922   3.362  17.625  0.00  0.00    +0.000 C 
ATOM     22  O   UNL     1       3.585   3.177  16.459  0.00  0.00    +0.000 OA
BRANCH  21  23
ATOM     23  O   UNL     1       4.178   2.360  18.515  0.00  0.00    +0.000 OA
BRANCH  23  25
ATOM     24  C   UNL     1       4.841   1.508  20.679  0.00  0.00    +0.000 C 
ATOM     25  C   UNL     1       4.534   2.744  19.855  0.00  0.00    +0.000 C 
ENDBRANCH  23  25
ENDBRANCH  21  23
ENDBRANCH  14  21
ENDBRANCH   1  14
BRANCH   1  26
ATOM     26  C   UNL     1       1.470   4.534  18.460  0.00  0.00    +0.000 C 
BRANCH  26  27
ATOM     27  C   UNL     1       1.306   4.106  19.904  0.00  0.00    +0.000 C 
ATOM     28  O   UNL     1       1.354   4.850  20.875  0.00  0.00    +0.000 OA
BRANCH  27  29
ATOM     29  O   UNL     1       1.097   2.762  19.971  0.00  0.00    +0.000 OA
ATOM     30  C   UNL     1       0.672   2.176  18.739  0.00  0.00    +0.000 C 
ENDBRANCH  27  29
ENDBRANCH  26  27
ENDBRANCH   1  26
TORSDOF 12
ENDMDL
MODEL 9
REMARK VINA RESULT:      -6.4      2.060      5.784
REMARK  Name = 
REMARK  15 active torsions:
REMARK  status: ('A' for Active; 'I' for Inactive)
REMARK    1  A    between atoms: C_1  and  C_2
REMARK    2  A    between atoms: C_2  and  O_3
REMARK    3  A    between atoms: O_3  and  C_4
REMARK    4  A    between atoms: C_4  and  C_6
REMARK    5  A    between atoms: C_6  and  C_7
REMARK    6  A    between atoms: C_6  and  C_24
REMARK    7  A    between atoms: C_7  and  C_8
REMARK    8  A    between atoms: C_7  and  N_13
REMARK    9  A    between atoms: C_8  and  C_9
REMARK   10  A    between atoms: C_9  and  O_11
REMARK   11  A    between atoms: O_11  and  C_12
REMARK   12  A    between atoms: C_14  and  O_16
REMARK   13  A    between atoms: O_16  and  C_17
REMARK   14  A    between atoms: C_17  and  C_18
REMARK   15  A    between atoms: C_24  and  C_25
REMARK                            x       y       z     vdW  Elec       q    Type
REMARK                         _______ _______ _______ _____ _____    ______ ____
ROOT
ATOM      1  C   UNL     1       5.565   5.141  17.553  0.00  0.00    +0.000 C 
ENDROOT
BRANCH   1   2
ATOM      2  N   UNL     1       6.605   6.166  17.657  0.00  0.00    +0.000 N 
ATOM      3  C   UNL     1       7.541   6.256  18.636  0.00  0.00    +0.000 C 
ATOM      4  O   UNL     1       7.593   5.544  19.629  0.00  0.00    +0.000 OA
ATOM      5  H   UNL     1       6.672   6.869  16.929  0.00  0.00    +0.000 HD
BRANCH   3   6
ATOM      6  O   UNL     1       8.380   7.277  18.343  0.00  0.00    +0.000 OA
BRANCH   6   7
ATOM      7  C   UNL     1       7.772   8.451  17.799  0.00  0.00    +0.000 C 
BRANCH   7   8
ATOM      8  C   UNL     1       8.400   9.738  18.283  0.00  0.00    +0.000 A 
ATOM      9  C   UNL     1       9.176   9.765  19.446  0.00  0.00    +0.000 A 
ATOM     10  C   UNL     1       9.841  10.936  19.833  0.00  0.00    +0.000 A 
ATOM     11  C   UNL     1       9.719  12.092  19.058  0.00  0.00    +0.000 A 
ATOM     12  C   UNL     1       8.926  12.080  17.912  0.00  0.00    +0.000 A 
ATOM     13  C   UNL     1       8.266  10.914  17.529  0.00  0.00    +0.000 A 
ENDBRANCH   7   8
ENDBRANCH   6   7
ENDBRANCH   3   6
ENDBRANCH   1   2
BRANCH   1  14
ATOM     14  C   UNL     1       4.423   5.322  18.603  0.00  0.00    +0.000 C 
BRANCH  14  15
ATOM     15  C   UNL     1       3.416   4.150  18.706  0.00  0.00    +0.000 C 
ATOM     16  C   UNL     1       2.254   4.208  17.717  0.00  0.00    +0.000 C 
ATOM     17  O   UNL     1       2.886   4.124  20.047  0.00  0.00    +0.000 OA
ATOM     18  C   UNL     1       3.159   2.823  20.569  0.00  0.00    +0.000 C 
ATOM     19  C   UNL     1       4.303   2.309  19.744  0.00  0.00    +0.000 C 
ATOM     20  O   UNL     1       4.082   2.889  18.467  0.00  0.00    +0.000 OA
ENDBRANCH  14  15
BRANCH  14  21
ATOM     21  C   UNL     1       3.673   6.613  18.335  0.00  0.00    +0.000 C 
ATOM     22  O   UNL     1       3.826   7.315  17.339  0.00  0.00    +0.000 OA
BRANCH  21  23
ATOM     23  O   UNL     1       2.839   6.923  19.369  0.00  0.00    +0.000 OA
BRANCH  23  25
ATOM     24  C   UNL     1       1.341   8.416  20.545  0.00  0.00    +0.000 C 
ATOM     25  C   UNL     1       2.016   8.094  19.224  0.00  0.00    +0.000 C 
ENDBRANCH  23  25
ENDBRANCH  21  23
ENDBRANCH  14  21
ENDBRANCH   1  14
BRANCH   1  26
ATOM     26  C   UNL     1       5.056   5.120  16.093  0.00  0.00    +0.000 C 
BRANCH  26  27
ATOM     27  C   UNL     1       6.077   4.575  15.116  0.00  0.00    +0.000 C 
ATOM     28  O   UNL     1       6.156   3.410  14.746  0.00  0.00    +0.000 OA
BRANCH  27  29
ATOM     29  O   UNL     1       6.906   5.573  14.701  0.00  0.00    +0.000 OA
ATOM     30  C   UNL     1       7.719   5.227  13.578  0.00  0.00    +0.000 C 
ENDBRANCH  27  29
ENDBRANCH  26  27
ENDBRANCH   1  26
TORSDOF 12
ENDMDL
