MODEL 1
REMARK VINA RESULT:      -5.6      0.000      0.000
REMARK  Name = 
REMARK  3 active torsions:
REMARK  status: ('A' for Active; 'I' for Inactive)
REMARK    1  A    between atoms: C_2  and  O_3
REMARK    2  A    between atoms: C_2  and  C_4
REMARK    3  A    between atoms: C_4  and  N_5
REMARK                            x       y       z     vdW  Elec       q    Type
REMARK                         _______ _______ _______ _____ _____    ______ ____
ROOT
ATOM      1  N   UNL     1       3.482   5.024  19.081  0.00  0.00    +0.000 NA
ATOM      2  C   UNL     1       2.667   5.618  20.178  0.00  0.00    +0.000 C 
ATOM      3  C   UNL     1       2.172   4.597  21.238  0.00  0.00    +0.000 C 
ATOM      4  N   UNL     1       1.189   3.616  20.782  0.00  0.00    +0.000 NA
ATOM      5  C   UNL     1       1.786   2.450  20.124  0.00  0.00    +0.000 C 
ATOM      6  C   UNL     1       1.166   2.121  18.750  0.00  0.00    +0.000 C 
ATOM      7  N   UNL     1       1.762   2.830  17.612  0.00  0.00    +0.000 NA
ATOM      8  C   UNL     1       1.480   4.266  17.591  0.00  0.00    +0.000 C 
ATOM      9  C   UNL     1       2.750   5.124  17.783  0.00  0.00    +0.000 C 
ATOM     10  H   UNL     1       0.494   4.058  20.190  0.00  0.00    +0.000 HD
ATOM     11  H   UNL     1       1.398   2.411  16.756  0.00  0.00    +0.000 HD
ENDROOT
BRANCH   1  12
ATOM     12  C   UNL     1       4.759   5.789  18.887  0.00  0.00    +0.000 C 
BRANCH  12  14
ATOM     13  O   UNL     1       6.951   5.379  19.868  0.00  0.00    +0.000 OA
ATOM     14  C   UNL     1       5.989   4.955  19.244  0.00  0.00    +0.000 C 
BRANCH  14  15
ATOM     15  O   UNL     1       5.927   3.705  18.731  0.00  0.00    +0.000 OA
ATOM     16  H   UNL     1       5.065   3.316  19.011  0.00  0.00    +0.000 HD
ENDBRANCH  14  15
ENDBRANCH  12  14
ENDBRANCH   1  12
TORSDOF 3
ENDMDL
MODEL 2
REMARK VINA RESULT:      -5.5      2.938      5.127
REMARK  Name = 
REMARK  3 active torsions:
REMARK  status: ('A' for Active; 'I' for Inactive)
REMARK    1  A    between atoms: C_2  and  O_3
REMARK    2  A    between atoms: C_2  and  C_4
REMARK    3  A    between atoms: C_4  and  N_5
REMARK                            x       y       z     vdW  Elec       q    Type
REMARK                         _______ _______ _______ _____ _____    ______ ____
ROOT
ATOM      1  N   UNL     1       3.868   5.496  17.865  0.00  0.00    +0.000 NA
ATOM      2  C   UNL     1       4.133   6.852  17.309  0.00  0.00    +0.000 C 
ATOM      3  C   UNL     1       5.030   6.866  16.042  0.00  0.00    +0.000 C 
ATOM      4  N   UNL     1       6.423   6.465  16.231  0.00  0.00    +0.000 NA
ATOM      5  C   UNL     1       6.624   5.014  16.203  0.00  0.00    +0.000 C 
ATOM      6  C   UNL     1       7.424   4.469  17.406  0.00  0.00    +0.000 C 
ATOM      7  N   UNL     1       6.621   4.143  18.590  0.00  0.00    +0.000 NA
ATOM      8  C   UNL     1       6.059   5.312  19.269  0.00  0.00    +0.000 C 
ATOM      9  C   UNL     1       4.516   5.353  19.203  0.00  0.00    +0.000 C 
ATOM     10  H   UNL     1       6.798   6.874  17.081  0.00  0.00    +0.000 HD
ATOM     11  H   UNL     1       7.220   3.639  19.245  0.00  0.00    +0.000 HD
ENDROOT
BRANCH   1  12
ATOM     12  C   UNL     1       2.400   5.289  18.100  0.00  0.00    +0.000 C 
BRANCH  12  14
ATOM     13  O   UNL     1       2.256   3.152  16.940  0.00  0.00    +0.000 OA
ATOM     14  C   UNL     1       1.990   3.828  17.923  0.00  0.00    +0.000 C 
BRANCH  14  15
ATOM     15  O   UNL     1       1.235   3.379  18.952  0.00  0.00    +0.000 OA
ATOM     16  H   UNL     1       1.633   3.731  19.782  0.00  0.00    +0.000 HD
ENDBRANCH  14  15
ENDBRANCH  12  14
ENDBRANCH   1  12
TORSDOF 3
ENDMDL
MODEL 3
REMARK VINA RESULT:      -5.4      2.005      2.290
REMARK  Name = 
REMARK  3 active torsions:
REMARK  status: ('A' for Active; 'I' for Inactive)
REMARK    1  A    between atoms: C_2  and  O_3
REMARK    2  A    between atoms: C_2  and  C_4
REMARK    3  A    between atoms: C_4  and  N_5
REMARK                            x       y       z     vdW  Elec       q    Type
REMARK                         _______ _______ _______ _____ _____    ______ ____
ROOT
ATOM      1  N   UNL     1       4.391   4.635  17.768  0.00  0.00    +0.000 NA
ATOM      2  C   UNL     1       4.886   4.385  19.151  0.00  0.00    +0.000 C 
ATOM      3  C   UNL     1       4.697   2.928  19.651  0.00  0.00    +0.000 C 
ATOM      4  N   UNL     1       3.318   2.490  19.863  0.00  0.00    +0.000 NA
ATOM      5  C   UNL     1       2.657   2.022  18.641  0.00  0.00    +0.000 C 
ATOM      6  C   UNL     1       1.281   2.672  18.386  0.00  0.00    +0.000 C 
ATOM      7  N   UNL     1       1.319   3.941  17.652  0.00  0.00    +0.000 NA
ATOM      8  C   UNL     1       1.897   5.051  18.410  0.00  0.00    +0.000 C 
ATOM      9  C   UNL     1       3.221   5.563  17.800  0.00  0.00    +0.000 C 
ATOM     10  H   UNL     1       2.779   3.220  20.318  0.00  0.00    +0.000 HD
ATOM     11  H   UNL     1       0.361   4.183  17.394  0.00  0.00    +0.000 HD
ENDROOT
BRANCH   1  12
ATOM     12  C   UNL     1       5.435   5.325  16.940  0.00  0.00    +0.000 C 
BRANCH  12  14
ATOM     13  O   UNL     1       7.736   4.595  16.616  0.00  0.00    +0.000 OA
ATOM     14  C   UNL     1       6.541   4.369  16.496  0.00  0.00    +0.000 C 
BRANCH  14  15
ATOM     15  O   UNL     1       6.050   3.265  15.887  0.00  0.00    +0.000 OA
ATOM     16  H   UNL     1       6.035   3.447  14.918  0.00  0.00    +0.000 HD
ENDBRANCH  14  15
ENDBRANCH  12  14
ENDBRANCH   1  12
TORSDOF 3
ENDMDL
MODEL 4
REMARK VINA RESULT:      -5.4      1.363      1.901
REMARK  Name = 
REMARK  3 active torsions:
REMARK  status: ('A' for Active; 'I' for Inactive)
REMARK    1  A    between atoms: C_2  and  O_3
REMARK    2  A    between atoms: C_2  and  C_4
REMARK    3  A    between atoms: C_4  and  N_5
REMARK                            x       y       z     vdW  Elec       q    Type
REMARK                         _______ _______ _______ _____ _____    ______ ____
ROOT
ATOM      1  N   UNL     1       3.462   4.219  18.233  0.00  0.00    +0.000 NA
ATOM      2  C   UNL     1       2.808   5.557  18.305  0.00  0.00    +0.000 C 
ATOM      3  C   UNL     1       2.575   6.083  19.746  0.00  0.00    +0.000 C 
ATOM      4  N   UNL     1       1.598   5.353  20.553  0.00  0.00    +0.000 NA
ATOM      5  C   UNL     1       2.153   4.167  21.212  0.00  0.00    +0.000 C 
ATOM      6  C   UNL     1       1.329   2.882  20.984  0.00  0.00    +0.000 C 
ATOM      7  N   UNL     1       1.671   2.132  19.770  0.00  0.00    +0.000 NA
ATOM      8  C   UNL     1       1.290   2.805  18.527  0.00  0.00    +0.000 C 
ATOM      9  C   UNL     1       2.512   3.212  17.673  0.00  0.00    +0.000 C 
ATOM     10  H   UNL     1       0.783   5.119  19.996  0.00  0.00    +0.000 HD
ATOM     11  H   UNL     1       1.194   1.230  19.814  0.00  0.00    +0.000 HD
ENDROOT
BRANCH   1  12
ATOM     12  C   UNL     1       4.630   4.243  17.291  0.00  0.00    +0.000 C 
BRANCH  12  14
ATOM     13  O   UNL     1       6.075   4.563  19.225  0.00  0.00    +0.000 OA
ATOM     14  C   UNL     1       5.964   4.327  18.031  0.00  0.00    +0.000 C 
BRANCH  14  15
ATOM     15  O   UNL     1       7.022   4.177  17.201  0.00  0.00    +0.000 OA
ATOM     16  H   UNL     1       7.588   3.462  17.574  0.00  0.00    +0.000 HD
ENDBRANCH  14  15
ENDBRANCH  12  14
ENDBRANCH   1  12
TORSDOF 3
ENDMDL
MODEL 5
REMARK VINA RESULT:      -5.4      2.992      5.226
REMARK  Name = 
REMARK  3 active torsions:
REMARK  status: ('A' for Active; 'I' for Inactive)
REMARK    1  A    between atoms: C_2  and  O_3
REMARK    2  A    between atoms: C_2  and  C_4
REMARK    3  A    between atoms: C_4  and  N_5
REMARK                            x       y       z     vdW  Elec       q    Type
REMARK                         _______ _______ _______ _____ _____    ______ ____
ROOT
ATOM      1  N   UNL     1       4.622   3.719  17.485  0.00  0.00    +0.000 NA
ATOM      2  C   UNL     1       4.881   4.274  16.127  0.00  0.00    +0.000 C 
ATOM      3  C   UNL     1       6.367   4.217  15.680  0.00  0.00    +0.000 C 
ATOM      4  N   UNL     1       7.297   5.073  16.414  0.00  0.00    +0.000 NA
ATOM      5  C   UNL     1       7.782   4.476  17.661  0.00  0.00    +0.000 C 
ATOM      6  C   UNL     1       7.640   5.397  18.892  0.00  0.00    +0.000 C 
ATOM      7  N   UNL     1       6.347   5.319  19.581  0.00  0.00    +0.000 NA
ATOM      8  C   UNL     1       5.231   5.878  18.816  0.00  0.00    +0.000 C 
ATOM      9  C   UNL     1       4.192   4.807  18.413  0.00  0.00    +0.000 C 
ATOM     10  H   UNL     1       6.886   5.987  16.577  0.00  0.00    +0.000 HD
ATOM     11  H   UNL     1       6.430   5.830  20.461  0.00  0.00    +0.000 HD
ENDROOT
BRANCH   1  12
ATOM     12  C   UNL     1       3.487   2.738  17.456  0.00  0.00    +0.000 C 
BRANCH  12  14
ATOM     13  O   UNL     1       2.877   2.021  19.703  0.00  0.00    +0.000 OA
ATOM     14  C   UNL     1       3.496   1.810  18.670  0.00  0.00    +0.000 C 
BRANCH  14  15
ATOM     15  O   UNL     1       4.327   0.755  18.503  0.00  0.00    +0.000 OA
ATOM     16  H   UNL     1       4.408   0.305  19.376  0.00  0.00    +0.000 HD
ENDBRANCH  14  15
ENDBRANCH  12  14
ENDBRANCH   1  12
TORSDOF 3
ENDMDL
MODEL 6
REMARK VINA RESULT:      -5.4      2.947      5.038
REMARK  Name = 
REMARK  3 active torsions:
REMARK  status: ('A' for Active; 'I' for Inactive)
REMARK    1  A    between atoms: C_2  and  O_3
REMARK    2  A    between atoms: C_2  and  C_4
REMARK    3  A    between atoms: C_4  and  N_5
REMARK                            x       y       z     vdW  Elec       q    Type
REMARK                         _______ _______ _______ _____ _____    ______ ____
ROOT
ATOM      1  N   UNL     1       5.027   4.670  18.326  0.00  0.00    +0.000 NA
ATOM      2  C   UNL     1       4.644   6.105  18.206  0.00  0.00    +0.000 C 
ATOM      3  C   UNL     1       4.326   6.568  16.758  0.00  0.00    +0.000 C 
ATOM      4  N   UNL     1       5.450   6.594  15.824  0.00  0.00    +0.000 NA
ATOM      5  C   UNL     1       5.732   5.293  15.211  0.00  0.00    +0.000 C 
ATOM      6  C   UNL     1       7.210   4.861  15.309  0.00  0.00    +0.000 C 
ATOM      7  N   UNL     1       7.568   4.145  16.538  0.00  0.00    +0.000 NA
ATOM      8  C   UNL     1       7.550   4.979  17.741  0.00  0.00    +0.000 C 
ATOM      9  C   UNL     1       6.456   4.552  18.745  0.00  0.00    +0.000 C 
ATOM     10  H   UNL     1       6.276   6.977  16.273  0.00  0.00    +0.000 HD
ATOM     11  H   UNL     1       8.508   3.764  16.417  0.00  0.00    +0.000 HD
ENDROOT
BRANCH   1  12
ATOM     12  C   UNL     1       4.231   3.991  19.402  0.00  0.00    +0.000 C 
BRANCH  12  14
ATOM     13  O   UNL     1       3.410   1.919  18.420  0.00  0.00    +0.000 OA
ATOM     14  C   UNL     1       4.166   2.478  19.202  0.00  0.00    +0.000 C 
BRANCH  14  15
ATOM     15  O   UNL     1       4.995   1.814  20.039  0.00  0.00    +0.000 OA
ATOM     16  H   UNL     1       4.460   1.527  20.815  0.00  0.00    +0.000 HD
ENDBRANCH  14  15
ENDBRANCH  12  14
ENDBRANCH   1  12
TORSDOF 3
ENDMDL
MODEL 7
REMARK VINA RESULT:      -5.3      1.161      1.247
REMARK  Name = 
REMARK  3 active torsions:
REMARK  status: ('A' for Active; 'I' for Inactive)
REMARK    1  A    between atoms: C_2  and  O_3
REMARK    2  A    between atoms: C_2  and  C_4
REMARK    3  A    between atoms: C_4  and  N_5
REMARK                            x       y       z     vdW  Elec       q    Type
REMARK                         _______ _______ _______ _____ _____    ______ ____
ROOT
ATOM      1  N   UNL     1       4.172   5.014  18.417  0.00  0.00    +0.000 NA
ATOM      2  C   UNL     1       3.095   5.985  18.759  0.00  0.00    +0.000 C 
ATOM      3  C   UNL     1       2.332   5.665  20.073  0.00  0.00    +0.000 C 
ATOM      4  N   UNL     1       1.505   4.460  20.065  0.00  0.00    +0.000 NA
ATOM      5  C   UNL     1       2.254   3.233  20.350  0.00  0.00    +0.000 C 
ATOM      6  C   UNL     1       2.023   2.105  19.323  0.00  0.00    +0.000 C 
ATOM      7  N   UNL     1       2.903   2.142  18.150  0.00  0.00    +0.000 NA
ATOM      8  C   UNL     1       2.640   3.260  17.243  0.00  0.00    +0.000 C 
ATOM      9  C   UNL     1       3.814   4.262  17.178  0.00  0.00    +0.000 C 
ATOM     10  H   UNL     1       0.994   4.385  19.191  0.00  0.00    +0.000 HD
ATOM     11  H   UNL     1       2.780   1.267  17.638  0.00  0.00    +0.000 HD
ENDROOT
BRANCH   1  12
ATOM     12  C   UNL     1       5.456   5.726  18.104  0.00  0.00    +0.000 C 
BRANCH  12  14
ATOM     13  O   UNL     1       7.020   5.399  19.942  0.00  0.00    +0.000 OA
ATOM     14  C   UNL     1       6.652   5.096  18.817  0.00  0.00    +0.000 C 
BRANCH  14  15
ATOM     15  O   UNL     1       7.306   4.208  18.033  0.00  0.00    +0.000 OA
ATOM     16  H   UNL     1       7.449   3.394  18.570  0.00  0.00    +0.000 HD
ENDBRANCH  14  15
ENDBRANCH  12  14
ENDBRANCH   1  12
TORSDOF 3
ENDMDL
MODEL 8
REMARK VINA RESULT:      -5.3      1.847      2.076
REMARK  Name = 
REMARK  3 active torsions:
REMARK  status: ('A' for Active; 'I' for Inactive)
REMARK    1  A    between atoms: C_2  and  O_3
REMARK    2  A    between atoms: C_2  and  C_4
REMARK    3  A    between atoms: C_4  and  N_5
REMARK                            x       y       z     vdW  Elec       q    Type
REMARK                         _______ _______ _______ _____ _____    ______ ____
ROOT
ATOM      1  N   UNL     1       4.565   3.993  17.706  0.00  0.00    +0.000 NA
ATOM      2  C   UNL     1       4.975   3.889  19.135  0.00  0.00    +0.000 C 
ATOM      3  C   UNL     1       4.453   2.621  19.865  0.00  0.00    +0.000 C 
ATOM      4  N   UNL     1       3.009   2.545  20.078  0.00  0.00    +0.000 NA
ATOM      5  C   UNL     1       2.273   2.027  18.921  0.00  0.00    +0.000 C 
ATOM      6  C   UNL     1       1.083   2.909  18.488  0.00  0.00    +0.000 C 
ATOM      7  N   UNL     1       1.417   3.988  17.552  0.00  0.00    +0.000 NA
ATOM      8  C   UNL     1       2.224   5.059  18.139  0.00  0.00    +0.000 C 
ATOM      9  C   UNL     1       3.637   5.147  17.520  0.00  0.00    +0.000 C 
ATOM     10  H   UNL     1       2.645   3.445  20.373  0.00  0.00    +0.000 HD
ATOM     11  H   UNL     1       0.543   4.387  17.208  0.00  0.00    +0.000 HD
ENDROOT
BRANCH   1  12
ATOM     12  C   UNL     1       5.748   4.276  16.828  0.00  0.00    +0.000 C 
BRANCH  12  14
ATOM     13  O   UNL     1       6.933   6.092  17.939  0.00  0.00    +0.000 OA
ATOM     14  C   UNL     1       6.899   4.917  17.602  0.00  0.00    +0.000 C 
BRANCH  14  15
ATOM     15  O   UNL     1       7.917   4.052  17.818  0.00  0.00    +0.000 OA
ATOM     16  H   UNL     1       7.884   3.377  17.101  0.00  0.00    +0.000 HD
ENDBRANCH  14  15
ENDBRANCH  12  14
ENDBRANCH   1  12
TORSDOF 3
ENDMDL
MODEL 9
REMARK VINA RESULT:      -5.3      1.705      2.098
REMARK  Name = 
REMARK  3 active torsions:
REMARK  status: ('A' for Active; 'I' for Inactive)
REMARK    1  A    between atoms: C_2  and  O_3
REMARK    2  A    between atoms: C_2  and  C_4
REMARK    3  A    between atoms: C_4  and  N_5
REMARK                            x       y       z     vdW  Elec       q    Type
REMARK                         _______ _______ _______ _____ _____    ______ ____
ROOT
ATOM      1  N   UNL     1       4.377   4.839  17.693  0.00  0.00    +0.000 NA
ATOM      2  C   UNL     1       3.411   5.957  17.884  0.00  0.00    +0.000 C 
ATOM      3  C   UNL     1       2.934   6.154  19.348  0.00  0.00    +0.000 C 
ATOM      4  N   UNL     1       2.102   5.090  19.907  0.00  0.00    +0.000 NA
ATOM      5  C   UNL     1       2.873   3.964  20.443  0.00  0.00    +0.000 C 
ATOM      6  C   UNL     1       2.413   2.586  19.923  0.00  0.00    +0.000 C 
ATOM      7  N   UNL     1       3.031   2.160  18.663  0.00  0.00    +0.000 NA
ATOM      8  C   UNL     1       2.604   2.936  17.497  0.00  0.00    +0.000 C 
ATOM      9  C   UNL     1       3.756   3.756  16.874  0.00  0.00    +0.000 C 
ATOM     10  H   UNL     1       1.419   4.777  19.224  0.00  0.00    +0.000 HD
ATOM     11  H   UNL     1       2.788   1.180  18.511  0.00  0.00    +0.000 HD
ENDROOT
BRANCH   1  12
ATOM     12  C   UNL     1       5.580   5.295  16.919  0.00  0.00    +0.000 C 
BRANCH  12  14
ATOM     13  O   UNL     1       7.865   4.479  16.713  0.00  0.00    +0.000 OA
ATOM     14  C   UNL     1       6.863   4.618  17.398  0.00  0.00    +0.000 C 
BRANCH  14  15
ATOM     15  O   UNL     1       6.745   4.124  18.652  0.00  0.00    +0.000 OA
ATOM     16  H   UNL     1       7.540   3.569  18.825  0.00  0.00    +0.000 HD
ENDBRANCH  14  15
ENDBRANCH  12  14
ENDBRANCH   1  12
TORSDOF 3
ENDMDL
