MODEL 1
REMARK VINA RESULT:      -7.2      0.000      0.000
REMARK  Name = 
REMARK  7 active torsions:
REMARK  status: ('A' for Active; 'I' for Inactive)
REMARK    1  A    between atoms: C_1  and  C_2
REMARK    2  A    between atoms: C_7  and  C_8
REMARK    3  A    between atoms: N_10  and  C_11
REMARK    4  A    between atoms: C_11  and  N_12
REMARK    5  A    between atoms: C_11  and  C_19
REMARK    6  A    between atoms: N_12  and  C_13
REMARK    7  A    between atoms: C_13  and  C_14
REMARK                            x       y       z     vdW  Elec       q    Type
REMARK                         _______ _______ _______ _____ _____    ______ ____
ROOT
ATOM      1  C   UNL     1       5.311   5.056  19.132  0.00  0.00    +0.000 C 
ENDROOT
BRANCH   1   4
ATOM      2  C   UNL     1       3.110   6.242  18.842  0.00  0.00    +0.000 C 
ATOM      3  O   UNL     1       2.752   5.637  17.845  0.00  0.00    +0.000 OA
ATOM      4  N   UNL     1       4.319   6.065  19.490  0.00  0.00    +0.000 N 
ATOM      5  H   UNL     1       4.505   6.627  20.309  0.00  0.00    +0.000 HD
BRANCH   2  12
ATOM      6  C   UNL     1       2.382   8.860  17.537  0.00  0.00    +0.000 C 
ATOM      7  C   UNL     1       1.900   8.473  18.905  0.00  0.00    +0.000 A 
ATOM      8  C   UNL     1       1.078   9.363  19.615  0.00  0.00    +0.000 A 
ATOM      9  C   UNL     1       0.589   9.044  20.885  0.00  0.00    +0.000 A 
ATOM     10  C   UNL     1       0.899   7.819  21.462  0.00  0.00    +0.000 A 
ATOM     11  C   UNL     1       1.706   6.917  20.771  0.00  0.00    +0.000 A 
ATOM     12  C   UNL     1       2.221   7.239  19.505  0.00  0.00    +0.000 A 
ENDBRANCH   2  12
ENDBRANCH   1   4
BRANCH   1  13
ATOM     13  C   UNL     1       6.463   5.633  18.157  0.00  0.00    +0.000 C 
ATOM     14 CL   UNL     1       7.035   4.383  16.969  0.00  0.00    +0.000 Cl
ATOM     15 CL   UNL     1       5.846   7.027  17.199  0.00  0.00    +0.000 Cl
ATOM     16 CL   UNL     1       7.952   6.165  19.034  0.00  0.00    +0.000 Cl
ENDBRANCH   1  13
BRANCH   1  17
ATOM     17  N   UNL     1       4.481   3.943  18.672  0.00  0.00    +0.000 NA
ATOM     18  H   UNL     1       4.784   3.612  17.754  0.00  0.00    +0.000 HD
BRANCH  17  19
ATOM     19  C   UNL     1       4.416   2.802  19.586  0.00  0.00    +0.000 C 
BRANCH  19  20
ATOM     20  C   UNL     1       2.958   2.332  19.740  0.00  0.00    +0.000 C 
ATOM     21  C   UNL     1       2.224   2.267  18.410  0.00  0.00    +0.000 C 
ATOM     22  C   UNL     1       0.788   2.436  18.842  0.00  0.00    +0.000 C 
ATOM     23  C   UNL     1       0.905   3.421  19.985  0.00  0.00    +0.000 C 
ATOM     24  O   UNL     1       2.214   3.271  20.551  0.00  0.00    +0.000 OA
ENDBRANCH  19  20
ENDBRANCH  17  19
ENDBRANCH   1  17
TORSDOF 6
ENDMDL
MODEL 2
REMARK VINA RESULT:      -7.0      0.553      1.268
REMARK  Name = 
REMARK  7 active torsions:
REMARK  status: ('A' for Active; 'I' for Inactive)
REMARK    1  A    between atoms: C_1  and  C_2
REMARK    2  A    between atoms: C_7  and  C_8
REMARK    3  A    between atoms: N_10  and  C_11
REMARK    4  A    between atoms: C_11  and  N_12
REMARK    5  A    between atoms: C_11  and  C_19
REMARK    6  A    between atoms: N_12  and  C_13
REMARK    7  A    between atoms: C_13  and  C_14
REMARK                            x       y       z     vdW  Elec       q    Type
REMARK                         _______ _______ _______ _____ _____    ______ ____
ROOT
ATOM      1  C   UNL     1       5.213   5.176  18.533  0.00  0.00    +0.000 C 
ENDROOT
BRANCH   1   4
ATOM      2  C   UNL     1       2.944   6.261  18.620  0.00  0.00    +0.000 C 
ATOM      3  O   UNL     1       2.433   5.597  17.734  0.00  0.00    +0.000 OA
ATOM      4  N   UNL     1       4.260   6.162  19.033  0.00  0.00    +0.000 N 
ATOM      5  H   UNL     1       4.571   6.770  19.778  0.00  0.00    +0.000 HD
BRANCH   2  12
ATOM      6  C   UNL     1       2.256   8.984  17.523  0.00  0.00    +0.000 C 
ATOM      7  C   UNL     1       1.849   8.535  18.897  0.00  0.00    +0.000 A 
ATOM      8  C   UNL     1       1.119   9.416  19.713  0.00  0.00    +0.000 A 
ATOM      9  C   UNL     1       0.702   9.041  20.993  0.00  0.00    +0.000 A 
ATOM     10  C   UNL     1       0.992   7.770  21.475  0.00  0.00    +0.000 A 
ATOM     11  C   UNL     1       1.706   6.878  20.678  0.00  0.00    +0.000 A 
ATOM     12  C   UNL     1       2.150   7.254  19.400  0.00  0.00    +0.000 A 
ENDBRANCH   2  12
ENDBRANCH   1   4
BRANCH   1  13
ATOM     13  C   UNL     1       6.095   5.733  17.299  0.00  0.00    +0.000 C 
ATOM     14 CL   UNL     1       7.337   6.943  17.844  0.00  0.00    +0.000 Cl
ATOM     15 CL   UNL     1       6.986   4.390  16.496  0.00  0.00    +0.000 Cl
ATOM     16 CL   UNL     1       5.119   6.594  16.043  0.00  0.00    +0.000 Cl
ENDBRANCH   1  13
BRANCH   1  17
ATOM     17  N   UNL     1       4.374   3.996  18.331  0.00  0.00    +0.000 NA
ATOM     18  H   UNL     1       4.589   3.537  17.444  0.00  0.00    +0.000 HD
BRANCH  17  19
ATOM     19  C   UNL     1       4.437   3.003  19.403  0.00  0.00    +0.000 C 
BRANCH  19  20
ATOM     20  C   UNL     1       3.035   2.423  19.670  0.00  0.00    +0.000 C 
ATOM     21  C   UNL     1       2.233   2.231  18.393  0.00  0.00    +0.000 C 
ATOM     22  C   UNL     1       0.816   2.304  18.906  0.00  0.00    +0.000 C 
ATOM     23  C   UNL     1       0.916   3.352  19.993  0.00  0.00    +0.000 C 
ATOM     24  O   UNL     1       2.264   3.338  20.482  0.00  0.00    +0.000 OA
ENDBRANCH  19  20
ENDBRANCH  17  19
ENDBRANCH   1  17
TORSDOF 6
ENDMDL
MODEL 3
REMARK VINA RESULT:      -7.0      0.551      1.074
REMARK  Name = 
REMARK  7 active torsions:
REMARK  status: ('A' for Active; 'I' for Inactive)
REMARK    1  A    between atoms: C_1  and  C_2
REMARK    2  A    between atoms: C_7  and  C_8
REMARK    3  A    between atoms: N_10  and  C_11
REMARK    4  A    between atoms: C_11  and  N_12
REMARK    5  A    between atoms: C_11  and  C_19
REMARK    6  A    between atoms: N_12  and  C_13
REMARK    7  A    between atoms: C_13  and  C_14
REMARK                            x       y       z     vdW  Elec       q    Type
REMARK                         _______ _______ _______ _____ _____    ______ ____
ROOT
ATOM      1  C   UNL     1       5.276   5.146  18.527  0.00  0.00    +0.000 C 
ENDROOT
BRANCH   1   4
ATOM      2  C   UNL     1       2.993   6.201  18.610  0.00  0.00    +0.000 C 
ATOM      3  O   UNL     1       2.490   5.524  17.729  0.00  0.00    +0.000 OA
ATOM      4  N   UNL     1       4.310   6.122  19.021  0.00  0.00    +0.000 N 
ATOM      5  H   UNL     1       4.614   6.739  19.762  0.00  0.00    +0.000 HD
BRANCH   2  12
ATOM      6  C   UNL     1       2.320   8.930  17.520  0.00  0.00    +0.000 C 
ATOM      7  C   UNL     1       1.892   8.473  18.884  0.00  0.00    +0.000 A 
ATOM      8  C   UNL     1       1.150   9.348  19.695  0.00  0.00    +0.000 A 
ATOM      9  C   UNL     1       0.714   8.966  20.966  0.00  0.00    +0.000 A 
ATOM     10  C   UNL     1       0.997   7.692  21.444  0.00  0.00    +0.000 A 
ATOM     11  C   UNL     1       1.724   6.805  20.652  0.00  0.00    +0.000 A 
ATOM     12  C   UNL     1       2.187   7.189  19.384  0.00  0.00    +0.000 A 
ENDBRANCH   2  12
ENDBRANCH   1   4
BRANCH   1  13
ATOM     13  C   UNL     1       6.143   5.702  17.282  0.00  0.00    +0.000 C 
ATOM     14 CL   UNL     1       5.105   6.566  16.065  0.00  0.00    +0.000 Cl
ATOM     15 CL   UNL     1       7.384   6.878  17.845  0.00  0.00    +0.000 Cl
ATOM     16 CL   UNL     1       6.981   4.400  16.347  0.00  0.00    +0.000 Cl
ENDBRANCH   1  13
BRANCH   1  17
ATOM     17  N   UNL     1       4.454   3.950  18.343  0.00  0.00    +0.000 NA
ATOM     18  H   UNL     1       4.716   3.449  17.492  0.00  0.00    +0.000 HD
BRANCH  17  19
ATOM     19  C   UNL     1       4.469   3.013  19.466  0.00  0.00    +0.000 C 
BRANCH  19  20
ATOM     20  C   UNL     1       3.066   2.411  19.670  0.00  0.00    +0.000 C 
ATOM     21  C   UNL     1       2.301   2.263  18.365  0.00  0.00    +0.000 C 
ATOM     22  C   UNL     1       0.869   2.304  18.841  0.00  0.00    +0.000 C 
ATOM     23  C   UNL     1       0.930   3.308  19.971  0.00  0.00    +0.000 C 
ATOM     24  O   UNL     1       2.264   3.286  20.497  0.00  0.00    +0.000 OA
ENDBRANCH  19  20
ENDBRANCH  17  19
ENDBRANCH   1  17
TORSDOF 6
ENDMDL
MODEL 4
REMARK VINA RESULT:      -7.0      3.069      6.203
REMARK  Name = 
REMARK  7 active torsions:
REMARK  status: ('A' for Active; 'I' for Inactive)
REMARK    1  A    between atoms: C_1  and  C_2
REMARK    2  A    between atoms: C_7  and  C_8
REMARK    3  A    between atoms: N_10  and  C_11
REMARK    4  A    between atoms: C_11  and  N_12
REMARK    5  A    between atoms: C_11  and  C_19
REMARK    6  A    between atoms: N_12  and  C_13
REMARK    7  A    between atoms: C_13  and  C_14
REMARK                            x       y       z     vdW  Elec       q    Type
REMARK                         _______ _______ _______ _____ _____    ______ ____
ROOT
ATOM      1  C   UNL     1       3.245   5.032  19.560  0.00  0.00    +0.000 C 
ENDROOT
BRANCH   1   4
ATOM      2  C   UNL     1       5.328   4.473  18.264  0.00  0.00    +0.000 C 
ATOM      3  O   UNL     1       5.857   3.795  19.128  0.00  0.00    +0.000 OA
ATOM      4  N   UNL     1       4.119   5.130  18.395  0.00  0.00    +0.000 N 
ATOM      5  H   UNL     1       3.782   5.666  17.607  0.00  0.00    +0.000 HD
BRANCH   2  12
ATOM      6  C   UNL     1       7.441   6.546  17.692  0.00  0.00    +0.000 C 
ATOM      7  C   UNL     1       6.915   5.611  16.641  0.00  0.00    +0.000 A 
ATOM      8  C   UNL     1       7.421   5.702  15.333  0.00  0.00    +0.000 A 
ATOM      9  C   UNL     1       6.977   4.845  14.323  0.00  0.00    +0.000 A 
ATOM     10  C   UNL     1       6.030   3.868  14.606  0.00  0.00    +0.000 A 
ATOM     11  C   UNL     1       5.523   3.755  15.899  0.00  0.00    +0.000 A 
ATOM     12  C   UNL     1       5.945   4.627  16.915  0.00  0.00    +0.000 A 
ENDBRANCH   2  12
ENDBRANCH   1   4
BRANCH   1  13
ATOM     13  C   UNL     1       2.043   3.973  19.349  0.00  0.00    +0.000 C 
ATOM     14 CL   UNL     1       0.706   4.215  20.556  0.00  0.00    +0.000 Cl
ATOM     15 CL   UNL     1       1.313   4.155  17.713  0.00  0.00    +0.000 Cl
ATOM     16 CL   UNL     1       2.554   2.250  19.550  0.00  0.00    +0.000 Cl
ENDBRANCH   1  13
BRANCH   1  17
ATOM     17  N   UNL     1       2.920   6.431  19.832  0.00  0.00    +0.000 NA
ATOM     18  H   UNL     1       3.535   6.820  20.550  0.00  0.00    +0.000 HD
BRANCH  17  19
ATOM     19  C   UNL     1       2.945   7.310  18.663  0.00  0.00    +0.000 C 
BRANCH  19  20
ATOM     20  C   UNL     1       1.685   8.196  18.641  0.00  0.00    +0.000 C 
ATOM     21  C   UNL     1       1.895   9.487  17.867  0.00  0.00    +0.000 C 
ATOM     22  C   UNL     1       0.871  10.396  18.501  0.00  0.00    +0.000 C 
ATOM     23  C   UNL     1       0.907   9.967  19.951  0.00  0.00    +0.000 C 
ATOM     24  O   UNL     1       1.335   8.598  19.985  0.00  0.00    +0.000 OA
ENDBRANCH  19  20
ENDBRANCH  17  19
ENDBRANCH   1  17
TORSDOF 6
ENDMDL
MODEL 5
REMARK VINA RESULT:      -7.0      3.046      6.178
REMARK  Name = 
REMARK  7 active torsions:
REMARK  status: ('A' for Active; 'I' for Inactive)
REMARK    1  A    between atoms: C_1  and  C_2
REMARK    2  A    between atoms: C_7  and  C_8
REMARK    3  A    between atoms: N_10  and  C_11
REMARK    4  A    between atoms: C_11  and  N_12
REMARK    5  A    between atoms: C_11  and  C_19
REMARK    6  A    between atoms: N_12  and  C_13
REMARK    7  A    between atoms: C_13  and  C_14
REMARK                            x       y       z     vdW  Elec       q    Type
REMARK                         _______ _______ _______ _____ _____    ______ ____
ROOT
ATOM      1  C   UNL     1       3.300   5.200  19.778  0.00  0.00    +0.000 C 
ENDROOT
BRANCH   1   4
ATOM      2  C   UNL     1       5.339   4.586  18.437  0.00  0.00    +0.000 C 
ATOM      3  O   UNL     1       5.892   3.934  19.308  0.00  0.00    +0.000 OA
ATOM      4  N   UNL     1       4.137   5.253  18.584  0.00  0.00    +0.000 N 
ATOM      5  H   UNL     1       3.778   5.764  17.789  0.00  0.00    +0.000 HD
BRANCH   2  12
ATOM      6  C   UNL     1       7.426   6.641  17.723  0.00  0.00    +0.000 C 
ATOM      7  C   UNL     1       6.872   5.666  16.725  0.00  0.00    +0.000 A 
ATOM      8  C   UNL     1       7.336   5.709  15.400  0.00  0.00    +0.000 A 
ATOM      9  C   UNL     1       6.865   4.814  14.437  0.00  0.00    +0.000 A 
ATOM     10  C   UNL     1       5.931   3.845  14.785  0.00  0.00    +0.000 A 
ATOM     11  C   UNL     1       5.463   3.780  16.096  0.00  0.00    +0.000 A 
ATOM     12  C   UNL     1       5.913   4.690  17.065  0.00  0.00    +0.000 A 
ENDBRANCH   2  12
ENDBRANCH   1   4
BRANCH   1  13
ATOM     13  C   UNL     1       2.288   3.940  19.773  0.00  0.00    +0.000 C 
ATOM     14 CL   UNL     1       2.972   2.518  20.675  0.00  0.00    +0.000 Cl
ATOM     15 CL   UNL     1       0.732   4.369  20.569  0.00  0.00    +0.000 Cl
ATOM     16 CL   UNL     1       1.922   3.314  18.116  0.00  0.00    +0.000 Cl
ENDBRANCH   1  13
BRANCH   1  17
ATOM     17  N   UNL     1       2.749   6.553  19.841  0.00  0.00    +0.000 NA
ATOM     18  H   UNL     1       3.323   7.158  20.432  0.00  0.00    +0.000 HD
BRANCH  17  19
ATOM     19  C   UNL     1       2.558   7.203  18.545  0.00  0.00    +0.000 C 
BRANCH  19  20
ATOM     20  C   UNL     1       2.085   8.655  18.747  0.00  0.00    +0.000 C 
ATOM     21  C   UNL     1       1.238   8.822  19.998  0.00  0.00    +0.000 C 
ATOM     22  C   UNL     1       0.410  10.035  19.650  0.00  0.00    +0.000 C 
ATOM     23  C   UNL     1       0.158   9.844  18.170  0.00  0.00    +0.000 C 
ATOM     24  O   UNL     1       1.241   9.063  17.646  0.00  0.00    +0.000 OA
ENDBRANCH  19  20
ENDBRANCH  17  19
ENDBRANCH   1  17
TORSDOF 6
ENDMDL
MODEL 6
REMARK VINA RESULT:      -6.8      1.735      4.707
REMARK  Name = 
REMARK  7 active torsions:
REMARK  status: ('A' for Active; 'I' for Inactive)
REMARK    1  A    between atoms: C_1  and  C_2
REMARK    2  A    between atoms: C_7  and  C_8
REMARK    3  A    between atoms: N_10  and  C_11
REMARK    4  A    between atoms: C_11  and  N_12
REMARK    5  A    between atoms: C_11  and  C_19
REMARK    6  A    between atoms: N_12  and  C_13
REMARK    7  A    between atoms: C_13  and  C_14
REMARK                            x       y       z     vdW  Elec       q    Type
REMARK                         _______ _______ _______ _____ _____    ______ ____
ROOT
ATOM      1  C   UNL     1       5.301   5.910  17.284  0.00  0.00    +0.000 C 
ENDROOT
BRANCH   1   4
ATOM      2  C   UNL     1       4.022   3.909  18.116  0.00  0.00    +0.000 C 
ATOM      3  O   UNL     1       4.508   3.098  17.346  0.00  0.00    +0.000 OA
ATOM      4  N   UNL     1       4.304   5.263  18.130  0.00  0.00    +0.000 N 
ATOM      5  H   UNL     1       3.835   5.838  18.817  0.00  0.00    +0.000 HD
BRANCH   2  12
ATOM      6  C   UNL     1       1.033   4.070  17.760  0.00  0.00    +0.000 C 
ATOM      7  C   UNL     1       1.674   3.587  19.028  0.00  0.00    +0.000 A 
ATOM      8  C   UNL     1       0.855   3.195  20.100  0.00  0.00    +0.000 A 
ATOM      9  C   UNL     1       1.401   2.722  21.296  0.00  0.00    +0.000 A 
ATOM     10  C   UNL     1       2.780   2.616  21.437  0.00  0.00    +0.000 A 
ATOM     11  C   UNL     1       3.611   2.991  20.382  0.00  0.00    +0.000 A 
ATOM     12  C   UNL     1       3.071   3.489  19.186  0.00  0.00    +0.000 A 
ENDBRANCH   2  12
ENDBRANCH   1   4
BRANCH   1  13
ATOM     13  C   UNL     1       6.795   5.804  17.888  0.00  0.00    +0.000 C 
ATOM     14 CL   UNL     1       6.782   5.480  19.676  0.00  0.00    +0.000 Cl
ATOM     15 CL   UNL     1       7.701   4.453  17.115  0.00  0.00    +0.000 Cl
ATOM     16 CL   UNL     1       7.764   7.318  17.691  0.00  0.00    +0.000 Cl
ENDBRANCH   1  13
BRANCH   1  17
ATOM     17  N   UNL     1       4.717   7.232  17.059  0.00  0.00    +0.000 NA
ATOM     18  H   UNL     1       5.014   7.619  16.161  0.00  0.00    +0.000 HD
BRANCH  17  19
ATOM     19  C   UNL     1       3.258   7.284  17.135  0.00  0.00    +0.000 C 
BRANCH  19  20
ATOM     20  C   UNL     1       2.818   8.424  18.073  0.00  0.00    +0.000 C 
ATOM     21  C   UNL     1       2.005   7.924  19.256  0.00  0.00    +0.000 C 
ATOM     22  C   UNL     1       1.192   9.146  19.609  0.00  0.00    +0.000 C 
ATOM     23  C   UNL     1       0.901   9.748  18.252  0.00  0.00    +0.000 C 
ATOM     24  O   UNL     1       1.955   9.346  17.367  0.00  0.00    +0.000 OA
ENDBRANCH  19  20
ENDBRANCH  17  19
ENDBRANCH   1  17
TORSDOF 6
ENDMDL
MODEL 7
REMARK VINA RESULT:      -6.8      1.675      4.824
REMARK  Name = 
REMARK  7 active torsions:
REMARK  status: ('A' for Active; 'I' for Inactive)
REMARK    1  A    between atoms: C_1  and  C_2
REMARK    2  A    between atoms: C_7  and  C_8
REMARK    3  A    between atoms: N_10  and  C_11
REMARK    4  A    between atoms: C_11  and  N_12
REMARK    5  A    between atoms: C_11  and  C_19
REMARK    6  A    between atoms: N_12  and  C_13
REMARK    7  A    between atoms: C_13  and  C_14
REMARK                            x       y       z     vdW  Elec       q    Type
REMARK                         _______ _______ _______ _____ _____    ______ ____
ROOT
ATOM      1  C   UNL     1       5.154   5.982  17.324  0.00  0.00    +0.000 C 
ENDROOT
BRANCH   1   4
ATOM      2  C   UNL     1       3.763   4.059  18.159  0.00  0.00    +0.000 C 
ATOM      3  O   UNL     1       4.040   3.280  17.262  0.00  0.00    +0.000 OA
ATOM      4  N   UNL     1       4.206   5.365  18.247  0.00  0.00    +0.000 N 
ATOM      5  H   UNL     1       3.907   5.916  19.039  0.00  0.00    +0.000 HD
BRANCH   2  12
ATOM      6  C   UNL     1       4.760   2.147  20.266  0.00  0.00    +0.000 C 
ATOM      7  C   UNL     1       3.376   2.727  20.286  0.00  0.00    +0.000 A 
ATOM      8  C   UNL     1       2.501   2.367  21.325  0.00  0.00    +0.000 A 
ATOM      9  C   UNL     1       1.208   2.891  21.399  0.00  0.00    +0.000 A 
ATOM     10  C   UNL     1       0.770   3.801  20.444  0.00  0.00    +0.000 A 
ATOM     11  C   UNL     1       1.626   4.179  19.410  0.00  0.00    +0.000 A 
ATOM     12  C   UNL     1       2.918   3.639  19.314  0.00  0.00    +0.000 A 
ENDBRANCH   2  12
ENDBRANCH   1   4
BRANCH   1  13
ATOM     13  C   UNL     1       6.687   5.833  17.813  0.00  0.00    +0.000 C 
ATOM     14 CL   UNL     1       7.534   4.456  16.984  0.00  0.00    +0.000 Cl
ATOM     15 CL   UNL     1       7.622   7.326  17.442  0.00  0.00    +0.000 Cl
ATOM     16 CL   UNL     1       6.850   5.490  19.582  0.00  0.00    +0.000 Cl
ENDBRANCH   1  13
BRANCH   1  17
ATOM     17  N   UNL     1       4.593   7.320  17.139  0.00  0.00    +0.000 NA
ATOM     18  H   UNL     1       4.903   7.731  16.256  0.00  0.00    +0.000 HD
BRANCH  17  19
ATOM     19  C   UNL     1       3.134   7.392  17.207  0.00  0.00    +0.000 C 
BRANCH  19  20
ATOM     20  C   UNL     1       2.705   8.553  18.123  0.00  0.00    +0.000 C 
ATOM     21  C   UNL     1       1.906   8.080  19.326  0.00  0.00    +0.000 C 
ATOM     22  C   UNL     1       1.097   9.309  19.661  0.00  0.00    +0.000 C 
ATOM     23  C   UNL     1       0.790   9.881  18.294  0.00  0.00    +0.000 C 
ATOM     24  O   UNL     1       1.834   9.459  17.406  0.00  0.00    +0.000 OA
ENDBRANCH  19  20
ENDBRANCH  17  19
ENDBRANCH   1  17
TORSDOF 6
ENDMDL
MODEL 8
REMARK VINA RESULT:      -6.8      0.992      1.873
REMARK  Name = 
REMARK  7 active torsions:
REMARK  status: ('A' for Active; 'I' for Inactive)
REMARK    1  A    between atoms: C_1  and  C_2
REMARK    2  A    between atoms: C_7  and  C_8
REMARK    3  A    between atoms: N_10  and  C_11
REMARK    4  A    between atoms: C_11  and  N_12
REMARK    5  A    between atoms: C_11  and  C_19
REMARK    6  A    between atoms: N_12  and  C_13
REMARK    7  A    between atoms: C_13  and  C_14
REMARK                            x       y       z     vdW  Elec       q    Type
REMARK                         _______ _______ _______ _____ _____    ______ ____
ROOT
ATOM      1  C   UNL     1       5.331   5.142  18.617  0.00  0.00    +0.000 C 
ENDROOT
BRANCH   1   4
ATOM      2  C   UNL     1       3.205   6.423  18.199  0.00  0.00    +0.000 C 
ATOM      3  O   UNL     1       2.726   5.646  17.390  0.00  0.00    +0.000 OA
ATOM      4  N   UNL     1       4.445   6.288  18.795  0.00  0.00    +0.000 N 
ATOM      5  H   UNL     1       4.736   7.000  19.452  0.00  0.00    +0.000 HD
BRANCH   2  12
ATOM      6  C   UNL     1       1.814   6.486  20.873  0.00  0.00    +0.000 C 
ATOM      7  C   UNL     1       1.775   7.637  19.910  0.00  0.00    +0.000 A 
ATOM      8  C   UNL     1       1.059   8.794  20.260  0.00  0.00    +0.000 A 
ATOM      9  C   UNL     1       1.006   9.900  19.408  0.00  0.00    +0.000 A 
ATOM     10  C   UNL     1       1.682   9.875  18.193  0.00  0.00    +0.000 A 
ATOM     11  C   UNL     1       2.405   8.740  17.831  0.00  0.00    +0.000 A 
ATOM     12  C   UNL     1       2.445   7.616  18.671  0.00  0.00    +0.000 A 
ENDBRANCH   2  12
ENDBRANCH   1   4
BRANCH   1  13
ATOM     13  C   UNL     1       6.360   5.336  17.386  0.00  0.00    +0.000 C 
ATOM     14 CL   UNL     1       7.893   4.390  17.629  0.00  0.00    +0.000 Cl
ATOM     15 CL   UNL     1       5.626   4.762  15.846  0.00  0.00    +0.000 Cl
ATOM     16 CL   UNL     1       6.894   7.048  17.154  0.00  0.00    +0.000 Cl
ENDBRANCH   1  13
BRANCH   1  17
ATOM     17  N   UNL     1       4.395   4.018  18.592  0.00  0.00    +0.000 NA
ATOM     18  H   UNL     1       4.435   3.525  17.697  0.00  0.00    +0.000 HD
BRANCH  17  19
ATOM     19  C   UNL     1       4.567   3.048  19.673  0.00  0.00    +0.000 C 
BRANCH  19  20
ATOM     20  C   UNL     1       3.210   2.416  20.036  0.00  0.00    +0.000 C 
ATOM     21  C   UNL     1       2.042   3.126  19.371  0.00  0.00    +0.000 C 
ATOM     22  C   UNL     1       0.910   2.807  20.316  0.00  0.00    +0.000 C 
ATOM     23  C   UNL     1       1.592   2.841  21.667  0.00  0.00    +0.000 C 
ATOM     24  O   UNL     1       2.975   2.523  21.459  0.00  0.00    +0.000 OA
ENDBRANCH  19  20
ENDBRANCH  17  19
ENDBRANCH   1  17
TORSDOF 6
ENDMDL
MODEL 9
REMARK VINA RESULT:      -6.8      2.624      4.609
REMARK  Name = 
REMARK  7 active torsions:
REMARK  status: ('A' for Active; 'I' for Inactive)
REMARK    1  A    between atoms: C_1  and  C_2
REMARK    2  A    between atoms: C_7  and  C_8
REMARK    3  A    between atoms: N_10  and  C_11
REMARK    4  A    between atoms: C_11  and  N_12
REMARK    5  A    between atoms: C_11  and  C_19
REMARK    6  A    between atoms: N_12  and  C_13
REMARK    7  A    between atoms: C_13  and  C_14
REMARK                            x       y       z     vdW  Elec       q    Type
REMARK                         _______ _______ _______ _____ _____    ______ ____
ROOT
ATOM      1  C   UNL     1       3.172   3.888  17.753  0.00  0.00    +0.000 C 
ENDROOT
BRANCH   1   4
ATOM      2  C   UNL     1       3.201   6.135  18.888  0.00  0.00    +0.000 C 
ATOM      3  O   UNL     1       4.197   5.941  19.565  0.00  0.00    +0.000 OA
ATOM      4  N   UNL     1       2.621   5.210  18.039  0.00  0.00    +0.000 N 
ATOM      5  H   UNL     1       1.794   5.486  17.530  0.00  0.00    +0.000 HD
BRANCH   2  12
ATOM      6  C   UNL     1       1.434   7.035  21.158  0.00  0.00    +0.000 C 
ATOM      7  C   UNL     1       1.669   7.869  19.933  0.00  0.00    +0.000 A 
ATOM      8  C   UNL     1       1.040   9.121  19.829  0.00  0.00    +0.000 A 
ATOM      9  C   UNL     1       1.239   9.944  18.717  0.00  0.00    +0.000 A 
ATOM     10  C   UNL     1       2.085   9.536  17.693  0.00  0.00    +0.000 A 
ATOM     11  C   UNL     1       2.726   8.301  17.780  0.00  0.00    +0.000 A 
ATOM     12  C   UNL     1       2.514   7.458  18.882  0.00  0.00    +0.000 A 
ENDBRANCH   2  12
ENDBRANCH   1   4
BRANCH   1  13
ATOM     13  C   UNL     1       2.655   2.760  18.788  0.00  0.00    +0.000 C 
ATOM     14 CL   UNL     1       0.881   2.419  18.589  0.00  0.00    +0.000 Cl
ATOM     15 CL   UNL     1       3.523   1.206  18.522  0.00  0.00    +0.000 Cl
ATOM     16 CL   UNL     1       2.853   3.228  20.524  0.00  0.00    +0.000 Cl
ENDBRANCH   1  13
BRANCH   1  17
ATOM     17  N   UNL     1       4.606   4.157  17.652  0.00  0.00    +0.000 NA
ATOM     18  H   UNL     1       5.155   3.353  17.962  0.00  0.00    +0.000 HD
BRANCH  17  19
ATOM     19  C   UNL     1       5.067   4.557  16.322  0.00  0.00    +0.000 C 
BRANCH  19  20
ATOM     20  C   UNL     1       6.307   5.462  16.444  0.00  0.00    +0.000 C 
ATOM     21  C   UNL     1       7.046   5.264  17.757  0.00  0.00    +0.000 C 
ATOM     22  C   UNL     1       7.736   6.595  17.927  0.00  0.00    +0.000 C 
ATOM     23  C   UNL     1       6.712   7.565  17.377  0.00  0.00    +0.000 C 
ATOM     24  O   UNL     1       5.913   6.854  16.423  0.00  0.00    +0.000 OA
ENDBRANCH  19  20
ENDBRANCH  17  19
ENDBRANCH   1  17
TORSDOF 6
ENDMDL
