MODEL 1
REMARK VINA RESULT:      -8.7      0.000      0.000
REMARK  Name = 
REMARK  5 active torsions:
REMARK  status: ('A' for Active; 'I' for Inactive)
REMARK    1  A    between atoms: C_1  and  O_2
REMARK    2  A    between atoms: O_2  and  C_3
REMARK    3  A    between atoms: C_8  and  C_9
REMARK    4  A    between atoms: C_18  and  C_19
REMARK    5  A    between atoms: N_22  and  C_23
REMARK                            x       y       z     vdW  Elec       q    Type
REMARK                         _______ _______ _______ _____ _____    ______ ____
ROOT
ATOM      1  C   UNL     1       5.039   4.388  15.881  0.00  0.00    +0.000 C 
ATOM      2  O   UNL     1       4.797   5.498  16.355  0.00  0.00    +0.000 OA
ATOM      3  N   UNL     1       4.662   3.180  16.450  0.00  0.00    +0.000 N 
ATOM      4  C   UNL     1       3.875   3.097  17.620  0.00  0.00    +0.000 A 
ATOM      5  C   UNL     1       3.533   1.837  18.106  0.00  0.00    +0.000 A 
ATOM      6  C   UNL     1       2.670   1.714  19.206  0.00  0.00    +0.000 A 
ATOM      7  C   UNL     1       2.182   2.910  19.731  0.00  0.00    +0.000 A 
ATOM      8  N   UNL     1       1.279   3.191  20.725  0.00  0.00    +0.000 N 
ATOM      9  C   UNL     1       1.127   4.552  20.855  0.00  0.00    +0.000 A 
ATOM     10  C   UNL     1       1.974   5.174  19.953  0.00  0.00    +0.000 A 
ATOM     11  C   UNL     1       2.602   4.129  19.223  0.00  0.00    +0.000 A 
ATOM     12  N   UNL     1       3.455   4.230  18.190  0.00  0.00    +0.000 NA
ATOM     13  H   UNL     1       4.922   2.328  15.975  0.00  0.00    +0.000 HD
ATOM     14  H   UNL     1       0.769   2.503  21.260  0.00  0.00    +0.000 HD
ENDROOT
BRANCH  10  15
ATOM     15  C   UNL     1       2.187   6.647  19.732  0.00  0.00    +0.000 C 
ATOM     16  C   UNL     1       1.262   7.505  20.604  0.00  0.00    +0.000 C 
ATOM     17  C   UNL     1       1.472   8.994  20.333  0.00  0.00    +0.000 C 
ATOM     18  N   UNL     1       1.282   9.310  18.909  0.00  0.00    +0.000 NA
ATOM     19  C   UNL     1       1.459  10.746  18.685  0.00  0.00    +0.000 C 
ATOM     20  C   UNL     1       2.214   8.543  18.068  0.00  0.00    +0.000 C 
ATOM     21  C   UNL     1       2.027   7.038  18.259  0.00  0.00    +0.000 C 
ENDBRANCH  10  15
BRANCH   1  27
ATOM     22  C   UNL     1       7.062   4.942  14.347  0.00  0.00    +0.000 A 
ATOM     23  C   UNL     1       7.619   4.820  13.059  0.00  0.00    +0.000 A 
ATOM     24  C   UNL     1       6.974   4.108  12.046  0.00  0.00    +0.000 A 
ATOM     25  C   UNL     1       5.749   3.516  12.291  0.00  0.00    +0.000 A 
ATOM     26  C   UNL     1       5.170   3.647  13.551  0.00  0.00    +0.000 A 
ATOM     27  C   UNL     1       5.805   4.363  14.594  0.00  0.00    +0.000 A 
BRANCH  22  29
ATOM     28  C   UNL     1       7.827   4.909  16.592  0.00  0.00    +0.000 C 
ATOM     29  O   UNL     1       7.698   5.624  15.359  0.00  0.00    +0.000 OA
ENDBRANCH  22  29
ENDBRANCH   1  27
TORSDOF 3
ENDMDL
MODEL 2
REMARK VINA RESULT:      -8.6      2.343      7.452
REMARK  Name = 
REMARK  5 active torsions:
REMARK  status: ('A' for Active; 'I' for Inactive)
REMARK    1  A    between atoms: C_1  and  O_2
REMARK    2  A    between atoms: O_2  and  C_3
REMARK    3  A    between atoms: C_8  and  C_9
REMARK    4  A    between atoms: C_18  and  C_19
REMARK    5  A    between atoms: N_22  and  C_23
REMARK                            x       y       z     vdW  Elec       q    Type
REMARK                         _______ _______ _______ _____ _____    ______ ____
ROOT
ATOM      1  C   UNL     1       1.963   9.096  18.481  0.00  0.00    +0.000 C 
ATOM      2  O   UNL     1       2.686   8.731  17.554  0.00  0.00    +0.000 OA
ATOM      3  N   UNL     1       1.541   8.288  19.527  0.00  0.00    +0.000 N 
ATOM      4  C   UNL     1       1.970   6.951  19.682  0.00  0.00    +0.000 A 
ATOM      5  C   UNL     1       1.503   6.223  20.775  0.00  0.00    +0.000 A 
ATOM      6  C   UNL     1       1.984   4.927  21.019  0.00  0.00    +0.000 A 
ATOM      7  C   UNL     1       2.948   4.460  20.127  0.00  0.00    +0.000 A 
ATOM      8  N   UNL     1       3.695   3.311  20.082  0.00  0.00    +0.000 N 
ATOM      9  C   UNL     1       4.531   3.332  18.989  0.00  0.00    +0.000 A 
ATOM     10  C   UNL     1       4.300   4.504  18.286  0.00  0.00    +0.000 A 
ATOM     11  C   UNL     1       3.332   5.223  19.036  0.00  0.00    +0.000 A 
ATOM     12  N   UNL     1       2.837   6.450  18.798  0.00  0.00    +0.000 NA
ATOM     13  H   UNL     1       0.942   8.693  20.231  0.00  0.00    +0.000 HD
ATOM     14  H   UNL     1       3.669   2.570  20.768  0.00  0.00    +0.000 HD
ENDROOT
BRANCH  10  15
ATOM     15  C   UNL     1       4.947   4.972  17.011  0.00  0.00    +0.000 C 
ATOM     16  C   UNL     1       4.800   3.952  15.876  0.00  0.00    +0.000 C 
ATOM     17  C   UNL     1       5.497   4.436  14.605  0.00  0.00    +0.000 C 
ATOM     18  N   UNL     1       6.915   4.734  14.853  0.00  0.00    +0.000 NA
ATOM     19  C   UNL     1       7.564   5.164  13.614  0.00  0.00    +0.000 C 
ATOM     20  C   UNL     1       7.066   5.763  15.893  0.00  0.00    +0.000 C 
ATOM     21  C   UNL     1       6.426   5.323  17.209  0.00  0.00    +0.000 C 
ENDBRANCH  10  15
BRANCH   1  27
ATOM     22  C   UNL     1       0.219  11.007  18.724  0.00  0.00    +0.000 A 
ATOM     23  C   UNL     1      -0.013  12.394  18.639  0.00  0.00    +0.000 A 
ATOM     24  C   UNL     1       1.011  13.292  18.335  0.00  0.00    +0.000 A 
ATOM     25  C   UNL     1       2.290  12.823  18.093  0.00  0.00    +0.000 A 
ATOM     26  C   UNL     1       2.535  11.453  18.149  0.00  0.00    +0.000 A 
ATOM     27  C   UNL     1       1.512  10.524  18.456  0.00  0.00    +0.000 A 
BRANCH  22  29
ATOM     28  C   UNL     1      -1.922  10.142  18.186  0.00  0.00    +0.000 C 
ATOM     29  O   UNL     1      -0.778  10.114  19.043  0.00  0.00    +0.000 OA
ENDBRANCH  22  29
ENDBRANCH   1  27
TORSDOF 3
ENDMDL
MODEL 3
REMARK VINA RESULT:      -8.5      2.347      7.424
REMARK  Name = 
REMARK  5 active torsions:
REMARK  status: ('A' for Active; 'I' for Inactive)
REMARK    1  A    between atoms: C_1  and  O_2
REMARK    2  A    between atoms: O_2  and  C_3
REMARK    3  A    between atoms: C_8  and  C_9
REMARK    4  A    between atoms: C_18  and  C_19
REMARK    5  A    between atoms: N_22  and  C_23
REMARK                            x       y       z     vdW  Elec       q    Type
REMARK                         _______ _______ _______ _____ _____    ______ ____
ROOT
ATOM      1  C   UNL     1       1.884   8.027  19.589  0.00  0.00    +0.000 C 
ATOM      2  O   UNL     1       2.605   7.873  18.604  0.00  0.00    +0.000 OA
ATOM      3  N   UNL     1       1.529   7.025  20.480  0.00  0.00    +0.000 N 
ATOM      4  C   UNL     1       2.033   5.708  20.391  0.00  0.00    +0.000 A 
ATOM      5  C   UNL     1       1.630   4.774  21.344  0.00  0.00    +0.000 A 
ATOM      6  C   UNL     1       2.186   3.485  21.349  0.00  0.00    +0.000 A 
ATOM      7  C   UNL     1       3.156   3.239  20.378  0.00  0.00    +0.000 A 
ATOM      8  N   UNL     1       3.964   2.160  20.121  0.00  0.00    +0.000 N 
ATOM      9  C   UNL     1       4.773   2.422  19.040  0.00  0.00    +0.000 A 
ATOM     10  C   UNL     1       4.463   3.683  18.558  0.00  0.00    +0.000 A 
ATOM     11  C   UNL     1       3.474   4.203  19.435  0.00  0.00    +0.000 A 
ATOM     12  N   UNL     1       2.907   5.422  19.423  0.00  0.00    +0.000 NA
ATOM     13  H   UNL     1       0.924   7.265  21.252  0.00  0.00    +0.000 HD
ATOM     14  H   UNL     1       3.992   1.310  20.666  0.00  0.00    +0.000 HD
ENDROOT
BRANCH  10  15
ATOM     15  C   UNL     1       5.056   4.405  17.379  0.00  0.00    +0.000 C 
ATOM     16  C   UNL     1       4.777   3.683  16.055  0.00  0.00    +0.000 C 
ATOM     17  C   UNL     1       5.421   4.417  14.879  0.00  0.00    +0.000 C 
ATOM     18  N   UNL     1       6.868   4.586  15.082  0.00  0.00    +0.000 NA
ATOM     19  C   UNL     1       7.462   5.263  13.929  0.00  0.00    +0.000 C 
ATOM     20  C   UNL     1       7.145   5.339  16.315  0.00  0.00    +0.000 C 
ATOM     21  C   UNL     1       6.562   4.636  17.541  0.00  0.00    +0.000 C 
ENDBRANCH  10  15
BRANCH   1  27
ATOM     22  C   UNL     1       0.975   9.973  21.053  0.00  0.00    +0.000 A 
ATOM     23  C   UNL     1       0.487  11.294  21.067  0.00  0.00    +0.000 A 
ATOM     24  C   UNL     1       0.411  12.060  19.903  0.00  0.00    +0.000 A 
ATOM     25  C   UNL     1       0.806  11.518  18.693  0.00  0.00    +0.000 A 
ATOM     26  C   UNL     1       1.268  10.205  18.654  0.00  0.00    +0.000 A 
ATOM     27  C   UNL     1       1.354   9.409  19.822  0.00  0.00    +0.000 A 
BRANCH  22  29
ATOM     28  C   UNL     1       0.042   9.429  23.165  0.00  0.00    +0.000 C 
ATOM     29  O   UNL     1       1.074   9.215  22.197  0.00  0.00    +0.000 OA
ENDBRANCH  22  29
ENDBRANCH   1  27
TORSDOF 3
ENDMDL
MODEL 4
REMARK VINA RESULT:      -8.3      2.841      7.043
REMARK  Name = 
REMARK  5 active torsions:
REMARK  status: ('A' for Active; 'I' for Inactive)
REMARK    1  A    between atoms: C_1  and  O_2
REMARK    2  A    between atoms: O_2  and  C_3
REMARK    3  A    between atoms: C_8  and  C_9
REMARK    4  A    between atoms: C_18  and  C_19
REMARK    5  A    between atoms: N_22  and  C_23
REMARK                            x       y       z     vdW  Elec       q    Type
REMARK                         _______ _______ _______ _____ _____    ______ ____
ROOT
ATOM      1  C   UNL     1       1.666   7.247  20.161  0.00  0.00    +0.000 C 
ATOM      2  O   UNL     1       2.720   7.346  19.534  0.00  0.00    +0.000 OA
ATOM      3  N   UNL     1       0.952   6.071  20.338  0.00  0.00    +0.000 N 
ATOM      4  C   UNL     1       1.413   4.819  19.873  0.00  0.00    +0.000 A 
ATOM      5  C   UNL     1       0.632   3.690  20.115  0.00  0.00    +0.000 A 
ATOM      6  C   UNL     1       1.103   2.416  19.758  0.00  0.00    +0.000 A 
ATOM      7  C   UNL     1       2.376   2.376  19.191  0.00  0.00    +0.000 A 
ATOM      8  N   UNL     1       3.188   1.343  18.797  0.00  0.00    +0.000 N 
ATOM      9  C   UNL     1       4.374   1.836  18.303  0.00  0.00    +0.000 A 
ATOM     10  C   UNL     1       4.321   3.220  18.340  0.00  0.00    +0.000 A 
ATOM     11  C   UNL     1       3.076   3.546  18.940  0.00  0.00    +0.000 A 
ATOM     12  N   UNL     1       2.597   4.761  19.257  0.00  0.00    +0.000 NA
ATOM     13  H   UNL     1       0.093   6.109  20.867  0.00  0.00    +0.000 HD
ATOM     14  H   UNL     1       2.970   0.362  18.890  0.00  0.00    +0.000 HD
ENDROOT
BRANCH  10  15
ATOM     15  C   UNL     1       5.361   4.208  17.887  0.00  0.00    +0.000 C 
ATOM     16  C   UNL     1       6.091   4.865  19.065  0.00  0.00    +0.000 C 
ATOM     17  C   UNL     1       7.114   5.890  18.578  0.00  0.00    +0.000 C 
ATOM     18  N   UNL     1       6.485   6.910  17.725  0.00  0.00    +0.000 NA
ATOM     19  C   UNL     1       7.481   7.894  17.299  0.00  0.00    +0.000 C 
ATOM     20  C   UNL     1       5.841   6.296  16.554  0.00  0.00    +0.000 C 
ATOM     21  C   UNL     1       4.772   5.286  16.971  0.00  0.00    +0.000 C 
ENDBRANCH  10  15
BRANCH   1  27
ATOM     22  C   UNL     1       0.739   9.674  20.082  0.00  0.00    +0.000 A 
ATOM     23  C   UNL     1       0.262  10.767  20.832  0.00  0.00    +0.000 A 
ATOM     24  C   UNL     1       0.130  10.702  22.221  0.00  0.00    +0.000 A 
ATOM     25  C   UNL     1       0.486   9.547  22.894  0.00  0.00    +0.000 A 
ATOM     26  C   UNL     1       0.984   8.464  22.173  0.00  0.00    +0.000 A 
ATOM     27  C   UNL     1       1.126   8.507  20.765  0.00  0.00    +0.000 A 
BRANCH  22  29
ATOM     28  C   UNL     1       1.881  10.581  18.212  0.00  0.00    +0.000 C 
ATOM     29  O   UNL     1       0.855   9.720  18.712  0.00  0.00    +0.000 OA
ENDBRANCH  22  29
ENDBRANCH   1  27
TORSDOF 3
ENDMDL
MODEL 5
REMARK VINA RESULT:      -8.3      0.930      1.816
REMARK  Name = 
REMARK  5 active torsions:
REMARK  status: ('A' for Active; 'I' for Inactive)
REMARK    1  A    between atoms: C_1  and  O_2
REMARK    2  A    between atoms: O_2  and  C_3
REMARK    3  A    between atoms: C_8  and  C_9
REMARK    4  A    between atoms: C_18  and  C_19
REMARK    5  A    between atoms: N_22  and  C_23
REMARK                            x       y       z     vdW  Elec       q    Type
REMARK                         _______ _______ _______ _____ _____    ______ ____
ROOT
ATOM      1  C   UNL     1       5.360   4.611  15.709  0.00  0.00    +0.000 C 
ATOM      2  O   UNL     1       5.075   5.698  16.210  0.00  0.00    +0.000 OA
ATOM      3  N   UNL     1       4.995   3.376  16.224  0.00  0.00    +0.000 N 
ATOM      4  C   UNL     1       4.171   3.235  17.363  0.00  0.00    +0.000 A 
ATOM      5  C   UNL     1       3.845   1.951  17.796  0.00  0.00    +0.000 A 
ATOM      6  C   UNL     1       2.949   1.771  18.861  0.00  0.00    +0.000 A 
ATOM      7  C   UNL     1       2.414   2.937  19.408  0.00  0.00    +0.000 A 
ATOM      8  N   UNL     1       1.472   3.163  20.379  0.00  0.00    +0.000 N 
ATOM      9  C   UNL     1       1.281   4.515  20.548  0.00  0.00    +0.000 A 
ATOM     10  C   UNL     1       2.143   5.187  19.696  0.00  0.00    +0.000 A 
ATOM     11  C   UNL     1       2.820   4.182  18.955  0.00  0.00    +0.000 A 
ATOM     12  N   UNL     1       3.705   4.338  17.955  0.00  0.00    +0.000 NA
ATOM     13  H   UNL     1       5.291   2.547  15.731  0.00  0.00    +0.000 HD
ATOM     14  H   UNL     1       0.960   2.446  20.873  0.00  0.00    +0.000 HD
ENDROOT
BRANCH  10  15
ATOM     15  C   UNL     1       2.327   6.671  19.531  0.00  0.00    +0.000 C 
ATOM     16  C   UNL     1       1.408   7.477  20.458  0.00  0.00    +0.000 C 
ATOM     17  C   UNL     1       1.588   8.979  20.244  0.00  0.00    +0.000 C 
ATOM     18  N   UNL     1       1.360   9.350  18.839  0.00  0.00    +0.000 NA
ATOM     19  C   UNL     1       1.508  10.796  18.670  0.00  0.00    +0.000 C 
ATOM     20  C   UNL     1       2.284   8.634  17.946  0.00  0.00    +0.000 C 
ATOM     21  C   UNL     1       2.126   7.119  18.080  0.00  0.00    +0.000 C 
ENDBRANCH  10  15
BRANCH   1  27
ATOM     22  C   UNL     1       5.844   4.051  13.217  0.00  0.00    +0.000 A 
ATOM     23  C   UNL     1       6.745   4.188  12.143  0.00  0.00    +0.000 A 
ATOM     24  C   UNL     1       7.923   4.928  12.263  0.00  0.00    +0.000 A 
ATOM     25  C   UNL     1       8.236   5.535  13.466  0.00  0.00    +0.000 A 
ATOM     26  C   UNL     1       7.369   5.391  14.547  0.00  0.00    +0.000 A 
ATOM     27  C   UNL     1       6.170   4.647  14.448  0.00  0.00    +0.000 A 
BRANCH  22  29
ATOM     28  C   UNL     1       4.175   3.184  11.772  0.00  0.00    +0.000 C 
ATOM     29  O   UNL     1       4.670   3.342  13.104  0.00  0.00    +0.000 OA
ENDBRANCH  22  29
ENDBRANCH   1  27
TORSDOF 3
ENDMDL
MODEL 6
REMARK VINA RESULT:      -8.2      3.988      7.440
REMARK  Name = 
REMARK  5 active torsions:
REMARK  status: ('A' for Active; 'I' for Inactive)
REMARK    1  A    between atoms: C_1  and  O_2
REMARK    2  A    between atoms: O_2  and  C_3
REMARK    3  A    between atoms: C_8  and  C_9
REMARK    4  A    between atoms: C_18  and  C_19
REMARK    5  A    between atoms: N_22  and  C_23
REMARK                            x       y       z     vdW  Elec       q    Type
REMARK                         _______ _______ _______ _____ _____    ______ ____
ROOT
ATOM      1  C   UNL     1       1.671   8.427  18.882  0.00  0.00    +0.000 C 
ATOM      2  O   UNL     1       1.003   8.804  17.920  0.00  0.00    +0.000 OA
ATOM      3  N   UNL     1       1.572   8.937  20.168  0.00  0.00    +0.000 N 
ATOM      4  C   UNL     1       0.616   9.911  20.534  0.00  0.00    +0.000 A 
ATOM      5  C   UNL     1       0.583  10.350  21.856  0.00  0.00    +0.000 A 
ATOM      6  C   UNL     1      -0.416  11.240  22.281  0.00  0.00    +0.000 A 
ATOM      7  C   UNL     1      -1.350  11.610  21.314  0.00  0.00    +0.000 A 
ATOM      8  N   UNL     1      -2.488  12.375  21.362  0.00  0.00    +0.000 N 
ATOM      9  C   UNL     1      -3.076  12.427  20.119  0.00  0.00    +0.000 A 
ATOM     10  C   UNL     1      -2.288  11.712  19.233  0.00  0.00    +0.000 A 
ATOM     11  C   UNL     1      -1.228  11.168  20.006  0.00  0.00    +0.000 A 
ATOM     12  N   UNL     1      -0.245  10.342  19.607  0.00  0.00    +0.000 NA
ATOM     13  H   UNL     1       2.177   8.556  20.881  0.00  0.00    +0.000 HD
ATOM     14  H   UNL     1      -2.864  12.807  22.193  0.00  0.00    +0.000 HD
ENDROOT
BRANCH  10  15
ATOM     15  C   UNL     1      -2.497  11.498  17.758  0.00  0.00    +0.000 C 
ATOM     16  C   UNL     1      -3.956  11.718  17.340  0.00  0.00    +0.000 C 
ATOM     17  C   UNL     1      -4.147  11.458  15.847  0.00  0.00    +0.000 C 
ATOM     18  N   UNL     1      -3.701  10.106  15.478  0.00  0.00    +0.000 NA
ATOM     19  C   UNL     1      -3.925   9.874  14.050  0.00  0.00    +0.000 C 
ATOM     20  C   UNL     1      -2.282   9.907  15.811  0.00  0.00    +0.000 C 
ATOM     21  C   UNL     1      -2.027  10.111  17.305  0.00  0.00    +0.000 C 
ENDBRANCH  10  15
BRANCH   1  27
ATOM     22  C   UNL     1       2.816   6.139  19.340  0.00  0.00    +0.000 A 
ATOM     23  C   UNL     1       3.824   5.238  18.946  0.00  0.00    +0.000 A 
ATOM     24  C   UNL     1       4.643   5.490  17.844  0.00  0.00    +0.000 A 
ATOM     25  C   UNL     1       4.484   6.658  17.119  0.00  0.00    +0.000 A 
ATOM     26  C   UNL     1       3.509   7.573  17.508  0.00  0.00    +0.000 A 
ATOM     27  C   UNL     1       2.667   7.338  18.621  0.00  0.00    +0.000 A 
BRANCH  22  29
ATOM     28  C   UNL     1       2.084   4.578  20.968  0.00  0.00    +0.000 C 
ATOM     29  O   UNL     1       1.989   5.892  20.412  0.00  0.00    +0.000 OA
ENDBRANCH  22  29
ENDBRANCH   1  27
TORSDOF 3
ENDMDL
MODEL 7
REMARK VINA RESULT:      -8.1      3.311      6.400
REMARK  Name = 
REMARK  5 active torsions:
REMARK  status: ('A' for Active; 'I' for Inactive)
REMARK    1  A    between atoms: C_1  and  O_2
REMARK    2  A    between atoms: O_2  and  C_3
REMARK    3  A    between atoms: C_8  and  C_9
REMARK    4  A    between atoms: C_18  and  C_19
REMARK    5  A    between atoms: N_22  and  C_23
REMARK                            x       y       z     vdW  Elec       q    Type
REMARK                         _______ _______ _______ _____ _____    ______ ____
ROOT
ATOM      1  C   UNL     1       2.162   7.418  18.706  0.00  0.00    +0.000 C 
ATOM      2  O   UNL     1       1.461   8.060  17.924  0.00  0.00    +0.000 OA
ATOM      3  N   UNL     1       2.251   7.651  20.071  0.00  0.00    +0.000 N 
ATOM      4  C   UNL     1       1.469   8.623  20.733  0.00  0.00    +0.000 A 
ATOM      5  C   UNL     1       1.618   8.773  22.111  0.00  0.00    +0.000 A 
ATOM      6  C   UNL     1       0.788   9.656  22.819  0.00  0.00    +0.000 A 
ATOM      7  C   UNL     1      -0.176  10.322  22.063  0.00  0.00    +0.000 A 
ATOM      8  N   UNL     1      -1.194  11.178  22.398  0.00  0.00    +0.000 N 
ATOM      9  C   UNL     1      -1.884  11.556  21.269  0.00  0.00    +0.000 A 
ATOM     10  C   UNL     1      -1.283  10.963  20.171  0.00  0.00    +0.000 A 
ATOM     11  C   UNL     1      -0.235  10.156  20.689  0.00  0.00    +0.000 A 
ATOM     12  N   UNL     1       0.589   9.331  20.020  0.00  0.00    +0.000 NA
ATOM     13  H   UNL     1       2.866   7.065  20.616  0.00  0.00    +0.000 HD
ATOM     14  H   UNL     1      -1.431  11.463  23.337  0.00  0.00    +0.000 HD
ENDROOT
BRANCH  10  15
ATOM     15  C   UNL     1      -1.656  11.090  18.719  0.00  0.00    +0.000 C 
ATOM     16  C   UNL     1      -3.098  11.575  18.529  0.00  0.00    +0.000 C 
ATOM     17  C   UNL     1      -3.462  11.660  17.048  0.00  0.00    +0.000 C 
ATOM     18  N   UNL     1      -3.257  10.369  16.372  0.00  0.00    +0.000 NA
ATOM     19  C   UNL     1      -3.642  10.471  14.964  0.00  0.00    +0.000 C 
ATOM     20  C   UNL     1      -1.859   9.927  16.489  0.00  0.00    +0.000 C 
ATOM     21  C   UNL     1      -1.440   9.781  17.951  0.00  0.00    +0.000 C 
ENDBRANCH  10  15
BRANCH   1  27
ATOM     22  C   UNL     1       2.759   4.926  18.267  0.00  0.00    +0.000 A 
ATOM     23  C   UNL     1       3.648   4.031  17.641  0.00  0.00    +0.000 A 
ATOM     24  C   UNL     1       4.707   4.482  16.851  0.00  0.00    +0.000 A 
ATOM     25  C   UNL     1       4.912   5.840  16.681  0.00  0.00    +0.000 A 
ATOM     26  C   UNL     1       4.058   6.741  17.313  0.00  0.00    +0.000 A 
ATOM     27  C   UNL     1       2.977   6.307  18.118  0.00  0.00    +0.000 A 
BRANCH  22  29
ATOM     28  C   UNL     1       1.199   3.194  18.705  0.00  0.00    +0.000 C 
ATOM     29  O   UNL     1       1.699   4.494  19.032  0.00  0.00    +0.000 OA
ENDBRANCH  22  29
ENDBRANCH   1  27
TORSDOF 3
ENDMDL
MODEL 8
REMARK VINA RESULT:      -8.0      3.861      7.307
REMARK  Name = 
REMARK  5 active torsions:
REMARK  status: ('A' for Active; 'I' for Inactive)
REMARK    1  A    between atoms: C_1  and  O_2
REMARK    2  A    between atoms: O_2  and  C_3
REMARK    3  A    between atoms: C_8  and  C_9
REMARK    4  A    between atoms: C_18  and  C_19
REMARK    5  A    between atoms: N_22  and  C_23
REMARK                            x       y       z     vdW  Elec       q    Type
REMARK                         _______ _______ _______ _____ _____    ______ ____
ROOT
ATOM      1  C   UNL     1       2.030   8.173  19.590  0.00  0.00    +0.000 C 
ATOM      2  O   UNL     1       2.257   9.241  19.022  0.00  0.00    +0.000 OA
ATOM      3  N   UNL     1       1.317   8.037  20.773  0.00  0.00    +0.000 N 
ATOM      4  C   UNL     1       0.697   9.127  21.423  0.00  0.00    +0.000 A 
ATOM      5  C   UNL     1      -0.011   8.886  22.599  0.00  0.00    +0.000 A 
ATOM      6  C   UNL     1      -0.725   9.924  23.218  0.00  0.00    +0.000 A 
ATOM      7  C   UNL     1      -0.688  11.158  22.569  0.00  0.00    +0.000 A 
ATOM      8  N   UNL     1      -1.307  12.357  22.813  0.00  0.00    +0.000 N 
ATOM      9  C   UNL     1      -0.948  13.279  21.857  0.00  0.00    +0.000 A 
ATOM     10  C   UNL     1      -0.048  12.680  20.991  0.00  0.00    +0.000 A 
ATOM     11  C   UNL     1       0.075  11.333  21.426  0.00  0.00    +0.000 A 
ATOM     12  N   UNL     1       0.780  10.337  20.863  0.00  0.00    +0.000 NA
ATOM     13  H   UNL     1       1.198   7.109  21.153  0.00  0.00    +0.000 HD
ATOM     14  H   UNL     1      -1.963  12.534  23.561  0.00  0.00    +0.000 HD
ENDROOT
BRANCH  10  15
ATOM     15  C   UNL     1       0.649  13.283  19.801  0.00  0.00    +0.000 C 
ATOM     16  C   UNL     1       2.121  12.862  19.714  0.00  0.00    +0.000 C 
ATOM     17  C   UNL     1       2.813  13.518  18.520  0.00  0.00    +0.000 C 
ATOM     18  N   UNL     1       2.695  14.983  18.572  0.00  0.00    +0.000 NA
ATOM     19  C   UNL     1       3.392  15.584  17.434  0.00  0.00    +0.000 C 
ATOM     20  C   UNL     1       1.285  15.401  18.585  0.00  0.00    +0.000 C 
ATOM     21  C   UNL     1       0.541  14.812  19.784  0.00  0.00    +0.000 C 
ENDBRANCH  10  15
BRANCH   1  27
ATOM     22  C   UNL     1       2.303   5.606  19.291  0.00  0.00    +0.000 A 
ATOM     23  C   UNL     1       2.929   4.575  18.564  0.00  0.00    +0.000 A 
ATOM     24  C   UNL     1       3.777   4.847  17.489  0.00  0.00    +0.000 A 
ATOM     25  C   UNL     1       4.033   6.157  17.125  0.00  0.00    +0.000 A 
ATOM     26  C   UNL     1       3.443   7.191  17.848  0.00  0.00    +0.000 A 
ATOM     27  C   UNL     1       2.579   6.940  18.941  0.00  0.00    +0.000 A 
BRANCH  22  29
ATOM     28  C   UNL     1       1.038   3.987  20.476  0.00  0.00    +0.000 C 
ATOM     29  O   UNL     1       1.449   5.350  20.340  0.00  0.00    +0.000 OA
ENDBRANCH  22  29
ENDBRANCH   1  27
TORSDOF 3
ENDMDL
MODEL 9
REMARK VINA RESULT:      -8.0      3.023      7.116
REMARK  Name = 
REMARK  5 active torsions:
REMARK  status: ('A' for Active; 'I' for Inactive)
REMARK    1  A    between atoms: C_1  and  O_2
REMARK    2  A    between atoms: O_2  and  C_3
REMARK    3  A    between atoms: C_8  and  C_9
REMARK    4  A    between atoms: C_18  and  C_19
REMARK    5  A    between atoms: N_22  and  C_23
REMARK                            x       y       z     vdW  Elec       q    Type
REMARK                         _______ _______ _______ _____ _____    ______ ____
ROOT
ATOM      1  C   UNL     1       1.789   7.887  19.747  0.00  0.00    +0.000 C 
ATOM      2  O   UNL     1       2.851   7.865  19.126  0.00  0.00    +0.000 OA
ATOM      3  N   UNL     1       1.142   6.772  20.259  0.00  0.00    +0.000 N 
ATOM      4  C   UNL     1       1.686   5.471  20.186  0.00  0.00    +0.000 A 
ATOM      5  C   UNL     1       0.968   4.415  20.744  0.00  0.00    +0.000 A 
ATOM      6  C   UNL     1       1.521   3.125  20.780  0.00  0.00    +0.000 A 
ATOM      7  C   UNL     1       2.808   3.002  20.258  0.00  0.00    +0.000 A 
ATOM      8  N   UNL     1       3.689   1.952  20.190  0.00  0.00    +0.000 N 
ATOM      9  C   UNL     1       4.855   2.352  19.580  0.00  0.00    +0.000 A 
ATOM     10  C   UNL     1       4.720   3.680  19.209  0.00  0.00    +0.000 A 
ATOM     11  C   UNL     1       3.444   4.088  19.678  0.00  0.00    +0.000 A 
ATOM     12  N   UNL     1       2.886   5.310  19.621  0.00  0.00    +0.000 NA
ATOM     13  H   UNL     1       0.269   6.909  20.747  0.00  0.00    +0.000 HD
ATOM     14  H   UNL     1       3.526   1.030  20.567  0.00  0.00    +0.000 HD
ENDROOT
BRANCH  10  15
ATOM     15  C   UNL     1       5.711   4.556  18.491  0.00  0.00    +0.000 C 
ATOM     16  C   UNL     1       6.647   5.290  19.460  0.00  0.00    +0.000 C 
ATOM     17  C   UNL     1       7.617   6.199  18.708  0.00  0.00    +0.000 C 
ATOM     18  N   UNL     1       6.899   7.159  17.855  0.00  0.00    +0.000 NA
ATOM     19  C   UNL     1       7.851   8.035  17.172  0.00  0.00    +0.000 C 
ATOM     20  C   UNL     1       6.051   6.463  16.875  0.00  0.00    +0.000 C 
ATOM     21  C   UNL     1       5.024   5.565  17.564  0.00  0.00    +0.000 C 
ENDBRANCH  10  15
BRANCH   1  27
ATOM     22  C   UNL     1       0.740   9.793  21.169  0.00  0.00    +0.000 A 
ATOM     23  C   UNL     1       0.158  11.076  21.156  0.00  0.00    +0.000 A 
ATOM     24  C   UNL     1       0.029  11.810  19.975  0.00  0.00    +0.000 A 
ATOM     25  C   UNL     1       0.464  11.272  18.777  0.00  0.00    +0.000 A 
ATOM     26  C   UNL     1       1.019   9.995  18.767  0.00  0.00    +0.000 A 
ATOM     27  C   UNL     1       1.161   9.233  19.951  0.00  0.00    +0.000 A 
BRANCH  22  29
ATOM     28  C   UNL     1       0.019   9.439  23.401  0.00  0.00    +0.000 C 
ATOM     29  O   UNL     1       0.892   9.069  22.330  0.00  0.00    +0.000 OA
ENDBRANCH  22  29
ENDBRANCH   1  27
TORSDOF 3
ENDMDL
