MODEL 1
REMARK VINA RESULT:      -8.0      0.000      0.000
REMARK  Name = 
REMARK  6 active torsions:
REMARK  status: ('A' for Active; 'I' for Inactive)
REMARK    1  A    between atoms: C_1  and  C_2
REMARK    2  A    between atoms: N_7  and  C_8
REMARK    3  A    between atoms: C_8  and  C_9
REMARK    4  A    between atoms: C_9  and  N_10
REMARK    5  A    between atoms: C_11  and  C_13
REMARK    6  A    between atoms: C_13  and  C_14
REMARK                            x       y       z     vdW  Elec       q    Type
REMARK                         _______ _______ _______ _____ _____    ______ ____
ROOT
ATOM      1  N   UNL     1       7.185   8.278  17.799  0.00  0.00    +0.000 N 
ATOM      2  C   UNL     1       6.912   7.173  17.022  0.00  0.00    +0.000 C 
ATOM      3  O   UNL     1       7.724   6.669  16.251  0.00  0.00    +0.000 OA
ATOM      4  H   UNL     1       6.617   8.446  18.624  0.00  0.00    +0.000 HD
ENDROOT
BRANCH   1   5
ATOM      5  C   UNL     1       8.511   8.861  17.782  0.00  0.00    +0.000 C 
BRANCH   5   6
ATOM      6  C   UNL     1       8.807   9.752  19.005  0.00  0.00    +0.000 C 
BRANCH   6  13
ATOM      7  C   UNL     1      10.197  12.851  17.280  0.00  0.00    +0.000 C 
ATOM      8  C   UNL     1      10.200  11.438  17.892  0.00  0.00    +0.000 C 
ATOM      9  C   UNL     1      11.502  11.195  18.682  0.00  0.00    +0.000 C 
ATOM     10  C   UNL     1      11.543  11.987  19.986  0.00  0.00    +0.000 C 
ATOM     11  C   UNL     1      10.262  11.805  20.792  0.00  0.00    +0.000 C 
ATOM     12  C   UNL     1       9.009  12.015  19.938  0.00  0.00    +0.000 C 
ATOM     13  N   UNL     1       8.978  11.201  18.707  0.00  0.00    +0.000 NA
ENDBRANCH   6  13
ENDBRANCH   5   6
ENDBRANCH   1   5
BRANCH   2  14
ATOM     14  C   UNL     1       5.523   6.616  17.190  0.00  0.00    +0.000 C 
BRANCH  14  15
ATOM     15  C   UNL     1       5.284   6.194  18.637  0.00  0.00    +0.000 C 
ATOM     16  O   UNL     1       3.882   6.030  18.860  0.00  0.00    +0.000 OA
ATOM     17  C   UNL     1       3.401   4.780  18.599  0.00  0.00    +0.000 A 
ATOM     18  C   UNL     1       2.026   4.666  18.411  0.00  0.00    +0.000 A 
ATOM     19  C   UNL     1       1.460   3.417  18.165  0.00  0.00    +0.000 A 
ATOM     20  C   UNL     1       2.269   2.279  18.119  0.00  0.00    +0.000 A 
ATOM     21  C   UNL     1       3.647   2.389  18.321  0.00  0.00    +0.000 A 
ATOM     22  C   UNL     1       4.211   3.642  18.554  0.00  0.00    +0.000 A 
ATOM     23  N   UNL     1       5.584   3.762  18.775  0.00  0.00    +0.000 N 
ATOM     24  C   UNL     1       6.183   4.983  18.931  0.00  0.00    +0.000 C 
ATOM     25  O   UNL     1       7.379   5.075  19.185  0.00  0.00    +0.000 OA
ATOM     26  H   UNL     1       6.173   2.943  18.863  0.00  0.00    +0.000 HD
ENDBRANCH  14  15
ENDBRANCH   2  14
TORSDOF 5
ENDMDL
MODEL 2
REMARK VINA RESULT:      -8.0      1.612      2.273
REMARK  Name = 
REMARK  6 active torsions:
REMARK  status: ('A' for Active; 'I' for Inactive)
REMARK    1  A    between atoms: C_1  and  C_2
REMARK    2  A    between atoms: N_7  and  C_8
REMARK    3  A    between atoms: C_8  and  C_9
REMARK    4  A    between atoms: C_9  and  N_10
REMARK    5  A    between atoms: C_11  and  C_13
REMARK    6  A    between atoms: C_13  and  C_14
REMARK                            x       y       z     vdW  Elec       q    Type
REMARK                         _______ _______ _______ _____ _____    ______ ____
ROOT
ATOM      1  N   UNL     1       7.920   8.813  17.800  0.00  0.00    +0.000 N 
ATOM      2  C   UNL     1       7.826   7.474  18.110  0.00  0.00    +0.000 C 
ATOM      3  O   UNL     1       8.491   6.933  18.989  0.00  0.00    +0.000 OA
ATOM      4  H   UNL     1       7.147   9.256  17.313  0.00  0.00    +0.000 HD
ENDROOT
BRANCH   1   5
ATOM      5  C   UNL     1       8.787   9.674  18.578  0.00  0.00    +0.000 C 
BRANCH   5   6
ATOM      6  C   UNL     1       8.997  11.066  17.951  0.00  0.00    +0.000 C 
BRANCH   6  13
ATOM      7  C   UNL     1       9.718  14.596  19.188  0.00  0.00    +0.000 C 
ATOM      8  C   UNL     1       9.633  13.424  18.193  0.00  0.00    +0.000 C 
ATOM      9  C   UNL     1      10.868  13.407  17.271  0.00  0.00    +0.000 C 
ATOM     10  C   UNL     1      12.132  12.967  18.004  0.00  0.00    +0.000 C 
ATOM     11  C   UNL     1      11.903  11.680  18.789  0.00  0.00    +0.000 C 
ATOM     12  C   UNL     1      10.637  11.746  19.648  0.00  0.00    +0.000 C 
ATOM     13  N   UNL     1       9.424  12.131  18.900  0.00  0.00    +0.000 NA
ENDBRANCH   6  13
ENDBRANCH   5   6
ENDBRANCH   1   5
BRANCH   2  14
ATOM     14  C   UNL     1       6.832   6.706  17.278  0.00  0.00    +0.000 C 
BRANCH  14  15
ATOM     15  C   UNL     1       7.128   5.210  17.333  0.00  0.00    +0.000 C 
ATOM     16  O   UNL     1       6.504   4.644  18.487  0.00  0.00    +0.000 OA
ATOM     17  C   UNL     1       5.225   4.207  18.293  0.00  0.00    +0.000 A 
ATOM     18  C   UNL     1       4.447   4.025  19.433  0.00  0.00    +0.000 A 
ATOM     19  C   UNL     1       3.140   3.557  19.315  0.00  0.00    +0.000 A 
ATOM     20  C   UNL     1       2.615   3.261  18.055  0.00  0.00    +0.000 A 
ATOM     21  C   UNL     1       3.399   3.429  16.910  0.00  0.00    +0.000 A 
ATOM     22  C   UNL     1       4.701   3.909  17.032  0.00  0.00    +0.000 A 
ATOM     23  N   UNL     1       5.499   4.064  15.898  0.00  0.00    +0.000 N 
ATOM     24  C   UNL     1       6.755   4.604  15.971  0.00  0.00    +0.000 C 
ATOM     25  O   UNL     1       7.471   4.680  14.978  0.00  0.00    +0.000 OA
ATOM     26  H   UNL     1       5.185   3.746  14.989  0.00  0.00    +0.000 HD
ENDBRANCH  14  15
ENDBRANCH   2  14
TORSDOF 5
ENDMDL
MODEL 3
REMARK VINA RESULT:      -7.9      4.582      7.938
REMARK  Name = 
REMARK  6 active torsions:
REMARK  status: ('A' for Active; 'I' for Inactive)
REMARK    1  A    between atoms: C_1  and  C_2
REMARK    2  A    between atoms: N_7  and  C_8
REMARK    3  A    between atoms: C_8  and  C_9
REMARK    4  A    between atoms: C_9  and  N_10
REMARK    5  A    between atoms: C_11  and  C_13
REMARK    6  A    between atoms: C_13  and  C_14
REMARK                            x       y       z     vdW  Elec       q    Type
REMARK                         _______ _______ _______ _____ _____    ______ ____
ROOT
ATOM      1  N   UNL     1       4.195   6.017  18.469  0.00  0.00    +0.000 N 
ATOM      2  C   UNL     1       4.002   6.877  17.409  0.00  0.00    +0.000 C 
ATOM      3  O   UNL     1       3.266   7.859  17.458  0.00  0.00    +0.000 OA
ATOM      4  H   UNL     1       5.029   5.437  18.481  0.00  0.00    +0.000 HD
ENDROOT
BRANCH   1   5
ATOM      5  C   UNL     1       3.569   6.296  19.745  0.00  0.00    +0.000 C 
BRANCH   5   6
ATOM      6  C   UNL     1       2.647   5.162  20.239  0.00  0.00    +0.000 C 
BRANCH   6  13
ATOM      7  C   UNL     1       3.596   2.190  18.053  0.00  0.00    +0.000 C 
ATOM      8  C   UNL     1       2.818   3.443  18.496  0.00  0.00    +0.000 C 
ATOM      9  C   UNL     1       1.311   3.269  18.220  0.00  0.00    +0.000 C 
ATOM     10  C   UNL     1       0.660   2.272  19.173  0.00  0.00    +0.000 C 
ATOM     11  C   UNL     1       1.013   2.572  20.626  0.00  0.00    +0.000 C 
ATOM     12  C   UNL     1       2.517   2.780  20.822  0.00  0.00    +0.000 C 
ATOM     13  N   UNL     1       3.108   3.784  19.915  0.00  0.00    +0.000 NA
ENDBRANCH   6  13
ENDBRANCH   5   6
ENDBRANCH   1   5
BRANCH   2  14
ATOM     14  C   UNL     1       4.770   6.518  16.164  0.00  0.00    +0.000 C 
BRANCH  14  15
ATOM     15  C   UNL     1       5.619   5.272  16.397  0.00  0.00    +0.000 C 
ATOM     16  O   UNL     1       5.193   4.234  15.512  0.00  0.00    +0.000 OA
ATOM     17  C   UNL     1       5.820   4.221  14.298  0.00  0.00    +0.000 A 
ATOM     18  C   UNL     1       5.188   3.516  13.277  0.00  0.00    +0.000 A 
ATOM     19  C   UNL     1       5.780   3.438  12.018  0.00  0.00    +0.000 A 
ATOM     20  C   UNL     1       7.011   4.056  11.785  0.00  0.00    +0.000 A 
ATOM     21  C   UNL     1       7.653   4.752  12.812  0.00  0.00    +0.000 A 
ATOM     22  C   UNL     1       7.052   4.838  14.066  0.00  0.00    +0.000 A 
ATOM     23  N   UNL     1       7.692   5.516  15.105  0.00  0.00    +0.000 N 
ATOM     24  C   UNL     1       7.097   5.685  16.327  0.00  0.00    +0.000 C 
ATOM     25  O   UNL     1       7.692   6.228  17.251  0.00  0.00    +0.000 OA
ATOM     26  H   UNL     1       8.634   5.869  14.996  0.00  0.00    +0.000 HD
ENDBRANCH  14  15
ENDBRANCH   2  14
TORSDOF 5
ENDMDL
MODEL 4
REMARK VINA RESULT:      -7.9      1.313      1.575
REMARK  Name = 
REMARK  6 active torsions:
REMARK  status: ('A' for Active; 'I' for Inactive)
REMARK    1  A    between atoms: C_1  and  C_2
REMARK    2  A    between atoms: N_7  and  C_8
REMARK    3  A    between atoms: C_8  and  C_9
REMARK    4  A    between atoms: C_9  and  N_10
REMARK    5  A    between atoms: C_11  and  C_13
REMARK    6  A    between atoms: C_13  and  C_14
REMARK                            x       y       z     vdW  Elec       q    Type
REMARK                         _______ _______ _______ _____ _____    ______ ____
ROOT
ATOM      1  N   UNL     1       7.158   8.280  17.860  0.00  0.00    +0.000 N 
ATOM      2  C   UNL     1       6.886   7.114  17.177  0.00  0.00    +0.000 C 
ATOM      3  O   UNL     1       7.662   6.601  16.375  0.00  0.00    +0.000 OA
ATOM      4  H   UNL     1       6.648   8.475  18.716  0.00  0.00    +0.000 HD
ENDROOT
BRANCH   1   5
ATOM      5  C   UNL     1       8.445   8.924  17.700  0.00  0.00    +0.000 C 
BRANCH   5   6
ATOM      6  C   UNL     1       8.976   9.570  18.996  0.00  0.00    +0.000 C 
BRANCH   6  13
ATOM      7  C   UNL     1       8.819  13.185  17.806  0.00  0.00    +0.000 C 
ATOM      8  C   UNL     1       9.321  11.732  17.887  0.00  0.00    +0.000 C 
ATOM      9  C   UNL     1      10.860  11.687  17.807  0.00  0.00    +0.000 C 
ATOM     10  C   UNL     1      11.522  12.207  19.079  0.00  0.00    +0.000 C 
ATOM     11  C   UNL     1      10.927  11.558  20.325  0.00  0.00    +0.000 C 
ATOM     12  C   UNL     1       9.397  11.595  20.319  0.00  0.00    +0.000 C 
ATOM     13  N   UNL     1       8.787  11.043  19.093  0.00  0.00    +0.000 NA
ENDBRANCH   6  13
ENDBRANCH   5   6
ENDBRANCH   1   5
BRANCH   2  14
ATOM     14  C   UNL     1       5.545   6.503  17.491  0.00  0.00    +0.000 C 
BRANCH  14  15
ATOM     15  C   UNL     1       5.711   5.073  17.996  0.00  0.00    +0.000 C 
ATOM     16  O   UNL     1       5.055   4.935  19.258  0.00  0.00    +0.000 OA
ATOM     17  C   UNL     1       3.741   4.572  19.185  0.00  0.00    +0.000 A 
ATOM     18  C   UNL     1       2.963   4.808  20.316  0.00  0.00    +0.000 A 
ATOM     19  C   UNL     1       1.619   4.441  20.324  0.00  0.00    +0.000 A 
ATOM     20  C   UNL     1       1.056   3.825  19.204  0.00  0.00    +0.000 A 
ATOM     21  C   UNL     1       1.838   3.574  18.074  0.00  0.00    +0.000 A 
ATOM     22  C   UNL     1       3.178   3.955  18.065  0.00  0.00    +0.000 A 
ATOM     23  N   UNL     1       3.973   3.693  16.948  0.00  0.00    +0.000 N 
ATOM     24  C   UNL     1       5.272   4.120  16.874  0.00  0.00    +0.000 C 
ATOM     25  O   UNL     1       5.980   3.833  15.915  0.00  0.00    +0.000 OA
ATOM     26  H   UNL     1       3.622   3.145  16.172  0.00  0.00    +0.000 HD
ENDBRANCH  14  15
ENDBRANCH   2  14
TORSDOF 5
ENDMDL
MODEL 5
REMARK VINA RESULT:      -7.9      1.251      1.708
REMARK  Name = 
REMARK  6 active torsions:
REMARK  status: ('A' for Active; 'I' for Inactive)
REMARK    1  A    between atoms: C_1  and  C_2
REMARK    2  A    between atoms: N_7  and  C_8
REMARK    3  A    between atoms: C_8  and  C_9
REMARK    4  A    between atoms: C_9  and  N_10
REMARK    5  A    between atoms: C_11  and  C_13
REMARK    6  A    between atoms: C_13  and  C_14
REMARK                            x       y       z     vdW  Elec       q    Type
REMARK                         _______ _______ _______ _____ _____    ______ ____
ROOT
ATOM      1  N   UNL     1       7.256   8.394  17.915  0.00  0.00    +0.000 N 
ATOM      2  C   UNL     1       7.146   7.179  17.274  0.00  0.00    +0.000 C 
ATOM      3  O   UNL     1       7.916   6.805  16.393  0.00  0.00    +0.000 OA
ATOM      4  H   UNL     1       6.814   8.509  18.822  0.00  0.00    +0.000 HD
ENDROOT
BRANCH   1   5
ATOM      5  C   UNL     1       8.368   9.271  17.609  0.00  0.00    +0.000 C 
BRANCH   5   6
ATOM      6  C   UNL     1       8.915  10.024  18.838  0.00  0.00    +0.000 C 
BRANCH   6  13
ATOM      7  C   UNL     1      10.503  13.125  17.297  0.00  0.00    +0.000 C 
ATOM      8  C   UNL     1      10.414  11.680  17.823  0.00  0.00    +0.000 C 
ATOM      9  C   UNL     1      11.697  11.305  18.590  0.00  0.00    +0.000 C 
ATOM     10  C   UNL     1      11.792  12.012  19.939  0.00  0.00    +0.000 C 
ATOM     11  C   UNL     1      10.502  11.866  20.739  0.00  0.00    +0.000 C 
ATOM     12  C   UNL     1       9.265  12.208  19.905  0.00  0.00    +0.000 C 
ATOM     13  N   UNL     1       9.180  11.474  18.627  0.00  0.00    +0.000 NA
ENDBRANCH   6  13
ENDBRANCH   5   6
ENDBRANCH   1   5
BRANCH   2  14
ATOM     14  C   UNL     1       5.993   6.328  17.738  0.00  0.00    +0.000 C 
BRANCH  14  15
ATOM     15  C   UNL     1       6.283   4.850  17.493  0.00  0.00    +0.000 C 
ATOM     16  O   UNL     1       5.937   4.098  18.658  0.00  0.00    +0.000 OA
ATOM     17  C   UNL     1       4.645   3.659  18.695  0.00  0.00    +0.000 A 
ATOM     18  C   UNL     1       4.148   3.284  19.941  0.00  0.00    +0.000 A 
ATOM     19  C   UNL     1       2.845   2.803  20.053  0.00  0.00    +0.000 A 
ATOM     20  C   UNL     1       2.044   2.685  18.915  0.00  0.00    +0.000 A 
ATOM     21  C   UNL     1       2.545   3.046  17.663  0.00  0.00    +0.000 A 
ATOM     22  C   UNL     1       3.844   3.540  17.557  0.00  0.00    +0.000 A 
ATOM     23  N   UNL     1       4.362   3.888  16.308  0.00  0.00    +0.000 N 
ATOM     24  C   UNL     1       5.605   4.446  16.176  0.00  0.00    +0.000 C 
ATOM     25  O   UNL     1       6.074   4.692  15.070  0.00  0.00    +0.000 OA
ATOM     26  H   UNL     1       3.845   3.702  15.457  0.00  0.00    +0.000 HD
ENDBRANCH  14  15
ENDBRANCH   2  14
TORSDOF 5
ENDMDL
MODEL 6
REMARK VINA RESULT:      -7.8      1.009      1.067
REMARK  Name = 
REMARK  6 active torsions:
REMARK  status: ('A' for Active; 'I' for Inactive)
REMARK    1  A    between atoms: C_1  and  C_2
REMARK    2  A    between atoms: N_7  and  C_8
REMARK    3  A    between atoms: C_8  and  C_9
REMARK    4  A    between atoms: C_9  and  N_10
REMARK    5  A    between atoms: C_11  and  C_13
REMARK    6  A    between atoms: C_13  and  C_14
REMARK                            x       y       z     vdW  Elec       q    Type
REMARK                         _______ _______ _______ _____ _____    ______ ____
ROOT
ATOM      1  N   UNL     1       7.451   8.754  17.982  0.00  0.00    +0.000 N 
ATOM      2  C   UNL     1       7.309   7.584  17.266  0.00  0.00    +0.000 C 
ATOM      3  O   UNL     1       8.137   7.183  16.453  0.00  0.00    +0.000 OA
ATOM      4  H   UNL     1       6.923   8.867  18.842  0.00  0.00    +0.000 HD
ENDROOT
BRANCH   1   5
ATOM      5  C   UNL     1       8.660   9.540  17.844  0.00  0.00    +0.000 C 
BRANCH   5   6
ATOM      6  C   UNL     1       9.015  10.350  19.107  0.00  0.00    +0.000 C 
BRANCH   6  13
ATOM      7  C   UNL     1      10.463  13.413  17.366  0.00  0.00    +0.000 C 
ATOM      8  C   UNL     1      10.398  11.963  17.880  0.00  0.00    +0.000 C 
ATOM      9  C   UNL     1      11.773  11.520  18.421  0.00  0.00    +0.000 C 
ATOM     10  C   UNL     1      12.118  12.195  19.745  0.00  0.00    +0.000 C 
ATOM     11  C   UNL     1      10.972  12.086  20.745  0.00  0.00    +0.000 C 
ATOM     12  C   UNL     1       9.631  12.496  20.131  0.00  0.00    +0.000 C 
ATOM     13  N   UNL     1       9.305  11.792  18.875  0.00  0.00    +0.000 NA
ENDBRANCH   6  13
ENDBRANCH   5   6
ENDBRANCH   1   5
BRANCH   2  14
ATOM     14  C   UNL     1       6.044   6.821  17.558  0.00  0.00    +0.000 C 
BRANCH  14  15
ATOM     15  C   UNL     1       6.336   5.617  18.450  0.00  0.00    +0.000 C 
ATOM     16  O   UNL     1       5.271   5.450  19.387  0.00  0.00    +0.000 OA
ATOM     17  C   UNL     1       4.244   4.661  18.955  0.00  0.00    +0.000 A 
ATOM     18  C   UNL     1       3.034   4.782  19.633  0.00  0.00    +0.000 A 
ATOM     19  C   UNL     1       1.948   3.991  19.264  0.00  0.00    +0.000 A 
ATOM     20  C   UNL     1       2.077   3.069  18.223  0.00  0.00    +0.000 A 
ATOM     21  C   UNL     1       3.294   2.935  17.551  0.00  0.00    +0.000 A 
ATOM     22  C   UNL     1       4.374   3.737  17.914  0.00  0.00    +0.000 A 
ATOM     23  N   UNL     1       5.600   3.600  17.261  0.00  0.00    +0.000 N 
ATOM     24  C   UNL     1       6.659   4.422  17.540  0.00  0.00    +0.000 C 
ATOM     25  O   UNL     1       7.749   4.254  17.005  0.00  0.00    +0.000 OA
ATOM     26  H   UNL     1       5.754   2.861  16.587  0.00  0.00    +0.000 HD
ENDBRANCH  14  15
ENDBRANCH   2  14
TORSDOF 5
ENDMDL
MODEL 7
REMARK VINA RESULT:      -7.8      1.495      2.049
REMARK  Name = 
REMARK  6 active torsions:
REMARK  status: ('A' for Active; 'I' for Inactive)
REMARK    1  A    between atoms: C_1  and  C_2
REMARK    2  A    between atoms: N_7  and  C_8
REMARK    3  A    between atoms: C_8  and  C_9
REMARK    4  A    between atoms: C_9  and  N_10
REMARK    5  A    between atoms: C_11  and  C_13
REMARK    6  A    between atoms: C_13  and  C_14
REMARK                            x       y       z     vdW  Elec       q    Type
REMARK                         _______ _______ _______ _____ _____    ______ ____
ROOT
ATOM      1  N   UNL     1       7.589   7.852  18.414  0.00  0.00    +0.000 N 
ATOM      2  C   UNL     1       7.305   6.739  17.652  0.00  0.00    +0.000 C 
ATOM      3  O   UNL     1       7.601   6.637  16.464  0.00  0.00    +0.000 OA
ATOM      4  H   UNL     1       7.617   7.756  19.425  0.00  0.00    +0.000 HD
ENDROOT
BRANCH   1   5
ATOM      5  C   UNL     1       8.336   8.949  17.836  0.00  0.00    +0.000 C 
BRANCH   5   6
ATOM      6  C   UNL     1       9.156   9.748  18.869  0.00  0.00    +0.000 C 
BRANCH   6  13
ATOM      7  C   UNL     1      10.368  12.992  17.281  0.00  0.00    +0.000 C 
ATOM      8  C   UNL     1      10.455  11.563  17.849  0.00  0.00    +0.000 C 
ATOM      9  C   UNL     1      11.749  11.385  18.668  0.00  0.00    +0.000 C 
ATOM     10  C   UNL     1      11.701  12.134  19.996  0.00  0.00    +0.000 C 
ATOM     11  C   UNL     1      10.415  11.837  20.760  0.00  0.00    +0.000 C 
ATOM     12  C   UNL     1       9.173  11.987  19.878  0.00  0.00    +0.000 C 
ATOM     13  N   UNL     1       9.232  11.214  18.621  0.00  0.00    +0.000 NA
ENDBRANCH   6  13
ENDBRANCH   5   6
ENDBRANCH   1   5
BRANCH   2  14
ATOM     14  C   UNL     1       6.593   5.637  18.392  0.00  0.00    +0.000 C 
BRANCH  14  15
ATOM     15  C   UNL     1       5.364   5.174  17.614  0.00  0.00    +0.000 C 
ATOM     16  O   UNL     1       4.966   3.882  18.078  0.00  0.00    +0.000 OA
ATOM     17  C   UNL     1       4.086   3.893  19.122  0.00  0.00    +0.000 A 
ATOM     18  C   UNL     1       3.978   2.717  19.860  0.00  0.00    +0.000 A 
ATOM     19  C   UNL     1       3.082   2.645  20.924  0.00  0.00    +0.000 A 
ATOM     20  C   UNL     1       2.285   3.747  21.243  0.00  0.00    +0.000 A 
ATOM     21  C   UNL     1       2.382   4.923  20.495  0.00  0.00    +0.000 A 
ATOM     22  C   UNL     1       3.288   4.995  19.440  0.00  0.00    +0.000 A 
ATOM     23  N   UNL     1       3.382   6.159  18.675  0.00  0.00    +0.000 N 
ATOM     24  C   UNL     1       4.313   6.292  17.680  0.00  0.00    +0.000 C 
ATOM     25  O   UNL     1       4.346   7.294  16.974  0.00  0.00    +0.000 OA
ATOM     26  H   UNL     1       2.736   6.927  18.810  0.00  0.00    +0.000 HD
ENDBRANCH  14  15
ENDBRANCH   2  14
TORSDOF 5
ENDMDL
MODEL 8
REMARK VINA RESULT:      -7.8      0.527      1.586
REMARK  Name = 
REMARK  6 active torsions:
REMARK  status: ('A' for Active; 'I' for Inactive)
REMARK    1  A    between atoms: C_1  and  C_2
REMARK    2  A    between atoms: N_7  and  C_8
REMARK    3  A    between atoms: C_8  and  C_9
REMARK    4  A    between atoms: C_9  and  N_10
REMARK    5  A    between atoms: C_11  and  C_13
REMARK    6  A    between atoms: C_13  and  C_14
REMARK                            x       y       z     vdW  Elec       q    Type
REMARK                         _______ _______ _______ _____ _____    ______ ____
ROOT
ATOM      1  N   UNL     1       7.131   8.214  17.775  0.00  0.00    +0.000 N 
ATOM      2  C   UNL     1       6.959   7.052  17.054  0.00  0.00    +0.000 C 
ATOM      3  O   UNL     1       7.848   6.532  16.384  0.00  0.00    +0.000 OA
ATOM      4  H   UNL     1       6.493   8.412  18.539  0.00  0.00    +0.000 HD
ENDROOT
BRANCH   1   5
ATOM      5  C   UNL     1       8.434   8.845  17.824  0.00  0.00    +0.000 C 
BRANCH   5   6
ATOM      6  C   UNL     1       8.412  10.255  18.448  0.00  0.00    +0.000 C 
BRANCH   6  13
ATOM      7  C   UNL     1      10.944  11.967  20.721  0.00  0.00    +0.000 C 
ATOM      8  C   UNL     1       9.590  11.710  20.035  0.00  0.00    +0.000 C 
ATOM      9  C   UNL     1       8.923  13.042  19.637  0.00  0.00    +0.000 C 
ATOM     10  C   UNL     1       9.628  13.713  18.463  0.00  0.00    +0.000 C 
ATOM     11  C   UNL     1       9.847  12.739  17.310  0.00  0.00    +0.000 C 
ATOM     12  C   UNL     1      10.467  11.421  17.780  0.00  0.00    +0.000 C 
ATOM     13  N   UNL     1       9.737  10.774  18.887  0.00  0.00    +0.000 NA
ENDBRANCH   6  13
ENDBRANCH   5   6
ENDBRANCH   1   5
BRANCH   2  14
ATOM     14  C   UNL     1       5.580   6.454  17.148  0.00  0.00    +0.000 C 
BRANCH  14  15
ATOM     15  C   UNL     1       5.250   6.088  18.592  0.00  0.00    +0.000 C 
ATOM     16  O   UNL     1       3.834   5.968  18.741  0.00  0.00    +0.000 OA
ATOM     17  C   UNL     1       3.334   4.721  18.495  0.00  0.00    +0.000 A 
ATOM     18  C   UNL     1       1.969   4.636  18.234  0.00  0.00    +0.000 A 
ATOM     19  C   UNL     1       1.384   3.394  17.998  0.00  0.00    +0.000 A 
ATOM     20  C   UNL     1       2.163   2.235  18.034  0.00  0.00    +0.000 A 
ATOM     21  C   UNL     1       3.530   2.317  18.311  0.00  0.00    +0.000 A 
ATOM     22  C   UNL     1       4.114   3.563  18.533  0.00  0.00    +0.000 A 
ATOM     23  N   UNL     1       5.476   3.656  18.827  0.00  0.00    +0.000 N 
ATOM     24  C   UNL     1       6.098   4.866  18.976  0.00  0.00    +0.000 C 
ATOM     25  O   UNL     1       7.280   4.936  19.294  0.00  0.00    +0.000 OA
ATOM     26  H   UNL     1       6.036   2.826  18.976  0.00  0.00    +0.000 HD
ENDBRANCH  14  15
ENDBRANCH   2  14
TORSDOF 5
ENDMDL
MODEL 9
REMARK VINA RESULT:      -7.7      1.297      2.039
REMARK  Name = 
REMARK  6 active torsions:
REMARK  status: ('A' for Active; 'I' for Inactive)
REMARK    1  A    between atoms: C_1  and  C_2
REMARK    2  A    between atoms: N_7  and  C_8
REMARK    3  A    between atoms: C_8  and  C_9
REMARK    4  A    between atoms: C_9  and  N_10
REMARK    5  A    between atoms: C_11  and  C_13
REMARK    6  A    between atoms: C_13  and  C_14
REMARK                            x       y       z     vdW  Elec       q    Type
REMARK                         _______ _______ _______ _____ _____    ______ ____
ROOT
ATOM      1  N   UNL     1       7.149   8.494  17.843  0.00  0.00    +0.000 N 
ATOM      2  C   UNL     1       6.965   7.286  17.204  0.00  0.00    +0.000 C 
ATOM      3  O   UNL     1       7.807   6.769  16.476  0.00  0.00    +0.000 OA
ATOM      4  H   UNL     1       6.581   8.707  18.657  0.00  0.00    +0.000 HD
ENDROOT
BRANCH   1   5
ATOM      5  C   UNL     1       8.418   9.183  17.727  0.00  0.00    +0.000 C 
BRANCH   5   6
ATOM      6  C   UNL     1       8.870   9.865  19.034  0.00  0.00    +0.000 C 
BRANCH   6  13
ATOM      7  C   UNL     1      11.722  12.122  20.165  0.00  0.00    +0.000 C 
ATOM      8  C   UNL     1      10.333  11.458  20.193  0.00  0.00    +0.000 C 
ATOM      9  C   UNL     1       9.254  12.479  20.604  0.00  0.00    +0.000 C 
ATOM     10  C   UNL     1       8.975  13.500  19.504  0.00  0.00    +0.000 C 
ATOM     11  C   UNL     1       8.735  12.822  18.159  0.00  0.00    +0.000 C 
ATOM     12  C   UNL     1       9.816  11.788  17.834  0.00  0.00    +0.000 C 
ATOM     13  N   UNL     1      10.030  10.788  18.899  0.00  0.00    +0.000 NA
ENDBRANCH   6  13
ENDBRANCH   5   6
ENDBRANCH   1   5
BRANCH   2  14
ATOM     14  C   UNL     1       5.632   6.636  17.468  0.00  0.00    +0.000 C 
BRANCH  14  15
ATOM     15  C   UNL     1       5.823   5.227  18.023  0.00  0.00    +0.000 C 
ATOM     16  O   UNL     1       5.098   5.096  19.248  0.00  0.00    +0.000 OA
ATOM     17  C   UNL     1       3.805   4.678  19.108  0.00  0.00    +0.000 A 
ATOM     18  C   UNL     1       2.953   4.913  20.184  0.00  0.00    +0.000 A 
ATOM     19  C   UNL     1       1.626   4.492  20.123  0.00  0.00    +0.000 A 
ATOM     20  C   UNL     1       1.155   3.825  18.990  0.00  0.00    +0.000 A 
ATOM     21  C   UNL     1       2.012   3.576  17.916  0.00  0.00    +0.000 A 
ATOM     22  C   UNL     1       3.335   4.010  17.975  0.00  0.00    +0.000 A 
ATOM     23  N   UNL     1       4.205   3.751  16.915  0.00  0.00    +0.000 N 
ATOM     24  C   UNL     1       5.489   4.228  16.905  0.00  0.00    +0.000 C 
ATOM     25  O   UNL     1       6.264   3.944  15.998  0.00  0.00    +0.000 OA
ATOM     26  H   UNL     1       3.923   3.169  16.136  0.00  0.00    +0.000 HD
ENDBRANCH  14  15
ENDBRANCH   2  14
TORSDOF 5
ENDMDL
