MODEL 1
REMARK VINA RESULT:      -8.2      0.000      0.000
REMARK  Name = 
REMARK  10 active torsions:
REMARK  status: ('A' for Active; 'I' for Inactive)
REMARK    1  A    between atoms: C_1  and  C_2
REMARK    2  A    between atoms: C_2  and  C_3
REMARK    3  A    between atoms: C_3  and  N_4
REMARK    4  A    between atoms: C_3  and  C_11
REMARK    5  A    between atoms: C_5  and  C_7
REMARK    6  A    between atoms: C_7  and  C_8
REMARK    7  A    between atoms: C_7  and  N_9
REMARK    8  A    between atoms: N_9  and  C_10
REMARK    9  A    between atoms: C_17  and  C_18
REMARK   10  A    between atoms: N_20  and  C_21
REMARK                            x       y       z     vdW  Elec       q    Type
REMARK                         _______ _______ _______ _____ _____    ______ ____
ROOT
ATOM      1  C   UNL     1       0.755  11.239  19.084  0.00  0.00    +0.000 C 
ATOM      2  O   UNL     1       1.884  11.572  18.699  0.00  0.00    +0.000 OA
ATOM      3  N   UNL     1       0.590  10.116  19.858  0.00  0.00    +0.000 N 
ATOM      4  C   UNL     1      -0.586   9.642  20.555  0.00  0.00    +0.000 C 
ATOM      5  C   UNL     1      -0.004   8.890  21.741  0.00  0.00    +0.000 C 
ATOM      6  C   UNL     1       1.258   8.245  21.183  0.00  0.00    +0.000 C 
ATOM      7  C   UNL     1       1.695   9.163  20.032  0.00  0.00    +0.000 C 
ENDROOT
BRANCH   7   8
ATOM      8  C   UNL     1       1.891   8.301  18.766  0.00  0.00    +0.000 C 
ATOM      9  O   UNL     1       1.443   8.616  17.665  0.00  0.00    +0.000 OA
ATOM     10  N   UNL     1       2.514   7.093  18.992  0.00  0.00    +0.000 N 
ATOM     11  H   UNL     1       2.929   6.904  19.896  0.00  0.00    +0.000 HD
BRANCH  10  12
ATOM     12  C   UNL     1       2.797   6.146  17.918  0.00  0.00    +0.000 C 
ATOM     13  C   UNL     1       2.073   4.813  18.153  0.00  0.00    +0.000 C 
ATOM     14  C   UNL     1       2.733   4.011  19.271  0.00  0.00    +0.000 C 
ATOM     15  C   UNL     1       4.184   3.683  18.927  0.00  0.00    +0.000 C 
ATOM     16  C   UNL     1       4.954   4.856  18.372  0.00  0.00    +0.000 A 
ATOM     17  C   UNL     1       6.356   4.798  18.345  0.00  0.00    +0.000 A 
ATOM     18  C   UNL     1       7.101   5.846  17.804  0.00  0.00    +0.000 A 
ATOM     19  C   UNL     1       6.457   6.951  17.256  0.00  0.00    +0.000 A 
ATOM     20  C   UNL     1       5.065   7.014  17.263  0.00  0.00    +0.000 A 
ATOM     21  C   UNL     1       4.301   5.977  17.826  0.00  0.00    +0.000 A 
ENDBRANCH  10  12
ENDBRANCH   7   8
BRANCH   1  22
ATOM     22  C   UNL     1      -0.447  12.154  18.727  0.00  0.00    +0.000 C 
BRANCH  22  23
ATOM     23  N   UNL     1      -1.361  11.552  17.748  0.00  0.00    +0.000 N 
ATOM     24  C   UNL     1      -2.719  11.503  18.012  0.00  0.00    +0.000 C 
ATOM     25  O   UNL     1      -3.195  11.894  19.076  0.00  0.00    +0.000 OA
ATOM     26  H   UNL     1      -1.019  11.299  16.830  0.00  0.00    +0.000 HD
BRANCH  24  27
ATOM     27  C   UNL     1      -3.603  10.986  16.859  0.00  0.00    +0.000 C 
ATOM     28  C   UNL     1      -4.933  11.737  16.914  0.00  0.00    +0.000 C 
BRANCH  27  29
ATOM     29  N   UNL     1      -2.979  11.266  15.549  0.00  0.00    +0.000 NA
ATOM     30  C   UNL     1      -3.213  10.231  14.556  0.00  0.00    +0.000 C 
ATOM     31  H   UNL     1      -1.971  11.375  15.693  0.00  0.00    +0.000 HD
ENDBRANCH  27  29
ENDBRANCH  24  27
ENDBRANCH  22  23
BRANCH  22  33
ATOM     32  C   UNL     1      -0.365  14.602  19.461  0.00  0.00    +0.000 C 
ATOM     33  C   UNL     1      -0.098  13.600  18.351  0.00  0.00    +0.000 C 
ENDBRANCH  22  33
ENDBRANCH   1  22
TORSDOF 7
ENDMDL
MODEL 2
REMARK VINA RESULT:      -7.8      0.619      1.025
REMARK  Name = 
REMARK  10 active torsions:
REMARK  status: ('A' for Active; 'I' for Inactive)
REMARK    1  A    between atoms: C_1  and  C_2
REMARK    2  A    between atoms: C_2  and  C_3
REMARK    3  A    between atoms: C_3  and  N_4
REMARK    4  A    between atoms: C_3  and  C_11
REMARK    5  A    between atoms: C_5  and  C_7
REMARK    6  A    between atoms: C_7  and  C_8
REMARK    7  A    between atoms: C_7  and  N_9
REMARK    8  A    between atoms: N_9  and  C_10
REMARK    9  A    between atoms: C_17  and  C_18
REMARK   10  A    between atoms: N_20  and  C_21
REMARK                            x       y       z     vdW  Elec       q    Type
REMARK                         _______ _______ _______ _____ _____    ______ ____
ROOT
ATOM      1  C   UNL     1       0.927  11.253  19.123  0.00  0.00    +0.000 C 
ATOM      2  O   UNL     1       2.081  11.540  18.776  0.00  0.00    +0.000 OA
ATOM      3  N   UNL     1       0.685  10.114  19.853  0.00  0.00    +0.000 N 
ATOM      4  C   UNL     1      -0.530   9.678  20.506  0.00  0.00    +0.000 C 
ATOM      5  C   UNL     1      -0.016   8.855  21.677  0.00  0.00    +0.000 C 
ATOM      6  C   UNL     1       1.224   8.165  21.124  0.00  0.00    +0.000 C 
ATOM      7  C   UNL     1       1.735   9.099  20.017  0.00  0.00    +0.000 C 
ENDROOT
BRANCH   7   8
ATOM      8  C   UNL     1       1.918   8.271  18.726  0.00  0.00    +0.000 C 
ATOM      9  O   UNL     1       1.461   8.619  17.638  0.00  0.00    +0.000 OA
ATOM     10  N   UNL     1       2.539   7.056  18.912  0.00  0.00    +0.000 N 
ATOM     11  H   UNL     1       2.961   6.840  19.807  0.00  0.00    +0.000 HD
BRANCH  10  12
ATOM     12  C   UNL     1       2.810   6.139  17.810  0.00  0.00    +0.000 C 
ATOM     13  C   UNL     1       2.041   4.822  17.987  0.00  0.00    +0.000 C 
ATOM     14  C   UNL     1       2.659   3.961  19.085  0.00  0.00    +0.000 C 
ATOM     15  C   UNL     1       4.104   3.601  18.751  0.00  0.00    +0.000 C 
ATOM     16  C   UNL     1       4.918   4.767  18.249  0.00  0.00    +0.000 A 
ATOM     17  C   UNL     1       6.318   4.667  18.241  0.00  0.00    +0.000 A 
ATOM     18  C   UNL     1       7.104   5.710  17.748  0.00  0.00    +0.000 A 
ATOM     19  C   UNL     1       6.502   6.852  17.230  0.00  0.00    +0.000 A 
ATOM     20  C   UNL     1       5.113   6.958  17.219  0.00  0.00    +0.000 A 
ATOM     21  C   UNL     1       4.309   5.926  17.734  0.00  0.00    +0.000 A 
ENDBRANCH  10  12
ENDBRANCH   7   8
BRANCH   1  22
ATOM     22  C   UNL     1      -0.218  12.240  18.772  0.00  0.00    +0.000 C 
BRANCH  22  23
ATOM     23  N   UNL     1      -1.147  11.715  17.764  0.00  0.00    +0.000 N 
ATOM     24  C   UNL     1      -2.502  11.655  18.040  0.00  0.00    +0.000 C 
ATOM     25  O   UNL     1      -2.963  11.973  19.134  0.00  0.00    +0.000 OA
ATOM     26  H   UNL     1      -0.816  11.525  16.827  0.00  0.00    +0.000 HD
BRANCH  24  27
ATOM     27  C   UNL     1      -3.402  11.226  16.864  0.00  0.00    +0.000 C 
ATOM     28  C   UNL     1      -2.880   9.890  16.336  0.00  0.00    +0.000 C 
BRANCH  27  29
ATOM     29  N   UNL     1      -4.796  11.022  17.313  0.00  0.00    +0.000 NA
ATOM     30  C   UNL     1      -5.654  12.174  17.099  0.00  0.00    +0.000 C 
ATOM     31  H   UNL     1      -4.778  10.793  18.311  0.00  0.00    +0.000 HD
ENDBRANCH  27  29
ENDBRANCH  24  27
ENDBRANCH  22  23
BRANCH  22  33
ATOM     32  C   UNL     1      -0.422  14.728  19.329  0.00  0.00    +0.000 C 
ATOM     33  C   UNL     1       0.215  13.674  18.440  0.00  0.00    +0.000 C 
ENDBRANCH  22  33
ENDBRANCH   1  22
TORSDOF 7
ENDMDL
MODEL 3
REMARK VINA RESULT:      -7.1      0.934      1.305
REMARK  Name = 
REMARK  10 active torsions:
REMARK  status: ('A' for Active; 'I' for Inactive)
REMARK    1  A    between atoms: C_1  and  C_2
REMARK    2  A    between atoms: C_2  and  C_3
REMARK    3  A    between atoms: C_3  and  N_4
REMARK    4  A    between atoms: C_3  and  C_11
REMARK    5  A    between atoms: C_5  and  C_7
REMARK    6  A    between atoms: C_7  and  C_8
REMARK    7  A    between atoms: C_7  and  N_9
REMARK    8  A    between atoms: N_9  and  C_10
REMARK    9  A    between atoms: C_17  and  C_18
REMARK   10  A    between atoms: N_20  and  C_21
REMARK                            x       y       z     vdW  Elec       q    Type
REMARK                         _______ _______ _______ _____ _____    ______ ____
ROOT
ATOM      1  C   UNL     1       0.025  11.055  19.326  0.00  0.00    +0.000 C 
ATOM      2  O   UNL     1       0.910  11.605  18.656  0.00  0.00    +0.000 OA
ATOM      3  N   UNL     1       0.337  10.009  20.161  0.00  0.00    +0.000 N 
ATOM      4  C   UNL     1      -0.483   9.345  21.151  0.00  0.00    +0.000 C 
ATOM      5  C   UNL     1       0.533   8.875  22.181  0.00  0.00    +0.000 C 
ATOM      6  C   UNL     1       1.750   8.493  21.347  0.00  0.00    +0.000 C 
ATOM      7  C   UNL     1       1.656   9.367  20.088  0.00  0.00    +0.000 C 
ENDROOT
BRANCH   7   8
ATOM      8  C   UNL     1       1.762   8.451  18.849  0.00  0.00    +0.000 C 
ATOM      9  O   UNL     1       1.286   8.748  17.754  0.00  0.00    +0.000 OA
ATOM     10  N   UNL     1       2.336   7.224  19.096  0.00  0.00    +0.000 N 
ATOM     11  H   UNL     1       2.777   7.047  19.991  0.00  0.00    +0.000 HD
BRANCH  10  12
ATOM     12  C   UNL     1       2.533   6.227  18.049  0.00  0.00    +0.000 C 
ATOM     13  C   UNL     1       1.827   4.910  18.402  0.00  0.00    +0.000 C 
ATOM     14  C   UNL     1       2.570   4.157  19.500  0.00  0.00    +0.000 C 
ATOM     15  C   UNL     1       3.989   3.805  19.060  0.00  0.00    +0.000 C 
ATOM     16  C   UNL     1       4.716   4.947  18.393  0.00  0.00    +0.000 A 
ATOM     17  C   UNL     1       6.111   4.880  18.259  0.00  0.00    +0.000 A 
ATOM     18  C   UNL     1       6.814   5.898  17.613  0.00  0.00    +0.000 A 
ATOM     19  C   UNL     1       6.131   6.979  17.066  0.00  0.00    +0.000 A 
ATOM     20  C   UNL     1       4.744   7.051  17.179  0.00  0.00    +0.000 A 
ATOM     21  C   UNL     1       4.025   6.045  17.848  0.00  0.00    +0.000 A 
ENDBRANCH  10  12
ENDBRANCH   7   8
BRANCH   1  22
ATOM     22  C   UNL     1      -1.419  11.619  19.248  0.00  0.00    +0.000 C 
BRANCH  22  23
ATOM     23  N   UNL     1      -1.909  11.766  17.873  0.00  0.00    +0.000 N 
ATOM     24  C   UNL     1      -2.611  10.732  17.277  0.00  0.00    +0.000 C 
ATOM     25  O   UNL     1      -2.794   9.654  17.839  0.00  0.00    +0.000 OA
ATOM     26  H   UNL     1      -1.853  12.665  17.412  0.00  0.00    +0.000 HD
BRANCH  24  27
ATOM     27  C   UNL     1      -3.206  11.044  15.889  0.00  0.00    +0.000 C 
ATOM     28  C   UNL     1      -2.836   9.896  14.951  0.00  0.00    +0.000 C 
BRANCH  27  29
ATOM     29  N   UNL     1      -4.681  11.120  15.951  0.00  0.00    +0.000 NA
ATOM     30  C   UNL     1      -5.178  12.022  16.976  0.00  0.00    +0.000 C 
ATOM     31  H   UNL     1      -5.041  10.178  16.126  0.00  0.00    +0.000 HD
ENDBRANCH  27  29
ENDBRANCH  24  27
ENDBRANCH  22  23
BRANCH  22  33
ATOM     32  C   UNL     1      -0.428  13.556  20.593  0.00  0.00    +0.000 C 
ATOM     33  C   UNL     1      -1.688  12.883  20.076  0.00  0.00    +0.000 C 
ENDBRANCH  22  33
ENDBRANCH   1  22
TORSDOF 7
ENDMDL
MODEL 4
REMARK VINA RESULT:      -6.8      1.792      3.062
REMARK  Name = 
REMARK  10 active torsions:
REMARK  status: ('A' for Active; 'I' for Inactive)
REMARK    1  A    between atoms: C_1  and  C_2
REMARK    2  A    between atoms: C_2  and  C_3
REMARK    3  A    between atoms: C_3  and  N_4
REMARK    4  A    between atoms: C_3  and  C_11
REMARK    5  A    between atoms: C_5  and  C_7
REMARK    6  A    between atoms: C_7  and  C_8
REMARK    7  A    between atoms: C_7  and  N_9
REMARK    8  A    between atoms: N_9  and  C_10
REMARK    9  A    between atoms: C_17  and  C_18
REMARK   10  A    between atoms: N_20  and  C_21
REMARK                            x       y       z     vdW  Elec       q    Type
REMARK                         _______ _______ _______ _____ _____    ______ ____
ROOT
ATOM      1  C   UNL     1       0.481  11.006  18.950  0.00  0.00    +0.000 C 
ATOM      2  O   UNL     1       1.555  11.441  18.511  0.00  0.00    +0.000 OA
ATOM      3  N   UNL     1       0.466   9.923  19.796  0.00  0.00    +0.000 N 
ATOM      4  C   UNL     1      -0.630   9.363  20.556  0.00  0.00    +0.000 C 
ATOM      5  C   UNL     1       0.064   8.760  21.767  0.00  0.00    +0.000 C 
ATOM      6  C   UNL     1       1.379   8.229  21.211  0.00  0.00    +0.000 C 
ATOM      7  C   UNL     1       1.678   9.116  19.993  0.00  0.00    +0.000 C 
ENDROOT
BRANCH   7   8
ATOM      8  C   UNL     1       1.944   8.202  18.777  0.00  0.00    +0.000 C 
ATOM      9  O   UNL     1       1.555   8.470  17.641  0.00  0.00    +0.000 OA
ATOM     10  N   UNL     1       2.555   7.008  19.086  0.00  0.00    +0.000 N 
ATOM     11  H   UNL     1       2.921   6.857  20.018  0.00  0.00    +0.000 HD
BRANCH  10  12
ATOM     12  C   UNL     1       2.898   6.018  18.070  0.00  0.00    +0.000 C 
ATOM     13  C   UNL     1       2.299   4.646  18.412  0.00  0.00    +0.000 C 
ATOM     14  C   UNL     1       3.051   3.982  19.561  0.00  0.00    +0.000 C 
ATOM     15  C   UNL     1       4.518   3.759  19.200  0.00  0.00    +0.000 C 
ATOM     16  C   UNL     1       5.169   4.953  18.548  0.00  0.00    +0.000 A 
ATOM     17  C   UNL     1       6.570   5.015  18.486  0.00  0.00    +0.000 A 
ATOM     18  C   UNL     1       7.208   6.084  17.857  0.00  0.00    +0.000 A 
ATOM     19  C   UNL     1       6.457   7.089  17.255  0.00  0.00    +0.000 A 
ATOM     20  C   UNL     1       5.065   7.032  17.296  0.00  0.00    +0.000 A 
ATOM     21  C   UNL     1       4.408   5.973  17.947  0.00  0.00    +0.000 A 
ENDBRANCH  10  12
ENDBRANCH   7   8
BRANCH   1  22
ATOM     22  C   UNL     1      -0.828  11.751  18.575  0.00  0.00    +0.000 C 
BRANCH  22  23
ATOM     23  N   UNL     1      -1.588  12.209  19.743  0.00  0.00    +0.000 N 
ATOM     24  C   UNL     1      -1.462  13.516  20.180  0.00  0.00    +0.000 C 
ATOM     25  O   UNL     1      -0.681  14.309  19.658  0.00  0.00    +0.000 OA
ATOM     26  H   UNL     1      -2.301  11.613  20.144  0.00  0.00    +0.000 HD
BRANCH  24  27
ATOM     27  C   UNL     1      -2.412  13.932  21.321  0.00  0.00    +0.000 C 
ATOM     28  C   UNL     1      -2.865  12.662  22.041  0.00  0.00    +0.000 C 
BRANCH  27  29
ATOM     29  N   UNL     1      -1.714  14.786  22.305  0.00  0.00    +0.000 NA
ATOM     30  C   UNL     1      -1.193  14.056  23.448  0.00  0.00    +0.000 C 
ATOM     31  H   UNL     1      -2.372  15.500  22.630  0.00  0.00    +0.000 HD
ENDBRANCH  27  29
ENDBRANCH  24  27
ENDBRANCH  22  23
BRANCH  22  33
ATOM     32  C   UNL     1      -3.185  10.948  17.997  0.00  0.00    +0.000 C 
ATOM     33  C   UNL     1      -1.734  11.041  17.561  0.00  0.00    +0.000 C 
ENDBRANCH  22  33
ENDBRANCH   1  22
TORSDOF 7
ENDMDL
MODEL 5
REMARK VINA RESULT:      -6.8      1.558      3.152
REMARK  Name = 
REMARK  10 active torsions:
REMARK  status: ('A' for Active; 'I' for Inactive)
REMARK    1  A    between atoms: C_1  and  C_2
REMARK    2  A    between atoms: C_2  and  C_3
REMARK    3  A    between atoms: C_3  and  N_4
REMARK    4  A    between atoms: C_3  and  C_11
REMARK    5  A    between atoms: C_5  and  C_7
REMARK    6  A    between atoms: C_7  and  C_8
REMARK    7  A    between atoms: C_7  and  N_9
REMARK    8  A    between atoms: N_9  and  C_10
REMARK    9  A    between atoms: C_17  and  C_18
REMARK   10  A    between atoms: N_20  and  C_21
REMARK                            x       y       z     vdW  Elec       q    Type
REMARK                         _______ _______ _______ _____ _____    ______ ____
ROOT
ATOM      1  C   UNL     1       0.503  10.986  18.999  0.00  0.00    +0.000 C 
ATOM      2  O   UNL     1       1.567  11.401  18.521  0.00  0.00    +0.000 OA
ATOM      3  N   UNL     1       0.500   9.913  19.858  0.00  0.00    +0.000 N 
ATOM      4  C   UNL     1      -0.578   9.377  20.660  0.00  0.00    +0.000 C 
ATOM      5  C   UNL     1       0.146   8.778  21.855  0.00  0.00    +0.000 C 
ATOM      6  C   UNL     1       1.435   8.222  21.262  0.00  0.00    +0.000 C 
ATOM      7  C   UNL     1       1.707   9.092  20.025  0.00  0.00    +0.000 C 
ENDROOT
BRANCH   7   8
ATOM      8  C   UNL     1       1.921   8.161  18.811  0.00  0.00    +0.000 C 
ATOM      9  O   UNL     1       1.493   8.418  17.687  0.00  0.00    +0.000 OA
ATOM     10  N   UNL     1       2.532   6.964  19.113  0.00  0.00    +0.000 N 
ATOM     11  H   UNL     1       2.930   6.822  20.033  0.00  0.00    +0.000 HD
BRANCH  10  12
ATOM     12  C   UNL     1       2.829   5.959  18.098  0.00  0.00    +0.000 C 
ATOM     13  C   UNL     1       2.207   4.604  18.464  0.00  0.00    +0.000 C 
ATOM     14  C   UNL     1       2.969   3.932  19.601  0.00  0.00    +0.000 C 
ATOM     15  C   UNL     1       4.422   3.672  19.210  0.00  0.00    +0.000 C 
ATOM     16  C   UNL     1       5.085   4.846  18.533  0.00  0.00    +0.000 A 
ATOM     17  C   UNL     1       6.485   4.875  18.440  0.00  0.00    +0.000 A 
ATOM     18  C   UNL     1       7.133   5.924  17.788  0.00  0.00    +0.000 A 
ATOM     19  C   UNL     1       6.393   6.942  17.195  0.00  0.00    +0.000 A 
ATOM     20  C   UNL     1       5.001   6.917  17.268  0.00  0.00    +0.000 A 
ATOM     21  C   UNL     1       4.335   5.879  17.942  0.00  0.00    +0.000 A 
ENDBRANCH  10  12
ENDBRANCH   7   8
BRANCH   1  22
ATOM     22  C   UNL     1      -0.807  11.746  18.658  0.00  0.00    +0.000 C 
BRANCH  22  23
ATOM     23  N   UNL     1      -1.170  12.753  19.661  0.00  0.00    +0.000 N 
ATOM     24  C   UNL     1      -0.785  14.071  19.486  0.00  0.00    +0.000 C 
ATOM     25  O   UNL     1      -0.089  14.431  18.539  0.00  0.00    +0.000 OA
ATOM     26  H   UNL     1      -1.811  12.513  20.406  0.00  0.00    +0.000 HD
BRANCH  24  27
ATOM     27  C   UNL     1      -1.341  15.071  20.520  0.00  0.00    +0.000 C 
ATOM     28  C   UNL     1      -0.167  15.591  21.349  0.00  0.00    +0.000 C 
BRANCH  27  29
ATOM     29  N   UNL     1      -1.970  16.229  19.850  0.00  0.00    +0.000 NA
ATOM     30  C   UNL     1      -1.221  17.466  19.993  0.00  0.00    +0.000 C 
ATOM     31  H   UNL     1      -2.908  16.353  20.243  0.00  0.00    +0.000 HD
ENDBRANCH  27  29
ENDBRANCH  24  27
ENDBRANCH  22  23
BRANCH  22  33
ATOM     32  C   UNL     1      -1.778  10.001  17.061  0.00  0.00    +0.000 C 
ATOM     33  C   UNL     1      -2.010  10.869  18.286  0.00  0.00    +0.000 C 
ENDBRANCH  22  33
ENDBRANCH   1  22
TORSDOF 7
ENDMDL
MODEL 6
REMARK VINA RESULT:      -6.7      1.064      1.156
REMARK  Name = 
REMARK  10 active torsions:
REMARK  status: ('A' for Active; 'I' for Inactive)
REMARK    1  A    between atoms: C_1  and  C_2
REMARK    2  A    between atoms: C_2  and  C_3
REMARK    3  A    between atoms: C_3  and  N_4
REMARK    4  A    between atoms: C_3  and  C_11
REMARK    5  A    between atoms: C_5  and  C_7
REMARK    6  A    between atoms: C_7  and  C_8
REMARK    7  A    between atoms: C_7  and  N_9
REMARK    8  A    between atoms: N_9  and  C_10
REMARK    9  A    between atoms: C_17  and  C_18
REMARK   10  A    between atoms: N_20  and  C_21
REMARK                            x       y       z     vdW  Elec       q    Type
REMARK                         _______ _______ _______ _____ _____    ______ ____
ROOT
ATOM      1  C   UNL     1      -0.091  10.832  19.211  0.00  0.00    +0.000 C 
ATOM      2  O   UNL     1       0.775  11.413  18.543  0.00  0.00    +0.000 OA
ATOM      3  N   UNL     1       0.263   9.827  20.079  0.00  0.00    +0.000 N 
ATOM      4  C   UNL     1      -0.538   9.142  21.071  0.00  0.00    +0.000 C 
ATOM      5  C   UNL     1       0.482   8.757  22.131  0.00  0.00    +0.000 C 
ATOM      6  C   UNL     1       1.735   8.423  21.331  0.00  0.00    +0.000 C 
ATOM      7  C   UNL     1       1.618   9.259  20.047  0.00  0.00    +0.000 C 
ENDROOT
BRANCH   7   8
ATOM      8  C   UNL     1       1.800   8.319  18.835  0.00  0.00    +0.000 C 
ATOM      9  O   UNL     1       1.357   8.576  17.716  0.00  0.00    +0.000 OA
ATOM     10  N   UNL     1       2.402   7.117  19.132  0.00  0.00    +0.000 N 
ATOM     11  H   UNL     1       2.813   6.974  20.047  0.00  0.00    +0.000 HD
BRANCH  10  12
ATOM     12  C   UNL     1       2.669   6.103  18.118  0.00  0.00    +0.000 C 
ATOM     13  C   UNL     1       2.015   4.764  18.488  0.00  0.00    +0.000 C 
ATOM     14  C   UNL     1       2.765   4.075  19.624  0.00  0.00    +0.000 C 
ATOM     15  C   UNL     1       4.209   3.778  19.227  0.00  0.00    +0.000 C 
ATOM     16  C   UNL     1       4.899   4.935  18.546  0.00  0.00    +0.000 A 
ATOM     17  C   UNL     1       6.299   4.929  18.448  0.00  0.00    +0.000 A 
ATOM     18  C   UNL     1       6.971   5.961  17.792  0.00  0.00    +0.000 A 
ATOM     19  C   UNL     1       6.253   6.996  17.200  0.00  0.00    +0.000 A 
ATOM     20  C   UNL     1       4.862   7.006  17.278  0.00  0.00    +0.000 A 
ATOM     21  C   UNL     1       4.172   5.985  17.956  0.00  0.00    +0.000 A 
ENDBRANCH  10  12
ENDBRANCH   7   8
BRANCH   1  22
ATOM     22  C   UNL     1      -1.562  11.310  19.092  0.00  0.00    +0.000 C 
BRANCH  22  23
ATOM     23  N   UNL     1      -2.112  11.158  17.739  0.00  0.00    +0.000 N 
ATOM     24  C   UNL     1      -3.005  10.136  17.469  0.00  0.00    +0.000 C 
ATOM     25  O   UNL     1      -3.319   9.298  18.312  0.00  0.00    +0.000 OA
ATOM     26  H   UNL     1      -1.945  11.875  17.045  0.00  0.00    +0.000 HD
BRANCH  24  27
ATOM     27  C   UNL     1      -3.633  10.155  16.061  0.00  0.00    +0.000 C 
ATOM     28  C   UNL     1      -4.313  11.511  15.867  0.00  0.00    +0.000 C 
BRANCH  27  29
ATOM     29  N   UNL     1      -2.594  10.018  15.018  0.00  0.00    +0.000 NA
ATOM     30  C   UNL     1      -3.125   9.953  13.667  0.00  0.00    +0.000 C 
ATOM     31  H   UNL     1      -2.058   9.167  15.212  0.00  0.00    +0.000 HD
ENDBRANCH  27  29
ENDBRANCH  24  27
ENDBRANCH  22  23
BRANCH  22  33
ATOM     32  C   UNL     1      -3.045  12.733  20.613  0.00  0.00    +0.000 C 
ATOM     33  C   UNL     1      -1.860  12.702  19.663  0.00  0.00    +0.000 C 
ENDBRANCH  22  33
ENDBRANCH   1  22
TORSDOF 7
ENDMDL
MODEL 7
REMARK VINA RESULT:      -6.7      5.025      9.988
REMARK  Name = 
REMARK  10 active torsions:
REMARK  status: ('A' for Active; 'I' for Inactive)
REMARK    1  A    between atoms: C_1  and  C_2
REMARK    2  A    between atoms: C_2  and  C_3
REMARK    3  A    between atoms: C_3  and  N_4
REMARK    4  A    between atoms: C_3  and  C_11
REMARK    5  A    between atoms: C_5  and  C_7
REMARK    6  A    between atoms: C_7  and  C_8
REMARK    7  A    between atoms: C_7  and  N_9
REMARK    8  A    between atoms: N_9  and  C_10
REMARK    9  A    between atoms: C_17  and  C_18
REMARK   10  A    between atoms: N_20  and  C_21
REMARK                            x       y       z     vdW  Elec       q    Type
REMARK                         _______ _______ _______ _____ _____    ______ ____
ROOT
ATOM      1  C   UNL     1      -2.284  12.343  20.584  0.00  0.00    +0.000 C 
ATOM      2  O   UNL     1      -2.829  13.432  20.362  0.00  0.00    +0.000 OA
ATOM      3  N   UNL     1      -1.977  11.498  19.545  0.00  0.00    +0.000 N 
ATOM      4  C   UNL     1      -1.196  10.279  19.548  0.00  0.00    +0.000 C 
ATOM      5  C   UNL     1      -0.607  10.244  18.147  0.00  0.00    +0.000 C 
ATOM      6  C   UNL     1      -1.711  10.821  17.270  0.00  0.00    +0.000 C 
ATOM      7  C   UNL     1      -2.507  11.751  18.198  0.00  0.00    +0.000 C 
ENDROOT
BRANCH   7   8
ATOM      8  C   UNL     1      -4.001  11.372  18.106  0.00  0.00    +0.000 C 
ATOM      9  O   UNL     1      -4.388  10.224  17.890  0.00  0.00    +0.000 OA
ATOM     10  N   UNL     1      -4.865  12.442  18.173  0.00  0.00    +0.000 N 
ATOM     11  H   UNL     1      -4.511  13.358  18.421  0.00  0.00    +0.000 HD
BRANCH  10  12
ATOM     12  C   UNL     1      -6.314  12.282  18.115  0.00  0.00    +0.000 C 
ATOM     13  C   UNL     1      -6.909  13.068  16.937  0.00  0.00    +0.000 C 
ATOM     14  C   UNL     1      -6.910  14.568  17.214  0.00  0.00    +0.000 C 
ATOM     15  C   UNL     1      -7.748  14.897  18.447  0.00  0.00    +0.000 C 
ATOM     16  C   UNL     1      -7.490  13.980  19.617  0.00  0.00    +0.000 A 
ATOM     17  C   UNL     1      -7.917  14.371  20.896  0.00  0.00    +0.000 A 
ATOM     18  C   UNL     1      -7.730  13.532  21.995  0.00  0.00    +0.000 A 
ATOM     19  C   UNL     1      -7.144  12.282  21.828  0.00  0.00    +0.000 A 
ATOM     20  C   UNL     1      -6.730  11.875  20.562  0.00  0.00    +0.000 A 
ATOM     21  C   UNL     1      -6.889  12.719  19.448  0.00  0.00    +0.000 A 
ENDBRANCH  10  12
ENDBRANCH   7   8
BRANCH   1  22
ATOM     22  C   UNL     1      -1.902  11.991  22.047  0.00  0.00    +0.000 C 
BRANCH  22  23
ATOM     23  N   UNL     1      -2.171  13.080  22.993  0.00  0.00    +0.000 N 
ATOM     24  C   UNL     1      -3.306  13.043  23.783  0.00  0.00    +0.000 C 
ATOM     25  O   UNL     1      -4.146  12.150  23.683  0.00  0.00    +0.000 OA
ATOM     26  H   UNL     1      -1.464  13.784  23.163  0.00  0.00    +0.000 HD
BRANCH  24  27
ATOM     27  C   UNL     1      -3.418  14.157  24.843  0.00  0.00    +0.000 C 
ATOM     28  C   UNL     1      -2.197  15.065  24.699  0.00  0.00    +0.000 C 
BRANCH  27  29
ATOM     29  N   UNL     1      -4.624  14.982  24.617  0.00  0.00    +0.000 NA
ATOM     30  C   UNL     1      -4.338  16.301  24.079  0.00  0.00    +0.000 C 
ATOM     31  H   UNL     1      -5.114  15.080  25.511  0.00  0.00    +0.000 HD
ENDBRANCH  27  29
ENDBRANCH  24  27
ENDBRANCH  22  23
BRANCH  22  33
ATOM     32  C   UNL     1      -0.474  10.135  23.074  0.00  0.00    +0.000 C 
ATOM     33  C   UNL     1      -0.496  11.410  22.248  0.00  0.00    +0.000 C 
ENDBRANCH  22  33
ENDBRANCH   1  22
TORSDOF 7
ENDMDL
MODEL 8
REMARK VINA RESULT:      -6.6      1.377      1.573
REMARK  Name = 
REMARK  10 active torsions:
REMARK  status: ('A' for Active; 'I' for Inactive)
REMARK    1  A    between atoms: C_1  and  C_2
REMARK    2  A    between atoms: C_2  and  C_3
REMARK    3  A    between atoms: C_3  and  N_4
REMARK    4  A    between atoms: C_3  and  C_11
REMARK    5  A    between atoms: C_5  and  C_7
REMARK    6  A    between atoms: C_7  and  C_8
REMARK    7  A    between atoms: C_7  and  N_9
REMARK    8  A    between atoms: N_9  and  C_10
REMARK    9  A    between atoms: C_17  and  C_18
REMARK   10  A    between atoms: N_20  and  C_21
REMARK                            x       y       z     vdW  Elec       q    Type
REMARK                         _______ _______ _______ _____ _____    ______ ____
ROOT
ATOM      1  C   UNL     1       0.628  11.064  19.811  0.00  0.00    +0.000 C 
ATOM      2  O   UNL     1       1.752  10.804  19.362  0.00  0.00    +0.000 OA
ATOM      3  N   UNL     1       0.210  10.510  20.998  0.00  0.00    +0.000 N 
ATOM      4  C   UNL     1      -0.966  10.801  21.787  0.00  0.00    +0.000 C 
ATOM      5  C   UNL     1      -0.515  10.489  23.206  0.00  0.00    +0.000 C 
ATOM      6  C   UNL     1       0.409   9.289  23.041  0.00  0.00    +0.000 C 
ATOM      7  C   UNL     1       0.975   9.420  21.619  0.00  0.00    +0.000 C 
ENDROOT
BRANCH   7   8
ATOM      8  C   UNL     1       0.746   8.084  20.878  0.00  0.00    +0.000 C 
ATOM      9  O   UNL     1      -0.291   7.430  20.983  0.00  0.00    +0.000 OA
ATOM     10  N   UNL     1       1.839   7.627  20.177  0.00  0.00    +0.000 N 
ATOM     11  H   UNL     1       2.646   8.228  20.058  0.00  0.00    +0.000 HD
BRANCH  10  12
ATOM     12  C   UNL     1       1.813   6.389  19.405  0.00  0.00    +0.000 C 
ATOM     13  C   UNL     1       1.338   5.211  20.267  0.00  0.00    +0.000 C 
ATOM     14  C   UNL     1       2.415   4.776  21.256  0.00  0.00    +0.000 C 
ATOM     15  C   UNL     1       3.678   4.323  20.527  0.00  0.00    +0.000 C 
ATOM     16  C   UNL     1       4.098   5.249  19.412  0.00  0.00    +0.000 A 
ATOM     17  C   UNL     1       5.401   5.152  18.900  0.00  0.00    +0.000 A 
ATOM     18  C   UNL     1       5.814   5.964  17.844  0.00  0.00    +0.000 A 
ATOM     19  C   UNL     1       4.923   6.862  17.264  0.00  0.00    +0.000 A 
ATOM     20  C   UNL     1       3.622   6.958  17.752  0.00  0.00    +0.000 A 
ATOM     21  C   UNL     1       3.198   6.163  18.832  0.00  0.00    +0.000 A 
ENDBRANCH  10  12
ENDBRANCH   7   8
BRANCH   1  22
ATOM     22  C   UNL     1      -0.262  12.074  19.039  0.00  0.00    +0.000 C 
BRANCH  22  23
ATOM     23  N   UNL     1      -1.170  11.432  18.081  0.00  0.00    +0.000 N 
ATOM     24  C   UNL     1      -2.539  11.564  18.234  0.00  0.00    +0.000 C 
ATOM     25  O   UNL     1      -3.039  12.156  19.188  0.00  0.00    +0.000 OA
ATOM     26  H   UNL     1      -0.797  11.011  17.240  0.00  0.00    +0.000 HD
BRANCH  24  27
ATOM     27  C   UNL     1      -3.396  10.975  17.095  0.00  0.00    +0.000 C 
ATOM     28  C   UNL     1      -4.794  11.584  17.197  0.00  0.00    +0.000 C 
BRANCH  27  29
ATOM     29  N   UNL     1      -2.840  11.338  15.774  0.00  0.00    +0.000 NA
ATOM     30  C   UNL     1      -2.994  10.301  14.769  0.00  0.00    +0.000 C 
ATOM     31  H   UNL     1      -1.845  11.548  15.894  0.00  0.00    +0.000 HD
ENDBRANCH  27  29
ENDBRANCH  24  27
ENDBRANCH  22  23
BRANCH  22  33
ATOM     32  C   UNL     1       0.914  14.315  19.404  0.00  0.00    +0.000 C 
ATOM     33  C   UNL     1       0.473  13.261  18.403  0.00  0.00    +0.000 C 
ENDBRANCH  22  33
ENDBRANCH   1  22
TORSDOF 7
ENDMDL
MODEL 9
REMARK VINA RESULT:      -6.5      3.980      9.628
REMARK  Name = 
REMARK  10 active torsions:
REMARK  status: ('A' for Active; 'I' for Inactive)
REMARK    1  A    between atoms: C_1  and  C_2
REMARK    2  A    between atoms: C_2  and  C_3
REMARK    3  A    between atoms: C_3  and  N_4
REMARK    4  A    between atoms: C_3  and  C_11
REMARK    5  A    between atoms: C_5  and  C_7
REMARK    6  A    between atoms: C_7  and  C_8
REMARK    7  A    between atoms: C_7  and  N_9
REMARK    8  A    between atoms: N_9  and  C_10
REMARK    9  A    between atoms: C_17  and  C_18
REMARK   10  A    between atoms: N_20  and  C_21
REMARK                            x       y       z     vdW  Elec       q    Type
REMARK                         _______ _______ _______ _____ _____    ______ ____
ROOT
ATOM      1  C   UNL     1      -3.308  11.766  18.773  0.00  0.00    +0.000 C 
ATOM      2  O   UNL     1      -2.658  12.701  19.260  0.00  0.00    +0.000 OA
ATOM      3  N   UNL     1      -4.677  11.845  18.685  0.00  0.00    +0.000 N 
ATOM      4  C   UNL     1      -5.608  10.970  18.006  0.00  0.00    +0.000 C 
ATOM      5  C   UNL     1      -6.748  11.904  17.632  0.00  0.00    +0.000 C 
ATOM      6  C   UNL     1      -6.829  12.873  18.805  0.00  0.00    +0.000 C 
ATOM      7  C   UNL     1      -5.407  12.911  19.384  0.00  0.00    +0.000 C 
ENDROOT
BRANCH   7   8
ATOM      8  C   UNL     1      -5.489  12.629  20.900  0.00  0.00    +0.000 C 
ATOM      9  O   UNL     1      -6.128  11.689  21.372  0.00  0.00    +0.000 OA
ATOM     10  N   UNL     1      -4.882  13.579  21.690  0.00  0.00    +0.000 N 
ATOM     11  H   UNL     1      -4.309  14.296  21.261  0.00  0.00    +0.000 HD
BRANCH  10  12
ATOM     12  C   UNL     1      -4.845  13.481  23.145  0.00  0.00    +0.000 C 
ATOM     13  C   UNL     1      -6.111  14.085  23.771  0.00  0.00    +0.000 C 
ATOM     14  C   UNL     1      -6.093  15.608  23.699  0.00  0.00    +0.000 C 
ATOM     15  C   UNL     1      -4.897  16.180  24.457  0.00  0.00    +0.000 C 
ATOM     16  C   UNL     1      -3.601  15.461  24.172  0.00  0.00    +0.000 A 
ATOM     17  C   UNL     1      -2.389  16.080  24.514  0.00  0.00    +0.000 A 
ATOM     18  C   UNL     1      -1.173  15.431  24.302  0.00  0.00    +0.000 A 
ATOM     19  C   UNL     1      -1.151  14.144  23.774  0.00  0.00    +0.000 A 
ATOM     20  C   UNL     1      -2.348  13.511  23.444  0.00  0.00    +0.000 A 
ATOM     21  C   UNL     1      -3.580  14.162  23.630  0.00  0.00    +0.000 A 
ENDBRANCH  10  12
ENDBRANCH   7   8
BRANCH   1  22
ATOM     22  C   UNL     1      -2.535  10.543  18.209  0.00  0.00    +0.000 C 
BRANCH  22  23
ATOM     23  N   UNL     1      -1.092  10.781  18.078  0.00  0.00    +0.000 N 
ATOM     24  C   UNL     1      -0.227  10.327  19.059  0.00  0.00    +0.000 C 
ATOM     25  O   UNL     1      -0.626   9.776  20.082  0.00  0.00    +0.000 OA
ATOM     26  H   UNL     1      -0.721  11.153  17.214  0.00  0.00    +0.000 HD
BRANCH  24  27
ATOM     27  C   UNL     1       1.274  10.499  18.753  0.00  0.00    +0.000 C 
ATOM     28  C   UNL     1       1.703   9.349  17.841  0.00  0.00    +0.000 C 
BRANCH  27  29
ATOM     29  N   UNL     1       1.525  11.765  18.032  0.00  0.00    +0.000 NA
ATOM     30  C   UNL     1       1.857  12.879  18.904  0.00  0.00    +0.000 C 
ATOM     31  H   UNL     1       0.686  11.996  17.493  0.00  0.00    +0.000 HD
ENDBRANCH  27  29
ENDBRANCH  24  27
ENDBRANCH  22  23
BRANCH  22  33
ATOM     32  C   UNL     1      -2.694  10.619  15.658  0.00  0.00    +0.000 C 
ATOM     33  C   UNL     1      -3.116   9.915  16.936  0.00  0.00    +0.000 C 
ENDBRANCH  22  33
ENDBRANCH   1  22
TORSDOF 7
ENDMDL
