MODEL 1
REMARK VINA RESULT:      -6.6      0.000      0.000
REMARK  Name = 
REMARK  6 active torsions:
REMARK  status: ('A' for Active; 'I' for Inactive)
REMARK    1  A    between atoms: O5*_1  and  C5*_2
REMARK    2  A    between atoms: C5*_2  and  C4*_3
REMARK    3  A    between atoms: C1*_5  and  N_6
REMARK    4  A    between atoms: C_8  and  C_9
REMARK    5  A    between atoms: C2*_16  and  O2*_17
REMARK    6  A    between atoms: C3*_18  and  O3*_19
REMARK                            x       y       z     vdW  Elec       q    Type
REMARK                         _______ _______ _______ _____ _____    ______ ____
ROOT
ATOM      1  C4* UNL     1       2.405   2.369  19.717  0.00  0.00    +0.000 C 
ATOM      2  O4* UNL     1       2.098   3.432  18.795  0.00  0.00    +0.000 OA
ATOM      3  C1* UNL     1       3.334   4.042  18.368  0.00  0.00    +0.000 C 
ATOM      4  C2* UNL     1       4.437   3.607  19.326  0.00  0.00    +0.000 C 
ATOM      5  C3* UNL     1       3.932   2.249  19.791  0.00  0.00    +0.000 C 
ENDROOT
BRANCH   3   6
ATOM      6  N   UNL     1       3.167   5.483  18.291  0.00  0.00    +0.000 N 
ATOM      7  C   UNL     1       2.227   6.237  18.936  0.00  0.00    +0.000 A 
ATOM      8  C   UNL     1       2.486   7.519  18.516  0.00  0.00    +0.000 A 
ATOM      9  N   UNL     1       3.546   7.508  17.648  0.00  0.00    +0.000 NA
ATOM     10  N   UNL     1       3.964   6.252  17.522  0.00  0.00    +0.000 NA
BRANCH   8  11
ATOM     11  C   UNL     1       1.804   8.758  18.887  0.00  0.00    +0.000 A 
ATOM     12  C   UNL     1       1.717   9.888  18.019  0.00  0.00    +0.000 A 
ATOM     13  C   UNL     1       1.044  10.942  18.597  0.00  0.00    +0.000 A 
ATOM     14  S   UNL     1       0.509  10.571  20.179  0.00  0.00    +0.000 S 
ATOM     15  C   UNL     1       1.182   8.994  20.096  0.00  0.00    +0.000 A 
ENDBRANCH   8  11
ENDBRANCH   3   6
BRANCH   4  16
ATOM     16  O2* UNL     1       5.703   3.487  18.665  0.00  0.00    +0.000 OA
ATOM     17  H2* UNL     1       5.845   2.522  18.545  0.00  0.00    +0.000 HD
ENDBRANCH   4  16
BRANCH   5  18
ATOM     18  O3* UNL     1       4.453   1.278  18.855  0.00  0.00    +0.000 OA
ATOM     19  H3* UNL     1       4.688   1.727  18.024  0.00  0.00    +0.000 HD
ENDBRANCH   5  18
BRANCH   1  20
ATOM     20  C5* UNL     1       1.729   2.639  21.060  0.00  0.00    +0.000 C 
BRANCH  20  21
ATOM     21  O5* UNL     1       2.672   2.506  22.115  0.00  0.00    +0.000 OA
ATOM     22  H5* UNL     1       2.295   2.948  22.898  0.00  0.00    +0.000 HD
ENDBRANCH  20  21
ENDBRANCH   1  20
TORSDOF 6
ENDMDL
MODEL 2
REMARK VINA RESULT:      -6.6      1.102      1.133
REMARK  Name = 
REMARK  6 active torsions:
REMARK  status: ('A' for Active; 'I' for Inactive)
REMARK    1  A    between atoms: O5*_1  and  C5*_2
REMARK    2  A    between atoms: C5*_2  and  C4*_3
REMARK    3  A    between atoms: C1*_5  and  N_6
REMARK    4  A    between atoms: C_8  and  C_9
REMARK    5  A    between atoms: C2*_16  and  O2*_17
REMARK    6  A    between atoms: C3*_18  and  O3*_19
REMARK                            x       y       z     vdW  Elec       q    Type
REMARK                         _______ _______ _______ _____ _____    ______ ____
ROOT
ATOM      1  C4* UNL     1       2.031   2.039  18.044  0.00  0.00    +0.000 C 
ATOM      2  O4* UNL     1       2.241   3.266  17.320  0.00  0.00    +0.000 OA
ATOM      3  C1* UNL     1       3.493   3.843  17.747  0.00  0.00    +0.000 C 
ATOM      4  C2* UNL     1       3.912   3.165  19.046  0.00  0.00    +0.000 C 
ATOM      5  C3* UNL     1       3.276   1.791  18.903  0.00  0.00    +0.000 C 
ENDROOT
BRANCH   3   6
ATOM      6  N   UNL     1       3.353   5.284  17.864  0.00  0.00    +0.000 N 
ATOM      7  C   UNL     1       2.336   5.964  18.475  0.00  0.00    +0.000 A 
ATOM      8  C   UNL     1       2.665   7.284  18.292  0.00  0.00    +0.000 A 
ATOM      9  N   UNL     1       3.838   7.369  17.590  0.00  0.00    +0.000 NA
ATOM     10  N   UNL     1       4.258   6.133  17.338  0.00  0.00    +0.000 NA
BRANCH   8  11
ATOM     11  C   UNL     1       1.948   8.476  18.744  0.00  0.00    +0.000 A 
ATOM     12  C   UNL     1       1.683   9.593  17.896  0.00  0.00    +0.000 A 
ATOM     13  C   UNL     1       1.012  10.602  18.553  0.00  0.00    +0.000 A 
ATOM     14  S   UNL     1       0.694  10.203  20.185  0.00  0.00    +0.000 S 
ATOM     15  C   UNL     1       1.458   8.675  20.019  0.00  0.00    +0.000 A 
ENDBRANCH   8  11
ENDBRANCH   3   6
BRANCH   4  16
ATOM     16  O2* UNL     1       5.337   3.063  19.160  0.00  0.00    +0.000 OA
ATOM     17  H2* UNL     1       5.550   2.126  18.958  0.00  0.00    +0.000 HD
ENDBRANCH   4  16
BRANCH   5  18
ATOM     18  O3* UNL     1       4.250   0.958  18.233  0.00  0.00    +0.000 OA
ATOM     19  H3* UNL     1       5.051   0.895  18.783  0.00  0.00    +0.000 HD
ENDBRANCH   5  18
BRANCH   1  20
ATOM     20  C5* UNL     1       0.727   2.125  18.835  0.00  0.00    +0.000 C 
BRANCH  20  21
ATOM     21  O5* UNL     1       0.914   2.923  19.997  0.00  0.00    +0.000 OA
ATOM     22  H5* UNL     1       0.545   2.428  20.751  0.00  0.00    +0.000 HD
ENDBRANCH  20  21
ENDBRANCH   1  20
TORSDOF 6
ENDMDL
MODEL 3
REMARK VINA RESULT:      -6.4      2.840      3.772
REMARK  Name = 
REMARK  6 active torsions:
REMARK  status: ('A' for Active; 'I' for Inactive)
REMARK    1  A    between atoms: O5*_1  and  C5*_2
REMARK    2  A    between atoms: C5*_2  and  C4*_3
REMARK    3  A    between atoms: C1*_5  and  N_6
REMARK    4  A    between atoms: C_8  and  C_9
REMARK    5  A    between atoms: C2*_16  and  O2*_17
REMARK    6  A    between atoms: C3*_18  and  O3*_19
REMARK                            x       y       z     vdW  Elec       q    Type
REMARK                         _______ _______ _______ _____ _____    ______ ____
ROOT
ATOM      1  C4* UNL     1       7.292   5.173  18.086  0.00  0.00    +0.000 C 
ATOM      2  O4* UNL     1       5.939   4.949  18.527  0.00  0.00    +0.000 OA
ATOM      3  C1* UNL     1       5.038   5.524  17.558  0.00  0.00    +0.000 C 
ATOM      4  C2* UNL     1       5.835   6.469  16.667  0.00  0.00    +0.000 C 
ATOM      5  C3* UNL     1       7.222   5.846  16.710  0.00  0.00    +0.000 C 
ENDROOT
BRANCH   3   6
ATOM      6  N   UNL     1       3.931   6.170  18.244  0.00  0.00    +0.000 N 
ATOM      7  C   UNL     1       3.408   7.405  17.979  0.00  0.00    +0.000 A 
ATOM      8  C   UNL     1       2.407   7.546  18.908  0.00  0.00    +0.000 A 
ATOM      9  N   UNL     1       2.354   6.426  19.694  0.00  0.00    +0.000 NA
ATOM     10  N   UNL     1       3.290   5.580  19.273  0.00  0.00    +0.000 NA
BRANCH   8  11
ATOM     11  C   UNL     1       1.489   8.668  19.100  0.00  0.00    +0.000 A 
ATOM     12  C   UNL     1       0.991   9.459  18.021  0.00  0.00    +0.000 A 
ATOM     13  C   UNL     1       0.159  10.469  18.452  0.00  0.00    +0.000 A 
ATOM     14  S   UNL     1      -0.032  10.460  20.152  0.00  0.00    +0.000 S 
ATOM     15  C   UNL     1       1.006   9.103  20.317  0.00  0.00    +0.000 A 
ENDBRANCH   8  11
ENDBRANCH   3   6
BRANCH   4  16
ATOM     16  O2* UNL     1       5.325   6.499  15.328  0.00  0.00    +0.000 OA
ATOM     17  H2* UNL     1       5.927   7.096  14.832  0.00  0.00    +0.000 HD
ENDBRANCH   4  16
BRANCH   5  18
ATOM     18  O3* UNL     1       7.273   4.889  15.627  0.00  0.00    +0.000 OA
ATOM     19  H3* UNL     1       6.409   4.445  15.551  0.00  0.00    +0.000 HD
ENDBRANCH   5  18
BRANCH   1  20
ATOM     20  C5* UNL     1       8.052   5.975  19.141  0.00  0.00    +0.000 C 
BRANCH  20  21
ATOM     21  O5* UNL     1       7.854   5.398  20.426  0.00  0.00    +0.000 OA
ATOM     22  H5* UNL     1       8.649   4.874  20.634  0.00  0.00    +0.000 HD
ENDBRANCH  20  21
ENDBRANCH   1  20
TORSDOF 6
ENDMDL
MODEL 4
REMARK VINA RESULT:      -6.4      5.644      6.543
REMARK  Name = 
REMARK  6 active torsions:
REMARK  status: ('A' for Active; 'I' for Inactive)
REMARK    1  A    between atoms: O5*_1  and  C5*_2
REMARK    2  A    between atoms: C5*_2  and  C4*_3
REMARK    3  A    between atoms: C1*_5  and  N_6
REMARK    4  A    between atoms: C_8  and  C_9
REMARK    5  A    between atoms: C2*_16  and  O2*_17
REMARK    6  A    between atoms: C3*_18  and  O3*_19
REMARK                            x       y       z     vdW  Elec       q    Type
REMARK                         _______ _______ _______ _____ _____    ______ ____
ROOT
ATOM      1  C4* UNL     1       6.745   4.266  16.559  0.00  0.00    +0.000 C 
ATOM      2  O4* UNL     1       7.767   5.173  17.015  0.00  0.00    +0.000 OA
ATOM      3  C1* UNL     1       7.263   5.897  18.156  0.00  0.00    +0.000 C 
ATOM      4  C2* UNL     1       5.750   5.723  18.202  0.00  0.00    +0.000 C 
ATOM      5  C3* UNL     1       5.570   4.366  17.538  0.00  0.00    +0.000 C 
ENDROOT
BRANCH   3   6
ATOM      6  N   UNL     1       7.685   7.286  18.079  0.00  0.00    +0.000 N 
ATOM      7  C   UNL     1       8.537   7.935  18.928  0.00  0.00    +0.000 A 
ATOM      8  C   UNL     1       8.587   9.214  18.433  0.00  0.00    +0.000 A 
ATOM      9  N   UNL     1       7.782   9.307  17.329  0.00  0.00    +0.000 NA
ATOM     10  N   UNL     1       7.236   8.114  17.113  0.00  0.00    +0.000 NA
BRANCH   8  11
ATOM     11  C   UNL     1       9.353  10.357  18.928  0.00  0.00    +0.000 A 
ATOM     12  C   UNL     1      10.102  11.221  18.073  0.00  0.00    +0.000 A 
ATOM     13  C   UNL     1      10.755  12.213  18.772  0.00  0.00    +0.000 A 
ATOM     14  S   UNL     1      10.459  12.112  20.454  0.00  0.00    +0.000 S 
ATOM     15  C   UNL     1       9.457  10.733  20.251  0.00  0.00    +0.000 A 
ENDBRANCH   8  11
ENDBRANCH   3   6
BRANCH   4  16
ATOM     16  O2* UNL     1       5.253   5.709  19.547  0.00  0.00    +0.000 OA
ATOM     17  H2* UNL     1       4.290   5.530  19.468  0.00  0.00    +0.000 HD
ENDBRANCH   4  16
BRANCH   5  18
ATOM     18  O3* UNL     1       5.648   3.382  18.594  0.00  0.00    +0.000 OA
ATOM     19  H3* UNL     1       5.643   3.835  19.457  0.00  0.00    +0.000 HD
ENDBRANCH   5  18
BRANCH   1  20
ATOM     20  C5* UNL     1       6.386   4.582  15.108  0.00  0.00    +0.000 C 
BRANCH  20  21
ATOM     21  O5* UNL     1       7.444   5.303  14.491  0.00  0.00    +0.000 OA
ATOM     22  H5* UNL     1       7.529   6.153  14.962  0.00  0.00    +0.000 HD
ENDBRANCH  20  21
ENDBRANCH   1  20
TORSDOF 6
ENDMDL
MODEL 5
REMARK VINA RESULT:      -6.4      4.365      5.876
REMARK  Name = 
REMARK  6 active torsions:
REMARK  status: ('A' for Active; 'I' for Inactive)
REMARK    1  A    between atoms: O5*_1  and  C5*_2
REMARK    2  A    between atoms: C5*_2  and  C4*_3
REMARK    3  A    between atoms: C1*_5  and  N_6
REMARK    4  A    between atoms: C_8  and  C_9
REMARK    5  A    between atoms: C2*_16  and  O2*_17
REMARK    6  A    between atoms: C3*_18  and  O3*_19
REMARK                            x       y       z     vdW  Elec       q    Type
REMARK                         _______ _______ _______ _____ _____    ______ ____
ROOT
ATOM      1  C4* UNL     1       3.059   2.787  19.944  0.00  0.00    +0.000 C 
ATOM      2  O4* UNL     1       4.439   2.875  19.543  0.00  0.00    +0.000 OA
ATOM      3  C1* UNL     1       4.753   4.258  19.278  0.00  0.00    +0.000 C 
ATOM      4  C2* UNL     1       3.444   5.027  19.140  0.00  0.00    +0.000 C 
ATOM      5  C3* UNL     1       2.509   4.216  20.024  0.00  0.00    +0.000 C 
ENDROOT
BRANCH   3   6
ATOM      6  N   UNL     1       5.605   4.349  18.104  0.00  0.00    +0.000 N 
ATOM      7  C   UNL     1       5.218   4.245  16.797  0.00  0.00    +0.000 A 
ATOM      8  C   UNL     1       6.389   4.381  16.093  0.00  0.00    +0.000 A 
ATOM      9  N   UNL     1       7.429   4.555  16.968  0.00  0.00    +0.000 NA
ATOM     10  N   UNL     1       6.936   4.542  18.203  0.00  0.00    +0.000 NA
BRANCH   8  11
ATOM     11  C   UNL     1       6.593   4.367  14.646  0.00  0.00    +0.000 A 
ATOM     12  C   UNL     1       5.846   3.530  13.763  0.00  0.00    +0.000 A 
ATOM     13  C   UNL     1       6.231   3.680  12.448  0.00  0.00    +0.000 A 
ATOM     14  S   UNL     1       7.483   4.832  12.274  0.00  0.00    +0.000 S 
ATOM     15  C   UNL     1       7.516   5.133  13.964  0.00  0.00    +0.000 A 
ENDBRANCH   8  11
ENDBRANCH   3   6
BRANCH   4  16
ATOM     16  O2* UNL     1       3.563   6.374  19.614  0.00  0.00    +0.000 OA
ATOM     17  H2* UNL     1       2.697   6.797  19.420  0.00  0.00    +0.000 HD
ENDBRANCH   4  16
BRANCH   5  18
ATOM     18  O3* UNL     1       2.620   4.774  21.354  0.00  0.00    +0.000 OA
ATOM     19  H3* UNL     1       3.206   5.551  21.328  0.00  0.00    +0.000 HD
ENDBRANCH   5  18
BRANCH   1  20
ATOM     20  C5* UNL     1       2.301   1.873  18.983  0.00  0.00    +0.000 C 
BRANCH  20  21
ATOM     21  O5* UNL     1       0.993   2.384  18.756  0.00  0.00    +0.000 OA
ATOM     22  H5* UNL     1       0.772   2.959  19.511  0.00  0.00    +0.000 HD
ENDBRANCH  20  21
ENDBRANCH   1  20
TORSDOF 6
ENDMDL
MODEL 6
REMARK VINA RESULT:      -6.4      4.183      5.716
REMARK  Name = 
REMARK  6 active torsions:
REMARK  status: ('A' for Active; 'I' for Inactive)
REMARK    1  A    between atoms: O5*_1  and  C5*_2
REMARK    2  A    between atoms: C5*_2  and  C4*_3
REMARK    3  A    between atoms: C1*_5  and  N_6
REMARK    4  A    between atoms: C_8  and  C_9
REMARK    5  A    between atoms: C2*_16  and  O2*_17
REMARK    6  A    between atoms: C3*_18  and  O3*_19
REMARK                            x       y       z     vdW  Elec       q    Type
REMARK                         _______ _______ _______ _____ _____    ______ ____
ROOT
ATOM      1  C4* UNL     1       2.612   2.949  19.855  0.00  0.00    +0.000 C 
ATOM      2  O4* UNL     1       3.826   3.199  19.122  0.00  0.00    +0.000 OA
ATOM      3  C1* UNL     1       4.007   4.625  19.005  0.00  0.00    +0.000 C 
ATOM      4  C2* UNL     1       2.685   5.304  19.343  0.00  0.00    +0.000 C 
ATOM      5  C3* UNL     1       2.057   4.306  20.304  0.00  0.00    +0.000 C 
ENDROOT
BRANCH   3   6
ATOM      6  N   UNL     1       4.501   4.947  17.677  0.00  0.00    +0.000 N 
ATOM      7  C   UNL     1       4.940   4.068  16.727  0.00  0.00    +0.000 A 
ATOM      8  C   UNL     1       5.310   4.871  15.677  0.00  0.00    +0.000 A 
ATOM      9  N   UNL     1       5.096   6.183  16.010  0.00  0.00    +0.000 NA
ATOM     10  N   UNL     1       4.590   6.220  17.239  0.00  0.00    +0.000 NA
BRANCH   8  11
ATOM     11  C   UNL     1       5.845   4.484  14.373  0.00  0.00    +0.000 A 
ATOM     12  C   UNL     1       5.140   3.641  13.462  0.00  0.00    +0.000 A 
ATOM     13  C   UNL     1       5.857   3.401  12.308  0.00  0.00    +0.000 A 
ATOM     14  S   UNL     1       7.371   4.196  12.318  0.00  0.00    +0.000 S 
ATOM     15  C   UNL     1       7.074   4.863  13.872  0.00  0.00    +0.000 A 
ENDBRANCH   8  11
ENDBRANCH   3   6
BRANCH   4  16
ATOM     16  O2* UNL     1       2.883   6.574  19.976  0.00  0.00    +0.000 OA
ATOM     17  H2* UNL     1       2.549   6.464  20.893  0.00  0.00    +0.000 HD
ENDBRANCH   4  16
BRANCH   5  18
ATOM     18  O3* UNL     1       2.508   4.675  21.627  0.00  0.00    +0.000 OA
ATOM     19  H3* UNL     1       3.095   3.978  21.972  0.00  0.00    +0.000 HD
ENDBRANCH   5  18
BRANCH   1  20
ATOM     20  C5* UNL     1       1.651   2.128  18.998  0.00  0.00    +0.000 C 
BRANCH  20  21
ATOM     21  O5* UNL     1       2.293   1.731  17.792  0.00  0.00    +0.000 OA
ATOM     22  H5* UNL     1       3.230   1.567  18.004  0.00  0.00    +0.000 HD
ENDBRANCH  20  21
ENDBRANCH   1  20
TORSDOF 6
ENDMDL
MODEL 7
REMARK VINA RESULT:      -6.3      4.395      5.843
REMARK  Name = 
REMARK  6 active torsions:
REMARK  status: ('A' for Active; 'I' for Inactive)
REMARK    1  A    between atoms: O5*_1  and  C5*_2
REMARK    2  A    between atoms: C5*_2  and  C4*_3
REMARK    3  A    between atoms: C1*_5  and  N_6
REMARK    4  A    between atoms: C_8  and  C_9
REMARK    5  A    between atoms: C2*_16  and  O2*_17
REMARK    6  A    between atoms: C3*_18  and  O3*_19
REMARK                            x       y       z     vdW  Elec       q    Type
REMARK                         _______ _______ _______ _____ _____    ______ ____
ROOT
ATOM      1  C4* UNL     1       2.564   3.058  19.816  0.00  0.00    +0.000 C 
ATOM      2  O4* UNL     1       3.963   2.994  19.481  0.00  0.00    +0.000 OA
ATOM      3  C1* UNL     1       4.456   4.338  19.307  0.00  0.00    +0.000 C 
ATOM      4  C2* UNL     1       3.259   5.270  19.156  0.00  0.00    +0.000 C 
ATOM      5  C3* UNL     1       2.189   4.538  19.952  0.00  0.00    +0.000 C 
ENDROOT
BRANCH   3   6
ATOM      6  N   UNL     1       5.370   4.381  18.179  0.00  0.00    +0.000 N 
ATOM      7  C   UNL     1       5.048   4.273  16.855  0.00  0.00    +0.000 A 
ATOM      8  C   UNL     1       6.258   4.356  16.212  0.00  0.00    +0.000 A 
ATOM      9  N   UNL     1       7.257   4.504  17.137  0.00  0.00    +0.000 NA
ATOM     10  N   UNL     1       6.701   4.527  18.345  0.00  0.00    +0.000 NA
BRANCH   8  11
ATOM     11  C   UNL     1       6.536   4.314  14.777  0.00  0.00    +0.000 A 
ATOM     12  C   UNL     1       7.522   5.135  14.151  0.00  0.00    +0.000 A 
ATOM     13  C   UNL     1       7.586   4.930  12.789  0.00  0.00    +0.000 A 
ATOM     14  S   UNL     1       6.470   3.745  12.266  0.00  0.00    +0.000 S 
ATOM     15  C   UNL     1       5.891   3.504  13.864  0.00  0.00    +0.000 A 
ENDBRANCH   8  11
ENDBRANCH   3   6
BRANCH   4  16
ATOM     16  O2* UNL     1       3.517   6.566  19.709  0.00  0.00    +0.000 OA
ATOM     17  H2* UNL     1       2.699   6.809  20.198  0.00  0.00    +0.000 HD
ENDBRANCH   4  16
BRANCH   5  18
ATOM     18  O3* UNL     1       2.300   5.010  21.314  0.00  0.00    +0.000 OA
ATOM     19  H3* UNL     1       1.884   4.364  21.913  0.00  0.00    +0.000 HD
ENDBRANCH   5  18
BRANCH   1  20
ATOM     20  C5* UNL     1       1.749   2.295  18.773  0.00  0.00    +0.000 C 
BRANCH  20  21
ATOM     21  O5* UNL     1       2.616   1.726  17.799  0.00  0.00    +0.000 OA
ATOM     22  H5* UNL     1       2.473   2.212  16.966  0.00  0.00    +0.000 HD
ENDBRANCH  20  21
ENDBRANCH   1  20
TORSDOF 6
ENDMDL
MODEL 8
REMARK VINA RESULT:      -6.2      4.350      5.812
REMARK  Name = 
REMARK  6 active torsions:
REMARK  status: ('A' for Active; 'I' for Inactive)
REMARK    1  A    between atoms: O5*_1  and  C5*_2
REMARK    2  A    between atoms: C5*_2  and  C4*_3
REMARK    3  A    between atoms: C1*_5  and  N_6
REMARK    4  A    between atoms: C_8  and  C_9
REMARK    5  A    between atoms: C2*_16  and  O2*_17
REMARK    6  A    between atoms: C3*_18  and  O3*_19
REMARK                            x       y       z     vdW  Elec       q    Type
REMARK                         _______ _______ _______ _____ _____    ______ ____
ROOT
ATOM      1  C4* UNL     1       2.570   3.413  19.657  0.00  0.00    +0.000 C 
ATOM      2  O4* UNL     1       3.840   3.669  19.027  0.00  0.00    +0.000 OA
ATOM      3  C1* UNL     1       3.955   5.086  18.783  0.00  0.00    +0.000 C 
ATOM      4  C2* UNL     1       2.569   5.707  18.915  0.00  0.00    +0.000 C 
ATOM      5  C3* UNL     1       1.897   4.768  19.905  0.00  0.00    +0.000 C 
ENDROOT
BRANCH   3   6
ATOM      6  N   UNL     1       4.569   5.310  17.485  0.00  0.00    +0.000 N 
ATOM      7  C   UNL     1       4.921   4.361  16.567  0.00  0.00    +0.000 A 
ATOM      8  C   UNL     1       5.471   5.083  15.538  0.00  0.00    +0.000 A 
ATOM      9  N   UNL     1       5.443   6.416  15.851  0.00  0.00    +0.000 NA
ATOM     10  N   UNL     1       4.879   6.548  17.048  0.00  0.00    +0.000 NA
BRANCH   8  11
ATOM     11  C   UNL     1       6.014   4.600  14.269  0.00  0.00    +0.000 A 
ATOM     12  C   UNL     1       7.238   5.081  13.714  0.00  0.00    +0.000 A 
ATOM     13  C   UNL     1       7.532   4.490  12.503  0.00  0.00    +0.000 A 
ATOM     14  S   UNL     1       6.343   3.352  12.040  0.00  0.00    +0.000 S 
ATOM     15  C   UNL     1       5.425   3.650  13.460  0.00  0.00    +0.000 A 
ENDBRANCH   8  11
ENDBRANCH   3   6
BRANCH   4  16
ATOM     16  O2* UNL     1       2.628   7.043  19.431  0.00  0.00    +0.000 OA
ATOM     17  H2* UNL     1       3.087   6.969  20.297  0.00  0.00    +0.000 HD
ENDBRANCH   4  16
BRANCH   5  18
ATOM     18  O3* UNL     1       2.184   5.291  21.223  0.00  0.00    +0.000 OA
ATOM     19  H3* UNL     1       2.137   6.263  21.199  0.00  0.00    +0.000 HD
ENDBRANCH   5  18
BRANCH   1  20
ATOM     20  C5* UNL     1       1.753   2.451  18.796  0.00  0.00    +0.000 C 
BRANCH  20  21
ATOM     21  O5* UNL     1       2.607   1.760  17.893  0.00  0.00    +0.000 OA
ATOM     22  H5* UNL     1       2.243   1.885  16.997  0.00  0.00    +0.000 HD
ENDBRANCH  20  21
ENDBRANCH   1  20
TORSDOF 6
ENDMDL
MODEL 9
REMARK VINA RESULT:      -6.2      4.018      5.495
REMARK  Name = 
REMARK  6 active torsions:
REMARK  status: ('A' for Active; 'I' for Inactive)
REMARK    1  A    between atoms: O5*_1  and  C5*_2
REMARK    2  A    between atoms: C5*_2  and  C4*_3
REMARK    3  A    between atoms: C1*_5  and  N_6
REMARK    4  A    between atoms: C_8  and  C_9
REMARK    5  A    between atoms: C2*_16  and  O2*_17
REMARK    6  A    between atoms: C3*_18  and  O3*_19
REMARK                            x       y       z     vdW  Elec       q    Type
REMARK                         _______ _______ _______ _____ _____    ______ ____
ROOT
ATOM      1  C4* UNL     1       3.130   3.013  20.604  0.00  0.00    +0.000 C 
ATOM      2  O4* UNL     1       3.648   4.183  19.944  0.00  0.00    +0.000 OA
ATOM      3  C1* UNL     1       2.879   4.412  18.744  0.00  0.00    +0.000 C 
ATOM      4  C2* UNL     1       2.095   3.144  18.431  0.00  0.00    +0.000 C 
ATOM      5  C3* UNL     1       1.902   2.543  19.815  0.00  0.00    +0.000 C 
ENDROOT
BRANCH   3   6
ATOM      6  N   UNL     1       3.763   4.828  17.669  0.00  0.00    +0.000 N 
ATOM      7  C   UNL     1       4.250   4.048  16.658  0.00  0.00    +0.000 A 
ATOM      8  C   UNL     1       5.041   4.904  15.932  0.00  0.00    +0.000 A 
ATOM      9  N   UNL     1       5.018   6.146  16.509  0.00  0.00    +0.000 NA
ATOM     10  N   UNL     1       4.222   6.092  17.573  0.00  0.00    +0.000 NA
BRANCH   8  11
ATOM     11  C   UNL     1       5.814   4.630  14.721  0.00  0.00    +0.000 A 
ATOM     12  C   UNL     1       7.089   5.216  14.463  0.00  0.00    +0.000 A 
ATOM     13  C   UNL     1       7.611   4.822  13.249  0.00  0.00    +0.000 A 
ATOM     14  S   UNL     1       6.574   3.740  12.427  0.00  0.00    +0.000 S 
ATOM     15  C   UNL     1       5.416   3.799  13.693  0.00  0.00    +0.000 A 
ENDBRANCH   8  11
ENDBRANCH   3   6
BRANCH   4  16
ATOM     16  O2* UNL     1       0.833   3.433  17.815  0.00  0.00    +0.000 OA
ATOM     17  H2* UNL     1       0.156   3.224  18.496  0.00  0.00    +0.000 HD
ENDBRANCH   4  16
BRANCH   5  18
ATOM     18  O3* UNL     1       0.671   3.097  20.333  0.00  0.00    +0.000 OA
ATOM     19  H3* UNL     1       0.104   2.373  20.655  0.00  0.00    +0.000 HD
ENDBRANCH   5  18
BRANCH   1  20
ATOM     20  C5* UNL     1       4.233   1.965  20.736  0.00  0.00    +0.000 C 
BRANCH  20  21
ATOM     21  O5* UNL     1       5.217   2.165  19.728  0.00  0.00    +0.000 OA
ATOM     22  H5* UNL     1       5.837   1.414  19.775  0.00  0.00    +0.000 HD
ENDBRANCH  20  21
ENDBRANCH   1  20
TORSDOF 6
ENDMDL
