MODEL 1
REMARK VINA RESULT:      -6.0      0.000      0.000
REMARK  Name = 
REMARK  9 active torsions:
REMARK  status: ('A' for Active; 'I' for Inactive)
REMARK    1  A    between atoms: C_1  and  N_2
REMARK    2  A    between atoms: C_5  and  N_6
REMARK    3  A    between atoms: N_6  and  C_7
REMARK    4  A    between atoms: C_7  and  C_8
REMARK    5  A    between atoms: C_8  and  O_9
REMARK    6  A    between atoms: N_13  and  C_14
REMARK    7  A    between atoms: N_13  and  C_15
REMARK    8  A    between atoms: C_15  and  C_16
REMARK    9  A    between atoms: C_16  and  C_17
REMARK                            x       y       z     vdW  Elec       q    Type
REMARK                         _______ _______ _______ _____ _____    ______ ____
ROOT
ATOM      1  N   UNL     1      -2.864  13.101  21.275  0.00  0.00    +0.000 N 
ATOM      2  C   UNL     1      -2.527  12.285  20.207  0.00  0.00    +0.000 A 
ATOM      3  N   UNL     1      -1.417  11.529  20.233  0.00  0.00    +0.000 NA
ATOM      4  C   UNL     1      -1.100  10.775  19.144  0.00  0.00    +0.000 A 
ATOM      5  N   UNL     1       0.095  10.027  19.195  0.00  0.00    +0.000 N 
ATOM      6  C   UNL     1       0.999  10.073  18.044  0.00  0.00    +0.000 C 
ATOM      7  C   UNL     1      -1.987  10.685  18.036  0.00  0.00    +0.000 A 
ATOM      8  C   UNL     1      -1.883   9.859  16.876  0.00  0.00    +0.000 A 
ATOM      9  C   UNL     1      -2.842   9.889  15.861  0.00  0.00    +0.000 A 
ATOM     10  C   UNL     1      -3.958  10.696  16.002  0.00  0.00    +0.000 A 
ATOM     11  C   UNL     1      -4.087  11.479  17.144  0.00  0.00    +0.000 A 
ATOM     12  C   UNL     1      -3.117  11.490  18.136  0.00  0.00    +0.000 A 
ATOM     13  N   UNL     1      -3.346  12.287  19.164  0.00  0.00    +0.000 NA
ENDROOT
BRANCH   1  18
ATOM     14  C   UNL     1      -6.100  17.708  22.326  0.00  0.00    +0.000 C 
ATOM     15  N   UNL     1      -5.156  16.597  22.211  0.00  0.00    +0.000 NA
ATOM     16  C   UNL     1      -5.861  15.313  22.237  0.00  0.00    +0.000 C 
ATOM     17  C   UNL     1      -4.873  14.151  22.281  0.00  0.00    +0.000 C 
ATOM     18  C   UNL     1      -3.859  14.198  21.127  0.00  0.00    +0.000 C 
ATOM     19  C   UNL     1      -3.266  15.612  20.942  0.00  0.00    +0.000 C 
ATOM     20  C   UNL     1      -4.338  16.709  20.997  0.00  0.00    +0.000 C 
ENDBRANCH   1  18
BRANCH   1  21
ATOM     21  C   UNL     1      -2.465  12.650  22.611  0.00  0.00    +0.000 C 
BRANCH  21  22
ATOM     22  C   UNL     1      -1.256  13.418  23.163  0.00  0.00    +0.000 C 
BRANCH  22  23
ATOM     23  O   UNL     1      -0.022  12.801  22.797  0.00  0.00    +0.000 OA
ATOM     24  H   UNL     1       0.083  12.968  21.844  0.00  0.00    +0.000 HD
ENDBRANCH  22  23
ENDBRANCH  21  22
ENDBRANCH   1  21
BRANCH   5  25
ATOM     25  C   UNL     1       0.776   9.956  20.501  0.00  0.00    +0.000 C 
BRANCH  25  26
ATOM     26  C   UNL     1       0.140   8.901  21.398  0.00  0.00    +0.000 C 
BRANCH  26  27
ATOM     27  C   UNL     1       0.102   9.371  22.791  0.00  0.00    +0.000 C 
ATOM     28  N   UNL     1       0.075   9.722  23.891  0.00  0.00    +0.000 NA
ENDBRANCH  26  27
ENDBRANCH  25  26
ENDBRANCH   5  25
TORSDOF 7
ENDMDL
MODEL 2
REMARK VINA RESULT:      -5.4      2.122      6.867
REMARK  Name = 
REMARK  9 active torsions:
REMARK  status: ('A' for Active; 'I' for Inactive)
REMARK    1  A    between atoms: C_1  and  N_2
REMARK    2  A    between atoms: C_5  and  N_6
REMARK    3  A    between atoms: N_6  and  C_7
REMARK    4  A    between atoms: C_7  and  C_8
REMARK    5  A    between atoms: C_8  and  O_9
REMARK    6  A    between atoms: N_13  and  C_14
REMARK    7  A    between atoms: N_13  and  C_15
REMARK    8  A    between atoms: C_15  and  C_16
REMARK    9  A    between atoms: C_16  and  C_17
REMARK                            x       y       z     vdW  Elec       q    Type
REMARK                         _______ _______ _______ _____ _____    ______ ____
ROOT
ATOM      1  N   UNL     1       0.408   9.895  19.545  0.00  0.00    +0.000 N 
ATOM      2  C   UNL     1      -0.759  10.353  18.956  0.00  0.00    +0.000 A 
ATOM      3  N   UNL     1      -1.539  11.259  19.569  0.00  0.00    +0.000 NA
ATOM      4  C   UNL     1      -2.699  11.650  18.973  0.00  0.00    +0.000 A 
ATOM      5  N   UNL     1      -3.510  12.571  19.668  0.00  0.00    +0.000 N 
ATOM      6  C   UNL     1      -4.947  12.305  19.766  0.00  0.00    +0.000 C 
ATOM      7  C   UNL     1      -3.033  11.206  17.664  0.00  0.00    +0.000 A 
ATOM      8  C   UNL     1      -4.131  11.601  16.842  0.00  0.00    +0.000 A 
ATOM      9  C   UNL     1      -4.329  11.064  15.567  0.00  0.00    +0.000 A 
ATOM     10  C   UNL     1      -3.407  10.165  15.056  0.00  0.00    +0.000 A 
ATOM     11  C   UNL     1      -2.315   9.800  15.835  0.00  0.00    +0.000 A 
ATOM     12  C   UNL     1      -2.135  10.293  17.119  0.00  0.00    +0.000 A 
ATOM     13  N   UNL     1      -1.069   9.858  17.765  0.00  0.00    +0.000 NA
ENDROOT
BRANCH   1  18
ATOM     14  C   UNL     1       4.420   6.030  18.215  0.00  0.00    +0.000 C 
ATOM     15  N   UNL     1       3.540   7.106  18.668  0.00  0.00    +0.000 NA
ATOM     16  C   UNL     1       2.901   7.768  17.528  0.00  0.00    +0.000 C 
ATOM     17  C   UNL     1       2.110   8.992  17.983  0.00  0.00    +0.000 C 
ATOM     18  C   UNL     1       1.078   8.653  19.071  0.00  0.00    +0.000 C 
ATOM     19  C   UNL     1       1.683   7.762  20.178  0.00  0.00    +0.000 C 
ATOM     20  C   UNL     1       2.526   6.612  19.609  0.00  0.00    +0.000 C 
ENDBRANCH   1  18
BRANCH   1  21
ATOM     21  C   UNL     1       1.128  10.830  20.415  0.00  0.00    +0.000 C 
BRANCH  21  22
ATOM     22  C   UNL     1       0.790  10.643  21.900  0.00  0.00    +0.000 C 
BRANCH  22  23
ATOM     23  O   UNL     1      -0.182  11.589  22.347  0.00  0.00    +0.000 OA
ATOM     24  H   UNL     1       0.137  11.907  23.209  0.00  0.00    +0.000 HD
ENDBRANCH  22  23
ENDBRANCH  21  22
ENDBRANCH   1  21
BRANCH   5  25
ATOM     25  C   UNL     1      -2.923  13.195  20.869  0.00  0.00    +0.000 C 
BRANCH  25  26
ATOM     26  C   UNL     1      -3.998  13.546  21.890  0.00  0.00    +0.000 C 
BRANCH  26  27
ATOM     27  C   UNL     1      -3.850  12.714  23.093  0.00  0.00    +0.000 C 
ATOM     28  N   UNL     1      -3.721  12.050  24.029  0.00  0.00    +0.000 NA
ENDBRANCH  26  27
ENDBRANCH  25  26
ENDBRANCH   5  25
TORSDOF 7
ENDMDL
MODEL 3
REMARK VINA RESULT:      -5.4      1.607      1.900
REMARK  Name = 
REMARK  9 active torsions:
REMARK  status: ('A' for Active; 'I' for Inactive)
REMARK    1  A    between atoms: C_1  and  N_2
REMARK    2  A    between atoms: C_5  and  N_6
REMARK    3  A    between atoms: N_6  and  C_7
REMARK    4  A    between atoms: C_7  and  C_8
REMARK    5  A    between atoms: C_8  and  O_9
REMARK    6  A    between atoms: N_13  and  C_14
REMARK    7  A    between atoms: N_13  and  C_15
REMARK    8  A    between atoms: C_15  and  C_16
REMARK    9  A    between atoms: C_16  and  C_17
REMARK                            x       y       z     vdW  Elec       q    Type
REMARK                         _______ _______ _______ _____ _____    ______ ____
ROOT
ATOM      1  N   UNL     1      -1.742  12.885  21.841  0.00  0.00    +0.000 N 
ATOM      2  C   UNL     1      -1.648  12.104  20.701  0.00  0.00    +0.000 A 
ATOM      3  N   UNL     1      -0.626  11.250  20.525  0.00  0.00    +0.000 NA
ATOM      4  C   UNL     1      -0.550  10.533  19.370  0.00  0.00    +0.000 A 
ATOM      5  N   UNL     1       0.561   9.678  19.206  0.00  0.00    +0.000 N 
ATOM      6  C   UNL     1       1.285   9.707  17.934  0.00  0.00    +0.000 C 
ATOM      7  C   UNL     1      -1.595  10.587  18.406  0.00  0.00    +0.000 A 
ATOM      8  C   UNL     1      -1.744   9.823  17.211  0.00  0.00    +0.000 A 
ATOM      9  C   UNL     1      -2.835   9.997  16.355  0.00  0.00    +0.000 A 
ATOM     10  C   UNL     1      -3.834  10.893  16.699  0.00  0.00    +0.000 A 
ATOM     11  C   UNL     1      -3.715  11.618  17.880  0.00  0.00    +0.000 A 
ATOM     12  C   UNL     1      -2.613  11.484  18.712  0.00  0.00    +0.000 A 
ATOM     13  N   UNL     1      -2.608  12.239  19.795  0.00  0.00    +0.000 NA
ENDROOT
BRANCH   1  18
ATOM     14  C   UNL     1      -4.834  17.304  23.768  0.00  0.00    +0.000 C 
ATOM     15  N   UNL     1      -3.950  16.182  23.457  0.00  0.00    +0.000 NA
ATOM     16  C   UNL     1      -4.723  15.023  23.001  0.00  0.00    +0.000 C 
ATOM     17  C   UNL     1      -3.824  13.803  22.830  0.00  0.00    +0.000 C 
ATOM     18  C   UNL     1      -2.636  14.074  21.893  0.00  0.00    +0.000 C 
ATOM     19  C   UNL     1      -1.940  15.413  22.222  0.00  0.00    +0.000 C 
ATOM     20  C   UNL     1      -2.942  16.552  22.456  0.00  0.00    +0.000 C 
ENDBRANCH   1  18
BRANCH   1  21
ATOM     21  C   UNL     1      -1.197  12.324  23.081  0.00  0.00    +0.000 C 
BRANCH  21  22
ATOM     22  C   UNL     1      -1.302  10.794  23.141  0.00  0.00    +0.000 C 
BRANCH  22  23
ATOM     23  O   UNL     1      -0.075  10.192  23.552  0.00  0.00    +0.000 OA
ATOM     24  H   UNL     1      -0.310   9.302  23.865  0.00  0.00    +0.000 HD
ENDBRANCH  22  23
ENDBRANCH  21  22
ENDBRANCH   1  21
BRANCH   5  25
ATOM     25  C   UNL     1       1.416   9.471  20.389  0.00  0.00    +0.000 C 
BRANCH  25  26
ATOM     26  C   UNL     1       1.186   8.095  21.002  0.00  0.00    +0.000 C 
BRANCH  26  27
ATOM     27  C   UNL     1       1.947   7.075  20.266  0.00  0.00    +0.000 C 
ATOM     28  N   UNL     1       2.559   6.285  19.687  0.00  0.00    +0.000 NA
ENDBRANCH  26  27
ENDBRANCH  25  26
ENDBRANCH   5  25
TORSDOF 7
ENDMDL
MODEL 4
REMARK VINA RESULT:      -5.4      4.707      7.672
REMARK  Name = 
REMARK  9 active torsions:
REMARK  status: ('A' for Active; 'I' for Inactive)
REMARK    1  A    between atoms: C_1  and  N_2
REMARK    2  A    between atoms: C_5  and  N_6
REMARK    3  A    between atoms: N_6  and  C_7
REMARK    4  A    between atoms: C_7  and  C_8
REMARK    5  A    between atoms: C_8  and  O_9
REMARK    6  A    between atoms: N_13  and  C_14
REMARK    7  A    between atoms: N_13  and  C_15
REMARK    8  A    between atoms: C_15  and  C_16
REMARK    9  A    between atoms: C_16  and  C_17
REMARK                            x       y       z     vdW  Elec       q    Type
REMARK                         _______ _______ _______ _____ _____    ______ ____
ROOT
ATOM      1  N   UNL     1       1.795   9.089  18.412  0.00  0.00    +0.000 N 
ATOM      2  C   UNL     1       2.282   7.806  18.602  0.00  0.00    +0.000 A 
ATOM      3  N   UNL     1       3.316   7.341  17.882  0.00  0.00    +0.000 NA
ATOM      4  C   UNL     1       3.735   6.059  18.071  0.00  0.00    +0.000 A 
ATOM      5  N   UNL     1       4.796   5.595  17.266  0.00  0.00    +0.000 N 
ATOM      6  C   UNL     1       4.669   4.286  16.624  0.00  0.00    +0.000 C 
ATOM      7  C   UNL     1       3.173   5.251  19.099  0.00  0.00    +0.000 A 
ATOM      8  C   UNL     1       3.565   3.946  19.519  0.00  0.00    +0.000 A 
ATOM      9  C   UNL     1       2.904   3.273  20.551  0.00  0.00    +0.000 A 
ATOM     10  C   UNL     1       1.877   3.908  21.229  0.00  0.00    +0.000 A 
ATOM     11  C   UNL     1       1.510   5.194  20.849  0.00  0.00    +0.000 A 
ATOM     12  C   UNL     1       2.130   5.851  19.796  0.00  0.00    +0.000 A 
ATOM     13  N   UNL     1       1.681   7.062  19.522  0.00  0.00    +0.000 NA
ENDROOT
BRANCH   1  18
ATOM     14  C   UNL     1      -2.712  12.241  20.012  0.00  0.00    +0.000 C 
ATOM     15  N   UNL     1      -1.498  11.603  19.505  0.00  0.00    +0.000 NA
ATOM     16  C   UNL     1      -0.741  10.986  20.598  0.00  0.00    +0.000 C 
ATOM     17  C   UNL     1       0.603  10.462  20.099  0.00  0.00    +0.000 C 
ATOM     18  C   UNL     1       0.453   9.490  18.917  0.00  0.00    +0.000 C 
ATOM     19  C   UNL     1      -0.524  10.031  17.851  0.00  0.00    +0.000 C 
ATOM     20  C   UNL     1      -1.805  10.609  18.468  0.00  0.00    +0.000 C 
ENDBRANCH   1  18
BRANCH   1  21
ATOM     21  C   UNL     1       2.757  10.113  17.996  0.00  0.00    +0.000 C 
BRANCH  21  22
ATOM     22  C   UNL     1       2.263  11.541  18.268  0.00  0.00    +0.000 C 
BRANCH  22  23
ATOM     23  O   UNL     1       2.583  12.427  17.197  0.00  0.00    +0.000 OA
ATOM     24  H   UNL     1       1.781  12.479  16.649  0.00  0.00    +0.000 HD
ENDBRANCH  22  23
ENDBRANCH  21  22
ENDBRANCH   1  21
BRANCH   5  25
ATOM     25  C   UNL     1       5.500   6.605  16.454  0.00  0.00    +0.000 C 
BRANCH  25  26
ATOM     26  C   UNL     1       6.775   7.077  17.143  0.00  0.00    +0.000 C 
BRANCH  26  27
ATOM     27  C   UNL     1       7.339   5.998  17.967  0.00  0.00    +0.000 C 
ATOM     28  N   UNL     1       7.791   5.143  18.598  0.00  0.00    +0.000 NA
ENDBRANCH  26  27
ENDBRANCH  25  26
ENDBRANCH   5  25
TORSDOF 7
ENDMDL
MODEL 5
REMARK VINA RESULT:      -5.4      1.174      1.220
REMARK  Name = 
REMARK  9 active torsions:
REMARK  status: ('A' for Active; 'I' for Inactive)
REMARK    1  A    between atoms: C_1  and  N_2
REMARK    2  A    between atoms: C_5  and  N_6
REMARK    3  A    between atoms: N_6  and  C_7
REMARK    4  A    between atoms: C_7  and  C_8
REMARK    5  A    between atoms: C_8  and  O_9
REMARK    6  A    between atoms: N_13  and  C_14
REMARK    7  A    between atoms: N_13  and  C_15
REMARK    8  A    between atoms: C_15  and  C_16
REMARK    9  A    between atoms: C_16  and  C_17
REMARK                            x       y       z     vdW  Elec       q    Type
REMARK                         _______ _______ _______ _____ _____    ______ ____
ROOT
ATOM      1  N   UNL     1      -2.188  13.370  21.578  0.00  0.00    +0.000 N 
ATOM      2  C   UNL     1      -2.071  12.481  20.523  0.00  0.00    +0.000 A 
ATOM      3  N   UNL     1      -1.050  11.610  20.456  0.00  0.00    +0.000 NA
ATOM      4  C   UNL     1      -0.951  10.783  19.379  0.00  0.00    +0.000 A 
ATOM      5  N   UNL     1       0.158   9.913  19.326  0.00  0.00    +0.000 N 
ATOM      6  C   UNL     1       0.912   9.814  18.075  0.00  0.00    +0.000 C 
ATOM      7  C   UNL     1      -1.973  10.746  18.390  0.00  0.00    +0.000 A 
ATOM      8  C   UNL     1      -2.099   9.868  17.272  0.00  0.00    +0.000 A 
ATOM      9  C   UNL     1      -3.169   9.961  16.378  0.00  0.00    +0.000 A 
ATOM     10  C   UNL     1      -4.170  10.890  16.608  0.00  0.00    +0.000 A 
ATOM     11  C   UNL     1      -4.075  11.727  17.715  0.00  0.00    +0.000 A 
ATOM     12  C   UNL     1      -2.993  11.672  18.582  0.00  0.00    +0.000 A 
ATOM     13  N   UNL     1      -3.009  12.529  19.586  0.00  0.00    +0.000 NA
ENDROOT
BRANCH   1  18
ATOM     14  C   UNL     1      -4.358  18.619  22.314  0.00  0.00    +0.000 C 
ATOM     15  N   UNL     1      -3.629  17.357  22.194  0.00  0.00    +0.000 NA
ATOM     16  C   UNL     1      -4.344  16.278  22.882  0.00  0.00    +0.000 C 
ATOM     17  C   UNL     1      -3.510  15.000  22.900  0.00  0.00    +0.000 C 
ATOM     18  C   UNL     1      -3.075  14.562  21.492  0.00  0.00    +0.000 C 
ATOM     19  C   UNL     1      -2.521  15.745  20.669  0.00  0.00    +0.000 C 
ATOM     20  C   UNL     1      -3.392  17.003  20.790  0.00  0.00    +0.000 C 
ENDBRANCH   1  18
BRANCH   1  21
ATOM     21  C   UNL     1      -1.674  12.932  22.880  0.00  0.00    +0.000 C 
BRANCH  21  22
ATOM     22  C   UNL     1      -2.341  11.644  23.381  0.00  0.00    +0.000 C 
BRANCH  22  23
ATOM     23  O   UNL     1      -3.639  11.893  23.921  0.00  0.00    +0.000 OA
ATOM     24  H   UNL     1      -4.087  12.468  23.277  0.00  0.00    +0.000 HD
ENDBRANCH  22  23
ENDBRANCH  21  22
ENDBRANCH   1  21
BRANCH   5  25
ATOM     25  C   UNL     1       0.985   9.820  20.544  0.00  0.00    +0.000 C 
BRANCH  25  26
ATOM     26  C   UNL     1       0.469   8.735  21.480  0.00  0.00    +0.000 C 
BRANCH  26  27
ATOM     27  C   UNL     1       0.433   9.230  22.864  0.00  0.00    +0.000 C 
ATOM     28  N   UNL     1       0.413   9.602  23.957  0.00  0.00    +0.000 NA
ENDBRANCH  26  27
ENDBRANCH  25  26
ENDBRANCH   5  25
TORSDOF 7
ENDMDL
MODEL 6
REMARK VINA RESULT:      -5.3      5.040      8.213
REMARK  Name = 
REMARK  9 active torsions:
REMARK  status: ('A' for Active; 'I' for Inactive)
REMARK    1  A    between atoms: C_1  and  N_2
REMARK    2  A    between atoms: C_5  and  N_6
REMARK    3  A    between atoms: N_6  and  C_7
REMARK    4  A    between atoms: C_7  and  C_8
REMARK    5  A    between atoms: C_8  and  O_9
REMARK    6  A    between atoms: N_13  and  C_14
REMARK    7  A    between atoms: N_13  and  C_15
REMARK    8  A    between atoms: C_15  and  C_16
REMARK    9  A    between atoms: C_16  and  C_17
REMARK                            x       y       z     vdW  Elec       q    Type
REMARK                         _______ _______ _______ _____ _____    ______ ____
ROOT
ATOM      1  N   UNL     1       1.829   8.449  19.379  0.00  0.00    +0.000 N 
ATOM      2  C   UNL     1       2.303   7.149  19.331  0.00  0.00    +0.000 A 
ATOM      3  N   UNL     1       3.101   6.736  18.332  0.00  0.00    +0.000 NA
ATOM      4  C   UNL     1       3.509   5.437  18.301  0.00  0.00    +0.000 A 
ATOM      5  N   UNL     1       4.312   5.033  17.214  0.00  0.00    +0.000 N 
ATOM      6  C   UNL     1       3.978   3.786  16.521  0.00  0.00    +0.000 C 
ATOM      7  C   UNL     1       3.202   4.549  19.369  0.00  0.00    +0.000 A 
ATOM      8  C   UNL     1       3.643   3.206  19.565  0.00  0.00    +0.000 A 
ATOM      9  C   UNL     1       3.245   2.454  20.674  0.00  0.00    +0.000 A 
ATOM     10  C   UNL     1       2.449   3.039  21.644  0.00  0.00    +0.000 A 
ATOM     11  C   UNL     1       2.042   4.359  21.479  0.00  0.00    +0.000 A 
ATOM     12  C   UNL     1       2.394   5.098  20.359  0.00  0.00    +0.000 A 
ATOM     13  N   UNL     1       1.933   6.334  20.310  0.00  0.00    +0.000 NA
ENDROOT
BRANCH   1  18
ATOM     14  C   UNL     1      -1.501  11.194  23.146  0.00  0.00    +0.000 C 
ATOM     15  N   UNL     1      -0.541  10.665  22.177  0.00  0.00    +0.000 NA
ATOM     16  C   UNL     1       0.008   9.386  22.637  0.00  0.00    +0.000 C 
ATOM     17  C   UNL     1       1.126   8.911  21.712  0.00  0.00    +0.000 C 
ATOM     18  C   UNL     1       0.676   8.822  20.245  0.00  0.00    +0.000 C 
ATOM     19  C   UNL     1      -0.105  10.079  19.806  0.00  0.00    +0.000 C 
ATOM     20  C   UNL     1      -1.145  10.516  20.848  0.00  0.00    +0.000 C 
ENDBRANCH   1  18
BRANCH   1  21
ATOM     21  C   UNL     1       2.687   9.494  18.814  0.00  0.00    +0.000 C 
BRANCH  21  22
ATOM     22  C   UNL     1       2.107  10.118  17.538  0.00  0.00    +0.000 C 
BRANCH  22  23
ATOM     23  O   UNL     1       2.550  11.462  17.353  0.00  0.00    +0.000 OA
ATOM     24  H   UNL     1       2.944  11.729  18.202  0.00  0.00    +0.000 HD
ENDBRANCH  22  23
ENDBRANCH  21  22
ENDBRANCH   1  21
BRANCH   5  25
ATOM     25  C   UNL     1       4.819   6.101  16.333  0.00  0.00    +0.000 C 
BRANCH  25  26
ATOM     26  C   UNL     1       6.205   6.561  16.765  0.00  0.00    +0.000 C 
BRANCH  26  27
ATOM     27  C   UNL     1       7.118   5.412  16.861  0.00  0.00    +0.000 C 
ATOM     28  N   UNL     1       7.835   4.512  16.956  0.00  0.00    +0.000 NA
ENDBRANCH  26  27
ENDBRANCH  25  26
ENDBRANCH   5  25
TORSDOF 7
ENDMDL
MODEL 7
REMARK VINA RESULT:      -5.3      1.551      1.837
REMARK  Name = 
REMARK  9 active torsions:
REMARK  status: ('A' for Active; 'I' for Inactive)
REMARK    1  A    between atoms: C_1  and  N_2
REMARK    2  A    between atoms: C_5  and  N_6
REMARK    3  A    between atoms: N_6  and  C_7
REMARK    4  A    between atoms: C_7  and  C_8
REMARK    5  A    between atoms: C_8  and  O_9
REMARK    6  A    between atoms: N_13  and  C_14
REMARK    7  A    between atoms: N_13  and  C_15
REMARK    8  A    between atoms: C_15  and  C_16
REMARK    9  A    between atoms: C_16  and  C_17
REMARK                            x       y       z     vdW  Elec       q    Type
REMARK                         _______ _______ _______ _____ _____    ______ ____
ROOT
ATOM      1  N   UNL     1      -3.398  12.954  21.690  0.00  0.00    +0.000 N 
ATOM      2  C   UNL     1      -2.900  12.301  20.575  0.00  0.00    +0.000 A 
ATOM      3  N   UNL     1      -1.677  11.744  20.582  0.00  0.00    +0.000 NA
ATOM      4  C   UNL     1      -1.209  11.149  19.450  0.00  0.00    +0.000 A 
ATOM      5  N   UNL     1       0.095  10.614  19.487  0.00  0.00    +0.000 N 
ATOM      6  C   UNL     1       1.005  10.909  18.379  0.00  0.00    +0.000 C 
ATOM      7  C   UNL     1      -2.041  11.004  18.305  0.00  0.00    +0.000 A 
ATOM      8  C   UNL     1      -1.768  10.309  17.089  0.00  0.00    +0.000 A 
ATOM      9  C   UNL     1      -2.694  10.260  16.044  0.00  0.00    +0.000 A 
ATOM     10  C   UNL     1      -3.936  10.851  16.206  0.00  0.00    +0.000 A 
ATOM     11  C   UNL     1      -4.224  11.502  17.400  0.00  0.00    +0.000 A 
ATOM     12  C   UNL     1      -3.294  11.594  18.426  0.00  0.00    +0.000 A 
ATOM     13  N   UNL     1      -3.682  12.251  19.504  0.00  0.00    +0.000 NA
ENDROOT
BRANCH   1  18
ATOM     14  C   UNL     1      -7.508  16.344  19.587  0.00  0.00    +0.000 C 
ATOM     15  N   UNL     1      -6.442  15.405  19.934  0.00  0.00    +0.000 NA
ATOM     16  C   UNL     1      -5.345  16.095  20.617  0.00  0.00    +0.000 C 
ATOM     17  C   UNL     1      -4.164  15.154  20.837  0.00  0.00    +0.000 C 
ATOM     18  C   UNL     1      -4.563  13.875  21.591  0.00  0.00    +0.000 C 
ATOM     19  C   UNL     1      -5.855  13.252  21.019  0.00  0.00    +0.000 C 
ATOM     20  C   UNL     1      -6.946  14.300  20.759  0.00  0.00    +0.000 C 
ENDBRANCH   1  18
BRANCH   1  21
ATOM     21  C   UNL     1      -2.959  12.467  23.000  0.00  0.00    +0.000 C 
BRANCH  21  22
ATOM     22  C   UNL     1      -3.891  12.900  24.140  0.00  0.00    +0.000 C 
BRANCH  22  23
ATOM     23  O   UNL     1      -4.589  11.791  24.706  0.00  0.00    +0.000 OA
ATOM     24  H   UNL     1      -5.464  12.133  24.961  0.00  0.00    +0.000 HD
ENDBRANCH  22  23
ENDBRANCH  21  22
ENDBRANCH   1  21
BRANCH   5  25
ATOM     25  C   UNL     1       0.747  10.549  20.808  0.00  0.00    +0.000 C 
BRANCH  25  26
ATOM     26  C   UNL     1       0.473   9.217  21.494  0.00  0.00    +0.000 C 
BRANCH  26  27
ATOM     27  C   UNL     1       0.364   9.404  22.949  0.00  0.00    +0.000 C 
ATOM     28  N   UNL     1       0.291   9.537  24.094  0.00  0.00    +0.000 NA
ENDBRANCH  26  27
ENDBRANCH  25  26
ENDBRANCH   5  25
TORSDOF 7
ENDMDL
MODEL 8
REMARK VINA RESULT:      -5.2      1.155      1.291
REMARK  Name = 
REMARK  9 active torsions:
REMARK  status: ('A' for Active; 'I' for Inactive)
REMARK    1  A    between atoms: C_1  and  N_2
REMARK    2  A    between atoms: C_5  and  N_6
REMARK    3  A    between atoms: N_6  and  C_7
REMARK    4  A    between atoms: C_7  and  C_8
REMARK    5  A    between atoms: C_8  and  O_9
REMARK    6  A    between atoms: N_13  and  C_14
REMARK    7  A    between atoms: N_13  and  C_15
REMARK    8  A    between atoms: C_15  and  C_16
REMARK    9  A    between atoms: C_16  and  C_17
REMARK                            x       y       z     vdW  Elec       q    Type
REMARK                         _______ _______ _______ _____ _____    ______ ____
ROOT
ATOM      1  N   UNL     1      -3.145  13.191  21.494  0.00  0.00    +0.000 N 
ATOM      2  C   UNL     1      -2.681  12.393  20.461  0.00  0.00    +0.000 A 
ATOM      3  N   UNL     1      -1.507  11.747  20.554  0.00  0.00    +0.000 NA
ATOM      4  C   UNL     1      -1.069  11.007  19.498  0.00  0.00    +0.000 A 
ATOM      5  N   UNL     1       0.188  10.378  19.620  0.00  0.00    +0.000 N 
ATOM      6  C   UNL     1       1.137  10.490  18.511  0.00  0.00    +0.000 C 
ATOM      7  C   UNL     1      -1.890  10.812  18.353  0.00  0.00    +0.000 A 
ATOM      8  C   UNL     1      -1.653   9.980  17.219  0.00  0.00    +0.000 A 
ATOM      9  C   UNL     1      -2.562   9.899  16.160  0.00  0.00    +0.000 A 
ATOM     10  C   UNL     1      -3.755  10.598  16.232  0.00  0.00    +0.000 A 
ATOM     11  C   UNL     1      -4.011  11.386  17.349  0.00  0.00    +0.000 A 
ATOM     12  C   UNL     1      -3.094  11.507  18.384  0.00  0.00    +0.000 A 
ATOM     13  N   UNL     1      -3.446  12.297  19.382  0.00  0.00    +0.000 NA
ENDROOT
BRANCH   1  18
ATOM     14  C   UNL     1      -6.834  17.501  22.284  0.00  0.00    +0.000 C 
ATOM     15  N   UNL     1      -5.787  16.481  22.238  0.00  0.00    +0.000 NA
ATOM     16  C   UNL     1      -6.370  15.137  22.279  0.00  0.00    +0.000 C 
ATOM     17  C   UNL     1      -5.280  14.075  22.394  0.00  0.00    +0.000 C 
ATOM     18  C   UNL     1      -4.231  14.185  21.276  0.00  0.00    +0.000 C 
ATOM     19  C   UNL     1      -3.766  15.643  21.068  0.00  0.00    +0.000 C 
ATOM     20  C   UNL     1      -4.937  16.635  21.051  0.00  0.00    +0.000 C 
ENDBRANCH   1  18
BRANCH   1  21
ATOM     21  C   UNL     1      -2.769  12.805  22.857  0.00  0.00    +0.000 C 
BRANCH  21  22
ATOM     22  C   UNL     1      -1.708  13.731  23.468  0.00  0.00    +0.000 C 
BRANCH  22  23
ATOM     23  O   UNL     1      -2.285  14.684  24.361  0.00  0.00    +0.000 OA
ATOM     24  H   UNL     1      -2.142  14.328  25.255  0.00  0.00    +0.000 HD
ENDBRANCH  22  23
ENDBRANCH  21  22
ENDBRANCH   1  21
BRANCH   5  25
ATOM     25  C   UNL     1       0.809  10.396  20.957  0.00  0.00    +0.000 C 
BRANCH  25  26
ATOM     26  C   UNL     1       0.590   9.076  21.686  0.00  0.00    +0.000 C 
BRANCH  26  27
ATOM     27  C   UNL     1       1.278   7.983  20.981  0.00  0.00    +0.000 C 
ATOM     28  N   UNL     1       1.833   7.127  20.441  0.00  0.00    +0.000 NA
ENDBRANCH  26  27
ENDBRANCH  25  26
ENDBRANCH   5  25
TORSDOF 7
ENDMDL
MODEL 9
REMARK VINA RESULT:      -5.2      2.400      6.886
REMARK  Name = 
REMARK  9 active torsions:
REMARK  status: ('A' for Active; 'I' for Inactive)
REMARK    1  A    between atoms: C_1  and  N_2
REMARK    2  A    between atoms: C_5  and  N_6
REMARK    3  A    between atoms: N_6  and  C_7
REMARK    4  A    between atoms: C_7  and  C_8
REMARK    5  A    between atoms: C_8  and  O_9
REMARK    6  A    between atoms: N_13  and  C_14
REMARK    7  A    between atoms: N_13  and  C_15
REMARK    8  A    between atoms: C_15  and  C_16
REMARK    9  A    between atoms: C_16  and  C_17
REMARK                            x       y       z     vdW  Elec       q    Type
REMARK                         _______ _______ _______ _____ _____    ______ ____
ROOT
ATOM      1  N   UNL     1       0.762  10.129  19.404  0.00  0.00    +0.000 N 
ATOM      2  C   UNL     1      -0.485  10.586  19.009  0.00  0.00    +0.000 A 
ATOM      3  N   UNL     1      -1.114  11.563  19.683  0.00  0.00    +0.000 NA
ATOM      4  C   UNL     1      -2.358  11.951  19.285  0.00  0.00    +0.000 A 
ATOM      5  N   UNL     1      -3.001  12.951  20.044  0.00  0.00    +0.000 N 
ATOM      6  C   UNL     1      -4.398  12.746  20.431  0.00  0.00    +0.000 C 
ATOM      7  C   UNL     1      -2.944  11.423  18.102  0.00  0.00    +0.000 A 
ATOM      8  C   UNL     1      -4.168  11.797  17.471  0.00  0.00    +0.000 A 
ATOM      9  C   UNL     1      -4.616  11.174  16.303  0.00  0.00    +0.000 A 
ATOM     10  C   UNL     1      -3.829  10.206  15.702  0.00  0.00    +0.000 A 
ATOM     11  C   UNL     1      -2.617   9.859  16.290  0.00  0.00    +0.000 A 
ATOM     12  C   UNL     1      -2.186  10.440  17.474  0.00  0.00    +0.000 A 
ATOM     13  N   UNL     1      -1.027  10.015  17.941  0.00  0.00    +0.000 NA
ENDROOT
BRANCH   1  18
ATOM     14  C   UNL     1       4.359   5.892  18.022  0.00  0.00    +0.000 C 
ATOM     15  N   UNL     1       3.593   7.046  18.490  0.00  0.00    +0.000 NA
ATOM     16  C   UNL     1       3.025   7.785  17.358  0.00  0.00    +0.000 C 
ATOM     17  C   UNL     1       2.363   9.077  17.830  0.00  0.00    +0.000 C 
ATOM     18  C   UNL     1       1.302   8.832  18.914  0.00  0.00    +0.000 C 
ATOM     19  C   UNL     1       1.812   7.869  20.009  0.00  0.00    +0.000 C 
ATOM     20  C   UNL     1       2.534   6.647  19.425  0.00  0.00    +0.000 C 
ENDBRANCH   1  18
BRANCH   1  21
ATOM     21  C   UNL     1       1.654  11.099  20.046  0.00  0.00    +0.000 C 
BRANCH  21  22
ATOM     22  C   UNL     1       1.699  12.445  19.312  0.00  0.00    +0.000 C 
BRANCH  22  23
ATOM     23  O   UNL     1       2.280  12.324  18.013  0.00  0.00    +0.000 OA
ATOM     24  H   UNL     1       1.613  11.874  17.467  0.00  0.00    +0.000 HD
ENDBRANCH  22  23
ENDBRANCH  21  22
ENDBRANCH   1  21
BRANCH   5  25
ATOM     25  C   UNL     1      -2.183  13.640  21.060  0.00  0.00    +0.000 C 
BRANCH  25  26
ATOM     26  C   UNL     1      -2.502  13.134  22.461  0.00  0.00    +0.000 C 
BRANCH  26  27
ATOM     27  C   UNL     1      -1.512  12.129  22.879  0.00  0.00    +0.000 C 
ATOM     28  N   UNL     1      -0.721  11.350  23.197  0.00  0.00    +0.000 NA
ENDBRANCH  26  27
ENDBRANCH  25  26
ENDBRANCH   5  25
TORSDOF 7
ENDMDL
