MODEL 1
REMARK VINA RESULT:      -9.1      0.000      0.000
REMARK  Name = 
REMARK  6 active torsions:
REMARK  status: ('A' for Active; 'I' for Inactive)
REMARK    1  A    between atoms: C_1  and  C_2
REMARK    2  A    between atoms: C_5  and  S_6
REMARK    3  A    between atoms: S_6  and  N_9
REMARK    4  A    between atoms: C_10  and  C_19
REMARK    5  A    between atoms: N_11  and  C_12
REMARK    6  A    between atoms: C_16  and  O_17
REMARK                            x       y       z     vdW  Elec       q    Type
REMARK                         _______ _______ _______ _____ _____    ______ ____
ROOT
ATOM      1  N   UNL     1       5.385   6.438  17.753  0.00  0.00    +0.000 N 
ATOM      2  C   UNL     1       4.220   5.957  18.385  0.00  0.00    +0.000 C 
ATOM      3  N   UNL     1       4.173   4.692  18.647  0.00  0.00    +0.000 NA
ATOM      4  H   UNL     1       5.445   7.375  17.371  0.00  0.00    +0.000 HD
ENDROOT
BRANCH   3   5
ATOM      5  C   UNL     1       3.070   3.950  19.081  0.00  0.00    +0.000 A 
ATOM      6  C   UNL     1       2.060   3.679  18.149  0.00  0.00    +0.000 A 
ATOM      7  C   UNL     1       0.858   3.080  18.543  0.00  0.00    +0.000 A 
ATOM      8  C   UNL     1       0.668   2.707  19.872  0.00  0.00    +0.000 A 
ATOM      9  C   UNL     1       1.676   2.955  20.794  0.00  0.00    +0.000 A 
ATOM     10  C   UNL     1       2.844   3.606  20.416  0.00  0.00    +0.000 A 
BRANCH   9  11
ATOM     11  O   UNL     1       1.561   2.588  22.101  0.00  0.00    +0.000 OA
ATOM     12  H   UNL     1       1.604   3.385  22.653  0.00  0.00    +0.000 HD
ENDBRANCH   9  11
ENDBRANCH   3   5
BRANCH   2  13
ATOM     13  C   UNL     1       3.183   7.014  18.626  0.00  0.00    +0.000 A 
ATOM     14  C   UNL     1       2.504   7.099  19.857  0.00  0.00    +0.000 A 
ATOM     15  C   UNL     1       1.532   8.087  20.063  0.00  0.00    +0.000 A 
ATOM     16  C   UNL     1       1.264   9.024  19.070  0.00  0.00    +0.000 A 
ATOM     17  C   UNL     1       1.932   8.953  17.851  0.00  0.00    +0.000 A 
ATOM     18  C   UNL     1       2.850   7.926  17.616  0.00  0.00    +0.000 A 
ENDBRANCH   2  13
BRANCH   1  19
ATOM     19  S   UNL     1       6.775   5.577  17.413  0.00  0.00    +0.000 S 
ATOM     20  O   UNL     1       6.916   4.510  18.387  0.00  0.00    +0.000 OA
ATOM     21  O   UNL     1       7.814   6.579  17.265  0.00  0.00    +0.000 OA
BRANCH  19  26
ATOM     22  C   UNL     1       5.759   3.196  11.923  0.00  0.00    +0.000 C 
ATOM     23  C   UNL     1       6.012   3.782  13.281  0.00  0.00    +0.000 A 
ATOM     24  C   UNL     1       5.120   3.553  14.336  0.00  0.00    +0.000 A 
ATOM     25  C   UNL     1       5.357   4.104  15.595  0.00  0.00    +0.000 A 
ATOM     26  C   UNL     1       6.500   4.877  15.807  0.00  0.00    +0.000 A 
ATOM     27  C   UNL     1       7.397   5.125  14.763  0.00  0.00    +0.000 A 
ATOM     28  C   UNL     1       7.149   4.576  13.503  0.00  0.00    +0.000 A 
ENDBRANCH  19  26
ENDBRANCH   1  19
TORSDOF 5
ENDMDL
MODEL 2
REMARK VINA RESULT:      -9.0      0.053      1.342
REMARK  Name = 
REMARK  6 active torsions:
REMARK  status: ('A' for Active; 'I' for Inactive)
REMARK    1  A    between atoms: C_1  and  C_2
REMARK    2  A    between atoms: C_5  and  S_6
REMARK    3  A    between atoms: S_6  and  N_9
REMARK    4  A    between atoms: C_10  and  C_19
REMARK    5  A    between atoms: N_11  and  C_12
REMARK    6  A    between atoms: C_16  and  O_17
REMARK                            x       y       z     vdW  Elec       q    Type
REMARK                         _______ _______ _______ _____ _____    ______ ____
ROOT
ATOM      1  N   UNL     1       5.374   6.436  17.770  0.00  0.00    +0.000 N 
ATOM      2  C   UNL     1       4.212   5.953  18.404  0.00  0.00    +0.000 C 
ATOM      3  N   UNL     1       4.164   4.686  18.658  0.00  0.00    +0.000 NA
ATOM      4  H   UNL     1       5.433   7.376  17.395  0.00  0.00    +0.000 HD
ENDROOT
BRANCH   3   5
ATOM      5  C   UNL     1       3.062   3.942  19.090  0.00  0.00    +0.000 A 
ATOM      6  C   UNL     1       2.051   3.672  18.159  0.00  0.00    +0.000 A 
ATOM      7  C   UNL     1       0.850   3.071  18.554  0.00  0.00    +0.000 A 
ATOM      8  C   UNL     1       0.661   2.696  19.882  0.00  0.00    +0.000 A 
ATOM      9  C   UNL     1       1.670   2.943  20.803  0.00  0.00    +0.000 A 
ATOM     10  C   UNL     1       2.837   3.595  20.425  0.00  0.00    +0.000 A 
BRANCH   9  11
ATOM     11  O   UNL     1       1.556   2.574  22.110  0.00  0.00    +0.000 OA
ATOM     12  H   UNL     1       2.283   2.976  22.612  0.00  0.00    +0.000 HD
ENDBRANCH   9  11
ENDBRANCH   3   5
BRANCH   2  13
ATOM     13  C   UNL     1       3.177   7.009  18.657  0.00  0.00    +0.000 A 
ATOM     14  C   UNL     1       2.840   7.950  17.665  0.00  0.00    +0.000 A 
ATOM     15  C   UNL     1       1.878   8.935  17.921  0.00  0.00    +0.000 A 
ATOM     16  C   UNL     1       1.210   8.963  19.142  0.00  0.00    +0.000 A 
ATOM     17  C   UNL     1       1.533   8.036  20.128  0.00  0.00    +0.000 A 
ATOM     18  C   UNL     1       2.542   7.097  19.904  0.00  0.00    +0.000 A 
ENDBRANCH   2  13
BRANCH   1  19
ATOM     19  S   UNL     1       6.761   5.576  17.418  0.00  0.00    +0.000 S 
ATOM     20  O   UNL     1       6.906   4.503  18.385  0.00  0.00    +0.000 OA
ATOM     21  O   UNL     1       7.801   6.577  17.271  0.00  0.00    +0.000 OA
BRANCH  19  26
ATOM     22  C   UNL     1       5.867   3.201  11.904  0.00  0.00    +0.000 C 
ATOM     23  C   UNL     1       6.086   3.791  13.266  0.00  0.00    +0.000 A 
ATOM     24  C   UNL     1       7.185   4.621  13.518  0.00  0.00    +0.000 A 
ATOM     25  C   UNL     1       7.388   5.163  14.786  0.00  0.00    +0.000 A 
ATOM     26  C   UNL     1       6.478   4.886  15.809  0.00  0.00    +0.000 A 
ATOM     27  C   UNL     1       5.380   4.051  15.579  0.00  0.00    +0.000 A 
ATOM     28  C   UNL     1       5.187   3.507  14.308  0.00  0.00    +0.000 A 
ENDBRANCH  19  26
ENDBRANCH   1  19
TORSDOF 5
ENDMDL
MODEL 3
REMARK VINA RESULT:      -8.8      0.907      1.595
REMARK  Name = 
REMARK  6 active torsions:
REMARK  status: ('A' for Active; 'I' for Inactive)
REMARK    1  A    between atoms: C_1  and  C_2
REMARK    2  A    between atoms: C_5  and  S_6
REMARK    3  A    between atoms: S_6  and  N_9
REMARK    4  A    between atoms: C_10  and  C_19
REMARK    5  A    between atoms: N_11  and  C_12
REMARK    6  A    between atoms: C_16  and  O_17
REMARK                            x       y       z     vdW  Elec       q    Type
REMARK                         _______ _______ _______ _____ _____    ______ ____
ROOT
ATOM      1  N   UNL     1       5.173   6.649  17.892  0.00  0.00    +0.000 N 
ATOM      2  C   UNL     1       4.006   6.215  18.552  0.00  0.00    +0.000 C 
ATOM      3  N   UNL     1       3.965   4.975  18.918  0.00  0.00    +0.000 NA
ATOM      4  H   UNL     1       5.229   7.552  17.434  0.00  0.00    +0.000 HD
ENDROOT
BRANCH   3   5
ATOM      5  C   UNL     1       2.864   4.263  19.403  0.00  0.00    +0.000 A 
ATOM      6  C   UNL     1       2.652   4.254  20.788  0.00  0.00    +0.000 A 
ATOM      7  C   UNL     1       1.667   3.440  21.361  0.00  0.00    +0.000 A 
ATOM      8  C   UNL     1       0.855   2.651  20.549  0.00  0.00    +0.000 A 
ATOM      9  C   UNL     1       1.049   2.675  19.174  0.00  0.00    +0.000 A 
ATOM     10  C   UNL     1       2.066   3.435  18.609  0.00  0.00    +0.000 A 
BRANCH   9  11
ATOM     11  O   UNL     1       0.268   1.948  18.325  0.00  0.00    +0.000 OA
ATOM     12  H   UNL     1      -0.006   1.133  18.776  0.00  0.00    +0.000 HD
ENDBRANCH   9  11
ENDBRANCH   3   5
BRANCH   2  13
ATOM     13  C   UNL     1       2.961   7.280  18.698  0.00  0.00    +0.000 A 
ATOM     14  C   UNL     1       2.271   7.462  19.912  0.00  0.00    +0.000 A 
ATOM     15  C   UNL     1       1.291   8.457  20.028  0.00  0.00    +0.000 A 
ATOM     16  C   UNL     1       1.024   9.307  18.959  0.00  0.00    +0.000 A 
ATOM     17  C   UNL     1       1.703   9.139  17.755  0.00  0.00    +0.000 A 
ATOM     18  C   UNL     1       2.629   8.103  17.612  0.00  0.00    +0.000 A 
ENDBRANCH   2  13
BRANCH   1  19
ATOM     19  S   UNL     1       6.571   5.773  17.634  0.00  0.00    +0.000 S 
ATOM     20  O   UNL     1       6.659   4.726  18.636  0.00  0.00    +0.000 OA
ATOM     21  O   UNL     1       7.622   6.765  17.515  0.00  0.00    +0.000 OA
BRANCH  19  26
ATOM     22  C   UNL     1       5.947   3.256  12.147  0.00  0.00    +0.000 C 
ATOM     23  C   UNL     1       6.099   3.881  13.502  0.00  0.00    +0.000 A 
ATOM     24  C   UNL     1       7.196   4.702  13.792  0.00  0.00    +0.000 A 
ATOM     25  C   UNL     1       7.336   5.277  15.054  0.00  0.00    +0.000 A 
ATOM     26  C   UNL     1       6.366   5.042  16.032  0.00  0.00    +0.000 A 
ATOM     27  C   UNL     1       5.270   4.216  15.764  0.00  0.00    +0.000 A 
ATOM     28  C   UNL     1       5.140   3.639  14.500  0.00  0.00    +0.000 A 
ENDBRANCH  19  26
ENDBRANCH   1  19
TORSDOF 5
ENDMDL
MODEL 4
REMARK VINA RESULT:      -8.7      1.426      3.927
REMARK  Name = 
REMARK  6 active torsions:
REMARK  status: ('A' for Active; 'I' for Inactive)
REMARK    1  A    between atoms: C_1  and  C_2
REMARK    2  A    between atoms: C_5  and  S_6
REMARK    3  A    between atoms: S_6  and  N_9
REMARK    4  A    between atoms: C_10  and  C_19
REMARK    5  A    between atoms: N_11  and  C_12
REMARK    6  A    between atoms: C_16  and  O_17
REMARK                            x       y       z     vdW  Elec       q    Type
REMARK                         _______ _______ _______ _____ _____    ______ ____
ROOT
ATOM      1  N   UNL     1       5.188   4.581  18.750  0.00  0.00    +0.000 N 
ATOM      2  C   UNL     1       3.945   5.229  18.901  0.00  0.00    +0.000 C 
ATOM      3  N   UNL     1       3.867   6.453  18.493  0.00  0.00    +0.000 NA
ATOM      4  H   UNL     1       5.385   3.684  19.179  0.00  0.00    +0.000 HD
ENDROOT
BRANCH   3   5
ATOM      5  C   UNL     1       2.826   7.361  18.708  0.00  0.00    +0.000 A 
ATOM      6  C   UNL     1       2.492   8.231  17.662  0.00  0.00    +0.000 A 
ATOM      7  C   UNL     1       1.571   9.268  17.852  0.00  0.00    +0.000 A 
ATOM      8  C   UNL     1       0.942   9.424  19.085  0.00  0.00    +0.000 A 
ATOM      9  C   UNL     1       1.255   8.550  20.118  0.00  0.00    +0.000 A 
ATOM     10  C   UNL     1       2.214   7.559  19.949  0.00  0.00    +0.000 A 
BRANCH   9  11
ATOM     11  O   UNL     1       0.652   8.634  21.337  0.00  0.00    +0.000 OA
ATOM     12  H   UNL     1       0.201   7.794  21.519  0.00  0.00    +0.000 HD
ENDBRANCH   9  11
ENDBRANCH   3   5
BRANCH   2  13
ATOM     13  C   UNL     1       2.897   4.381  19.558  0.00  0.00    +0.000 A 
ATOM     14  C   UNL     1       1.847   3.812  18.811  0.00  0.00    +0.000 A 
ATOM     15  C   UNL     1       0.872   3.030  19.441  0.00  0.00    +0.000 A 
ATOM     16  C   UNL     1       0.957   2.766  20.805  0.00  0.00    +0.000 A 
ATOM     17  C   UNL     1       1.993   3.319  21.553  0.00  0.00    +0.000 A 
ATOM     18  C   UNL     1       2.927   4.158  20.942  0.00  0.00    +0.000 A 
ENDBRANCH   2  13
BRANCH   1  19
ATOM     19  S   UNL     1       6.548   5.176  17.986  0.00  0.00    +0.000 S 
ATOM     20  O   UNL     1       7.721   4.533  18.550  0.00  0.00    +0.000 OA
ATOM     21  O   UNL     1       6.407   6.619  18.032  0.00  0.00    +0.000 OA
BRANCH  19  26
ATOM     22  C   UNL     1       6.014   3.513  12.173  0.00  0.00    +0.000 C 
ATOM     23  C   UNL     1       6.144   3.927  13.610  0.00  0.00    +0.000 A 
ATOM     24  C   UNL     1       7.231   4.700  14.035  0.00  0.00    +0.000 A 
ATOM     25  C   UNL     1       7.351   5.078  15.372  0.00  0.00    +0.000 A 
ATOM     26  C   UNL     1       6.370   4.694  16.289  0.00  0.00    +0.000 A 
ATOM     27  C   UNL     1       5.282   3.913  15.884  0.00  0.00    +0.000 A 
ATOM     28  C   UNL     1       5.173   3.532  14.546  0.00  0.00    +0.000 A 
ENDBRANCH  19  26
ENDBRANCH   1  19
TORSDOF 5
ENDMDL
MODEL 5
REMARK VINA RESULT:      -8.7      1.406      3.725
REMARK  Name = 
REMARK  6 active torsions:
REMARK  status: ('A' for Active; 'I' for Inactive)
REMARK    1  A    between atoms: C_1  and  C_2
REMARK    2  A    between atoms: C_5  and  S_6
REMARK    3  A    between atoms: S_6  and  N_9
REMARK    4  A    between atoms: C_10  and  C_19
REMARK    5  A    between atoms: N_11  and  C_12
REMARK    6  A    between atoms: C_16  and  O_17
REMARK                            x       y       z     vdW  Elec       q    Type
REMARK                         _______ _______ _______ _____ _____    ______ ____
ROOT
ATOM      1  N   UNL     1       5.071   4.588  18.588  0.00  0.00    +0.000 N 
ATOM      2  C   UNL     1       3.837   5.251  18.747  0.00  0.00    +0.000 C 
ATOM      3  N   UNL     1       3.799   6.505  18.433  0.00  0.00    +0.000 NA
ATOM      4  H   UNL     1       5.235   3.657  18.953  0.00  0.00    +0.000 HD
ENDROOT
BRANCH   3   5
ATOM      5  C   UNL     1       2.769   7.417  18.682  0.00  0.00    +0.000 A 
ATOM      6  C   UNL     1       2.443   8.327  17.668  0.00  0.00    +0.000 A 
ATOM      7  C   UNL     1       1.536   9.367  17.897  0.00  0.00    +0.000 A 
ATOM      8  C   UNL     1       0.911   9.488  19.136  0.00  0.00    +0.000 A 
ATOM      9  C   UNL     1       1.217   8.575  20.137  0.00  0.00    +0.000 A 
ATOM     10  C   UNL     1       2.163   7.579  19.931  0.00  0.00    +0.000 A 
BRANCH   9  11
ATOM     11  O   UNL     1       0.617   8.624  21.361  0.00  0.00    +0.000 OA
ATOM     12  H   UNL     1      -0.190   8.087  21.333  0.00  0.00    +0.000 HD
ENDBRANCH   9  11
ENDBRANCH   3   5
BRANCH   2  13
ATOM     13  C   UNL     1       2.750   4.380  19.300  0.00  0.00    +0.000 A 
ATOM     14  C   UNL     1       2.600   4.197  20.688  0.00  0.00    +0.000 A 
ATOM     15  C   UNL     1       1.584   3.372  21.189  0.00  0.00    +0.000 A 
ATOM     16  C   UNL     1       0.682   2.765  20.321  0.00  0.00    +0.000 A 
ATOM     17  C   UNL     1       0.817   2.943  18.946  0.00  0.00    +0.000 A 
ATOM     18  C   UNL     1       1.872   3.705  18.440  0.00  0.00    +0.000 A 
ENDBRANCH   2  13
BRANCH   1  19
ATOM     19  S   UNL     1       6.469   5.209  17.919  0.00  0.00    +0.000 S 
ATOM     20  O   UNL     1       7.613   4.591  18.565  0.00  0.00    +0.000 OA
ATOM     21  O   UNL     1       6.297   6.649  17.950  0.00  0.00    +0.000 OA
BRANCH  19  26
ATOM     22  C   UNL     1       6.220   3.546  12.086  0.00  0.00    +0.000 C 
ATOM     23  C   UNL     1       6.284   3.955  13.529  0.00  0.00    +0.000 A 
ATOM     24  C   UNL     1       5.300   3.538  14.434  0.00  0.00    +0.000 A 
ATOM     25  C   UNL     1       5.360   3.924  15.773  0.00  0.00    +0.000 A 
ATOM     26  C   UNL     1       6.419   4.720  16.215  0.00  0.00    +0.000 A 
ATOM     27  C   UNL     1       7.405   5.155  15.323  0.00  0.00    +0.000 A 
ATOM     28  C   UNL     1       7.334   4.770  13.983  0.00  0.00    +0.000 A 
ENDBRANCH  19  26
ENDBRANCH   1  19
TORSDOF 5
ENDMDL
MODEL 6
REMARK VINA RESULT:      -8.7      0.905      1.592
REMARK  Name = 
REMARK  6 active torsions:
REMARK  status: ('A' for Active; 'I' for Inactive)
REMARK    1  A    between atoms: C_1  and  C_2
REMARK    2  A    between atoms: C_5  and  S_6
REMARK    3  A    between atoms: S_6  and  N_9
REMARK    4  A    between atoms: C_10  and  C_19
REMARK    5  A    between atoms: N_11  and  C_12
REMARK    6  A    between atoms: C_16  and  O_17
REMARK                            x       y       z     vdW  Elec       q    Type
REMARK                         _______ _______ _______ _____ _____    ______ ____
ROOT
ATOM      1  N   UNL     1       5.207   6.595  17.932  0.00  0.00    +0.000 N 
ATOM      2  C   UNL     1       4.030   6.168  18.580  0.00  0.00    +0.000 C 
ATOM      3  N   UNL     1       3.977   4.929  18.945  0.00  0.00    +0.000 NA
ATOM      4  H   UNL     1       5.274   7.498  17.475  0.00  0.00    +0.000 HD
ENDROOT
BRANCH   3   5
ATOM      5  C   UNL     1       2.866   4.223  19.417  0.00  0.00    +0.000 A 
ATOM      6  C   UNL     1       2.643   4.207  20.800  0.00  0.00    +0.000 A 
ATOM      7  C   UNL     1       1.647   3.398  21.360  0.00  0.00    +0.000 A 
ATOM      8  C   UNL     1       0.834   2.622  20.537  0.00  0.00    +0.000 A 
ATOM      9  C   UNL     1       1.040   2.652  19.164  0.00  0.00    +0.000 A 
ATOM     10  C   UNL     1       2.067   3.407  18.612  0.00  0.00    +0.000 A 
BRANCH   9  11
ATOM     11  O   UNL     1       0.258   1.938  18.304  0.00  0.00    +0.000 OA
ATOM     12  H   UNL     1       0.167   2.439  17.478  0.00  0.00    +0.000 HD
ENDBRANCH   9  11
ENDBRANCH   3   5
BRANCH   2  13
ATOM     13  C   UNL     1       2.989   7.239  18.712  0.00  0.00    +0.000 A 
ATOM     14  C   UNL     1       2.663   8.075  17.627  0.00  0.00    +0.000 A 
ATOM     15  C   UNL     1       1.695   9.077  17.770  0.00  0.00    +0.000 A 
ATOM     16  C   UNL     1       1.010   9.224  18.972  0.00  0.00    +0.000 A 
ATOM     17  C   UNL     1       1.321   8.401  20.051  0.00  0.00    +0.000 A 
ATOM     18  C   UNL     1       2.336   7.448  19.935  0.00  0.00    +0.000 A 
ENDBRANCH   2  13
BRANCH   1  19
ATOM     19  S   UNL     1       6.603   5.711  17.692  0.00  0.00    +0.000 S 
ATOM     20  O   UNL     1       6.664   4.652  18.684  0.00  0.00    +0.000 OA
ATOM     21  O   UNL     1       7.664   6.696  17.603  0.00  0.00    +0.000 OA
BRANCH  19  26
ATOM     22  C   UNL     1       5.910   3.284  12.172  0.00  0.00    +0.000 C 
ATOM     23  C   UNL     1       6.084   3.881  13.537  0.00  0.00    +0.000 A 
ATOM     24  C   UNL     1       5.158   3.619  14.556  0.00  0.00    +0.000 A 
ATOM     25  C   UNL     1       5.320   4.180  15.821  0.00  0.00    +0.000 A 
ATOM     26  C   UNL     1       6.423   4.998  16.078  0.00  0.00    +0.000 A 
ATOM     27  C   UNL     1       7.352   5.280  15.071  0.00  0.00    +0.000 A 
ATOM     28  C   UNL     1       7.179   4.720  13.804  0.00  0.00    +0.000 A 
ENDBRANCH  19  26
ENDBRANCH   1  19
TORSDOF 5
ENDMDL
MODEL 7
REMARK VINA RESULT:      -8.5      2.546      4.913
REMARK  Name = 
REMARK  6 active torsions:
REMARK  status: ('A' for Active; 'I' for Inactive)
REMARK    1  A    between atoms: C_1  and  C_2
REMARK    2  A    between atoms: C_5  and  S_6
REMARK    3  A    between atoms: S_6  and  N_9
REMARK    4  A    between atoms: C_10  and  C_19
REMARK    5  A    between atoms: N_11  and  C_12
REMARK    6  A    between atoms: C_16  and  O_17
REMARK                            x       y       z     vdW  Elec       q    Type
REMARK                         _______ _______ _______ _____ _____    ______ ____
ROOT
ATOM      1  N   UNL     1       4.700   4.262  17.427  0.00  0.00    +0.000 N 
ATOM      2  C   UNL     1       3.635   4.963  18.029  0.00  0.00    +0.000 C 
ATOM      3  N   UNL     1       3.516   6.216  17.733  0.00  0.00    +0.000 NA
ATOM      4  H   UNL     1       4.963   3.327  17.718  0.00  0.00    +0.000 HD
ENDROOT
BRANCH   3   5
ATOM      5  C   UNL     1       2.682   7.162  18.337  0.00  0.00    +0.000 A 
ATOM      6  C   UNL     1       2.229   8.229  17.552  0.00  0.00    +0.000 A 
ATOM      7  C   UNL     1       1.522   9.295  18.121  0.00  0.00    +0.000 A 
ATOM      8  C   UNL     1       1.225   9.286  19.482  0.00  0.00    +0.000 A 
ATOM      9  C   UNL     1       1.655   8.218  20.260  0.00  0.00    +0.000 A 
ATOM     10  C   UNL     1       2.409   7.191  19.707  0.00  0.00    +0.000 A 
BRANCH   9  11
ATOM     11  O   UNL     1       1.370   8.139  21.591  0.00  0.00    +0.000 OA
ATOM     12  H   UNL     1       2.013   8.678  22.079  0.00  0.00    +0.000 HD
ENDBRANCH   9  11
ENDBRANCH   3   5
BRANCH   2  13
ATOM     13  C   UNL     1       2.813   4.129  18.964  0.00  0.00    +0.000 A 
ATOM     14  C   UNL     1       3.300   3.765  20.234  0.00  0.00    +0.000 A 
ATOM     15  C   UNL     1       2.522   2.978  21.093  0.00  0.00    +0.000 A 
ATOM     16  C   UNL     1       1.240   2.588  20.718  0.00  0.00    +0.000 A 
ATOM     17  C   UNL     1       0.746   2.945  19.466  0.00  0.00    +0.000 A 
ATOM     18  C   UNL     1       1.545   3.669  18.579  0.00  0.00    +0.000 A 
ENDBRANCH   2  13
BRANCH   1  19
ATOM     19  S   UNL     1       5.759   4.835  16.271  0.00  0.00    +0.000 S 
ATOM     20  O   UNL     1       4.996   5.448  15.199  0.00  0.00    +0.000 OA
ATOM     21  O   UNL     1       6.655   3.728  15.996  0.00  0.00    +0.000 OA
BRANCH  19  26
ATOM     22  C   UNL     1       8.968   9.141  19.101  0.00  0.00    +0.000 C 
ATOM     23  C   UNL     1       8.178   8.075  18.400  0.00  0.00    +0.000 A 
ATOM     24  C   UNL     1       7.373   8.391  17.298  0.00  0.00    +0.000 A 
ATOM     25  C   UNL     1       6.636   7.399  16.653  0.00  0.00    +0.000 A 
ATOM     26  C   UNL     1       6.714   6.079  17.100  0.00  0.00    +0.000 A 
ATOM     27  C   UNL     1       7.505   5.746  18.205  0.00  0.00    +0.000 A 
ATOM     28  C   UNL     1       8.235   6.746  18.851  0.00  0.00    +0.000 A 
ENDBRANCH  19  26
ENDBRANCH   1  19
TORSDOF 5
ENDMDL
MODEL 8
REMARK VINA RESULT:      -8.5      1.543      3.890
REMARK  Name = 
REMARK  6 active torsions:
REMARK  status: ('A' for Active; 'I' for Inactive)
REMARK    1  A    between atoms: C_1  and  C_2
REMARK    2  A    between atoms: C_5  and  S_6
REMARK    3  A    between atoms: S_6  and  N_9
REMARK    4  A    between atoms: C_10  and  C_19
REMARK    5  A    between atoms: N_11  and  C_12
REMARK    6  A    between atoms: C_16  and  O_17
REMARK                            x       y       z     vdW  Elec       q    Type
REMARK                         _______ _______ _______ _____ _____    ______ ____
ROOT
ATOM      1  N   UNL     1       4.824   5.101  18.201  0.00  0.00    +0.000 N 
ATOM      2  C   UNL     1       3.578   5.680  18.515  0.00  0.00    +0.000 C 
ATOM      3  N   UNL     1       3.454   6.952  18.315  0.00  0.00    +0.000 NA
ATOM      4  H   UNL     1       5.062   4.153  18.469  0.00  0.00    +0.000 HD
ENDROOT
BRANCH   3   5
ATOM      5  C   UNL     1       2.407   7.783  18.725  0.00  0.00    +0.000 A 
ATOM      6  C   UNL     1       1.847   8.644  17.773  0.00  0.00    +0.000 A 
ATOM      7  C   UNL     1       0.906   9.612  18.142  0.00  0.00    +0.000 A 
ATOM      8  C   UNL     1       0.484   9.705  19.466  0.00  0.00    +0.000 A 
ATOM      9  C   UNL     1       1.022   8.839  20.408  0.00  0.00    +0.000 A 
ATOM     10  C   UNL     1       2.001   7.919  20.055  0.00  0.00    +0.000 A 
BRANCH   9  11
ATOM     11  O   UNL     1       0.627   8.862  21.713  0.00  0.00    +0.000 OA
ATOM     12  H   UNL     1       1.109   9.569  22.171  0.00  0.00    +0.000 HD
ENDBRANCH   9  11
ENDBRANCH   3   5
BRANCH   2  13
ATOM     13  C   UNL     1       2.584   4.708  19.076  0.00  0.00    +0.000 A 
ATOM     14  C   UNL     1       2.453   4.522  20.465  0.00  0.00    +0.000 A 
ATOM     15  C   UNL     1       1.525   3.603  20.973  0.00  0.00    +0.000 A 
ATOM     16  C   UNL     1       0.690   2.901  20.110  0.00  0.00    +0.000 A 
ATOM     17  C   UNL     1       0.807   3.080  18.734  0.00  0.00    +0.000 A 
ATOM     18  C   UNL     1       1.780   3.941  18.221  0.00  0.00    +0.000 A 
ENDBRANCH   2  13
BRANCH   1  19
ATOM     19  S   UNL     1       6.130   5.851  17.478  0.00  0.00    +0.000 S 
ATOM     20  O   UNL     1       7.331   5.523  18.224  0.00  0.00    +0.000 OA
ATOM     21  O   UNL     1       5.726   7.233  17.306  0.00  0.00    +0.000 OA
BRANCH  19  26
ATOM     22  C   UNL     1       6.547   3.393  11.943  0.00  0.00    +0.000 C 
ATOM     23  C   UNL     1       6.442   4.003  13.310  0.00  0.00    +0.000 A 
ATOM     24  C   UNL     1       7.475   4.802  13.818  0.00  0.00    +0.000 A 
ATOM     25  C   UNL     1       7.376   5.363  15.090  0.00  0.00    +0.000 A 
ATOM     26  C   UNL     1       6.230   5.137  15.857  0.00  0.00    +0.000 A 
ATOM     27  C   UNL     1       5.193   4.334  15.371  0.00  0.00    +0.000 A 
ATOM     28  C   UNL     1       5.303   3.770  14.099  0.00  0.00    +0.000 A 
ENDBRANCH  19  26
ENDBRANCH   1  19
TORSDOF 5
ENDMDL
MODEL 9
REMARK VINA RESULT:      -8.4      1.568      3.824
REMARK  Name = 
REMARK  6 active torsions:
REMARK  status: ('A' for Active; 'I' for Inactive)
REMARK    1  A    between atoms: C_1  and  C_2
REMARK    2  A    between atoms: C_5  and  S_6
REMARK    3  A    between atoms: S_6  and  N_9
REMARK    4  A    between atoms: C_10  and  C_19
REMARK    5  A    between atoms: N_11  and  C_12
REMARK    6  A    between atoms: C_16  and  O_17
REMARK                            x       y       z     vdW  Elec       q    Type
REMARK                         _______ _______ _______ _____ _____    ______ ____
ROOT
ATOM      1  N   UNL     1       4.947   5.084  16.819  0.00  0.00    +0.000 N 
ATOM      2  C   UNL     1       3.822   5.547  17.531  0.00  0.00    +0.000 C 
ATOM      3  N   UNL     1       3.594   6.819  17.508  0.00  0.00    +0.000 NA
ATOM      4  H   UNL     1       5.291   4.135  16.909  0.00  0.00    +0.000 HD
ENDROOT
BRANCH   3   5
ATOM      5  C   UNL     1       2.676   7.537  18.281  0.00  0.00    +0.000 A 
ATOM      6  C   UNL     1       2.039   8.634  17.686  0.00  0.00    +0.000 A 
ATOM      7  C   UNL     1       1.230   9.493  18.438  0.00  0.00    +0.000 A 
ATOM      8  C   UNL     1       1.016   9.242  19.792  0.00  0.00    +0.000 A 
ATOM      9  C   UNL     1       1.629   8.143  20.379  0.00  0.00    +0.000 A 
ATOM     10  C   UNL     1       2.482   7.326  19.648  0.00  0.00    +0.000 A 
BRANCH   9  11
ATOM     11  O   UNL     1       1.436   7.829  21.692  0.00  0.00    +0.000 OA
ATOM     12  H   UNL     1       1.396   6.863  21.778  0.00  0.00    +0.000 HD
ENDBRANCH   9  11
ENDBRANCH   3   5
BRANCH   2  13
ATOM     13  C   UNL     1       3.073   4.463  18.248  0.00  0.00    +0.000 A 
ATOM     14  C   UNL     1       3.625   3.818  19.371  0.00  0.00    +0.000 A 
ATOM     15  C   UNL     1       2.915   2.801  20.024  0.00  0.00    +0.000 A 
ATOM     16  C   UNL     1       1.637   2.453  19.599  0.00  0.00    +0.000 A 
ATOM     17  C   UNL     1       1.079   3.088  18.492  0.00  0.00    +0.000 A 
ATOM     18  C   UNL     1       1.812   4.051  17.794  0.00  0.00    +0.000 A 
ENDBRANCH   2  13
BRANCH   1  19
ATOM     19  S   UNL     1       5.956   5.982  15.837  0.00  0.00    +0.000 S 
ATOM     20  O   UNL     1       7.203   6.221  16.540  0.00  0.00    +0.000 OA
ATOM     21  O   UNL     1       5.146   7.094  15.377  0.00  0.00    +0.000 OA
BRANCH  19  26
ATOM     22  C   UNL     1       6.931   2.452  10.996  0.00  0.00    +0.000 C 
ATOM     23  C   UNL     1       6.692   3.322  12.194  0.00  0.00    +0.000 A 
ATOM     24  C   UNL     1       5.540   3.164  12.975  0.00  0.00    +0.000 A 
ATOM     25  C   UNL     1       5.319   3.978  14.085  0.00  0.00    +0.000 A 
ATOM     26  C   UNL     1       6.263   4.949  14.428  0.00  0.00    +0.000 A 
ATOM     27  C   UNL     1       7.415   5.129  13.655  0.00  0.00    +0.000 A 
ATOM     28  C   UNL     1       7.625   4.314  12.540  0.00  0.00    +0.000 A 
ENDBRANCH  19  26
ENDBRANCH   1  19
TORSDOF 5
ENDMDL
