MODEL 1
REMARK VINA RESULT:      -6.5      0.000      0.000
REMARK  Name = 
REMARK  6 active torsions:
REMARK  status: ('A' for Active; 'I' for Inactive)
REMARK    1  A    between atoms: C_1  and  O_2
REMARK    2  A    between atoms: O_2  and  C_3
REMARK    3  A    between atoms: C_6  and  C_7
REMARK    4  A    between atoms: C_7  and  N_8
REMARK    5  A    between atoms: C_15  and  O_16
REMARK    6  A    between atoms: O_16  and  C_17
REMARK                            x       y       z     vdW  Elec       q    Type
REMARK                         _______ _______ _______ _____ _____    ______ ____
ROOT
ATOM      1  C   UNL     1       6.809   6.028  17.152  0.00  0.00    +0.000 A 
ATOM      2  C   UNL     1       6.498   5.737  18.493  0.00  0.00    +0.000 A 
ATOM      3  C   UNL     1       5.556   4.755  18.829  0.00  0.00    +0.000 A 
ATOM      4  C   UNL     1       4.884   4.051  17.829  0.00  0.00    +0.000 A 
ATOM      5  C   UNL     1       5.142   4.397  16.500  0.00  0.00    +0.000 A 
ATOM      6  C   UNL     1       6.087   5.372  16.143  0.00  0.00    +0.000 A 
ENDROOT
BRANCH   1   8
ATOM      7  C   UNL     1       7.818   8.128  17.610  0.00  0.00    +0.000 C 
ATOM      8  O   UNL     1       7.757   6.954  16.805  0.00  0.00    +0.000 OA
ENDBRANCH   1   8
BRANCH   6   9
ATOM      9  O   UNL     1       6.121   5.544  14.787  0.00  0.00    +0.000 OA
ATOM     10  C   UNL     1       6.618   4.513  13.955  0.00  0.00    +0.000 C 
ENDBRANCH   6   9
BRANCH   4  11
ATOM     11  C   UNL     1       3.846   3.003  18.151  0.00  0.00    +0.000 C 
BRANCH  11  12
ATOM     12  N   UNL     1       2.439   3.399  18.175  0.00  0.00    +0.000 NA
ATOM     13  C   UNL     1       2.159   4.795  18.517  0.00  0.00    +0.000 C 
ATOM     14  C   UNL     1       1.840   5.044  20.000  0.00  0.00    +0.000 C 
ATOM     15  O   UNL     1       0.799   4.178  20.467  0.00  0.00    +0.000 OA
ATOM     16  C   UNL     1       1.184   2.807  20.301  0.00  0.00    +0.000 C 
ATOM     17  C   UNL     1       1.497   2.484  18.830  0.00  0.00    +0.000 C 
ENDBRANCH  11  12
ENDBRANCH   4  11
TORSDOF 4
ENDMDL
MODEL 2
REMARK VINA RESULT:      -6.5      1.165      2.705
REMARK  Name = 
REMARK  6 active torsions:
REMARK  status: ('A' for Active; 'I' for Inactive)
REMARK    1  A    between atoms: C_1  and  O_2
REMARK    2  A    between atoms: O_2  and  C_3
REMARK    3  A    between atoms: C_6  and  C_7
REMARK    4  A    between atoms: C_7  and  N_8
REMARK    5  A    between atoms: C_15  and  O_16
REMARK    6  A    between atoms: O_16  and  C_17
REMARK                            x       y       z     vdW  Elec       q    Type
REMARK                         _______ _______ _______ _____ _____    ______ ____
ROOT
ATOM      1  C   UNL     1       6.258   5.168  15.398  0.00  0.00    +0.000 A 
ATOM      2  C   UNL     1       5.211   4.233  15.489  0.00  0.00    +0.000 A 
ATOM      3  C   UNL     1       4.490   4.055  16.677  0.00  0.00    +0.000 A 
ATOM      4  C   UNL     1       4.814   4.795  17.816  0.00  0.00    +0.000 A 
ATOM      5  C   UNL     1       5.903   5.666  17.740  0.00  0.00    +0.000 A 
ATOM      6  C   UNL     1       6.633   5.864  16.557  0.00  0.00    +0.000 A 
ENDROOT
BRANCH   1   8
ATOM      7  C   UNL     1       6.920   4.330  13.277  0.00  0.00    +0.000 C 
ATOM      8  O   UNL     1       6.946   5.386  14.233  0.00  0.00    +0.000 OA
ENDBRANCH   1   8
BRANCH   6   9
ATOM      9  O   UNL     1       7.665   6.736  16.762  0.00  0.00    +0.000 OA
ATOM     10  C   UNL     1       7.828   7.356  18.024  0.00  0.00    +0.000 C 
ENDBRANCH   6   9
BRANCH   4  11
ATOM     11  C   UNL     1       4.076   4.614  19.121  0.00  0.00    +0.000 C 
BRANCH  11  12
ATOM     12  N   UNL     1       3.064   3.563  19.211  0.00  0.00    +0.000 NA
ATOM     13  C   UNL     1       1.666   3.994  19.129  0.00  0.00    +0.000 C 
ATOM     14  C   UNL     1       0.980   4.217  20.485  0.00  0.00    +0.000 C 
ATOM     15  O   UNL     1       1.121   3.077  21.341  0.00  0.00    +0.000 OA
ATOM     16  C   UNL     1       2.508   2.795  21.566  0.00  0.00    +0.000 C 
ATOM     17  C   UNL     1       3.253   2.539  20.245  0.00  0.00    +0.000 C 
ENDBRANCH  11  12
ENDBRANCH   4  11
TORSDOF 4
ENDMDL
MODEL 3
REMARK VINA RESULT:      -6.4      1.313      1.610
REMARK  Name = 
REMARK  6 active torsions:
REMARK  status: ('A' for Active; 'I' for Inactive)
REMARK    1  A    between atoms: C_1  and  O_2
REMARK    2  A    between atoms: O_2  and  C_3
REMARK    3  A    between atoms: C_6  and  C_7
REMARK    4  A    between atoms: C_7  and  N_8
REMARK    5  A    between atoms: C_15  and  O_16
REMARK    6  A    between atoms: O_16  and  C_17
REMARK                            x       y       z     vdW  Elec       q    Type
REMARK                         _______ _______ _______ _____ _____    ______ ____
ROOT
ATOM      1  C   UNL     1       6.216   5.542  17.079  0.00  0.00    +0.000 A 
ATOM      2  C   UNL     1       5.237   6.051  17.952  0.00  0.00    +0.000 A 
ATOM      3  C   UNL     1       3.979   5.446  18.073  0.00  0.00    +0.000 A 
ATOM      4  C   UNL     1       3.659   4.325  17.306  0.00  0.00    +0.000 A 
ATOM      5  C   UNL     1       4.608   3.869  16.387  0.00  0.00    +0.000 A 
ATOM      6  C   UNL     1       5.876   4.457  16.256  0.00  0.00    +0.000 A 
ENDROOT
BRANCH   1   8
ATOM      7  C   UNL     1       7.606   7.431  17.452  0.00  0.00    +0.000 C 
ATOM      8  O   UNL     1       7.466   6.094  16.978  0.00  0.00    +0.000 OA
ENDBRANCH   1   8
BRANCH   6   9
ATOM      9  O   UNL     1       6.594   3.848  15.265  0.00  0.00    +0.000 OA
ATOM     10  C   UNL     1       6.344   4.169  13.910  0.00  0.00    +0.000 C 
ENDBRANCH   6   9
BRANCH   4  11
ATOM     11  C   UNL     1       2.306   3.660  17.392  0.00  0.00    +0.000 C 
BRANCH  11  12
ATOM     12  N   UNL     1       2.145   2.518  18.291  0.00  0.00    +0.000 NA
ATOM     13  C   UNL     1       0.907   2.473  19.073  0.00  0.00    +0.000 C 
ATOM     14  C   UNL     1       1.016   3.062  20.488  0.00  0.00    +0.000 C 
ATOM     15  O   UNL     1       2.109   2.487  21.215  0.00  0.00    +0.000 OA
ATOM     16  C   UNL     1       3.342   2.719  20.521  0.00  0.00    +0.000 C 
ATOM     17  C   UNL     1       3.308   2.134  19.099  0.00  0.00    +0.000 C 
ENDBRANCH  11  12
ENDBRANCH   4  11
TORSDOF 4
ENDMDL
MODEL 4
REMARK VINA RESULT:      -6.4      1.016      2.525
REMARK  Name = 
REMARK  6 active torsions:
REMARK  status: ('A' for Active; 'I' for Inactive)
REMARK    1  A    between atoms: C_1  and  O_2
REMARK    2  A    between atoms: O_2  and  C_3
REMARK    3  A    between atoms: C_6  and  C_7
REMARK    4  A    between atoms: C_7  and  N_8
REMARK    5  A    between atoms: C_15  and  O_16
REMARK    6  A    between atoms: O_16  and  C_17
REMARK                            x       y       z     vdW  Elec       q    Type
REMARK                         _______ _______ _______ _____ _____    ______ ____
ROOT
ATOM      1  C   UNL     1       6.921   5.041  15.394  0.00  0.00    +0.000 A 
ATOM      2  C   UNL     1       5.951   4.081  15.052  0.00  0.00    +0.000 A 
ATOM      3  C   UNL     1       4.997   3.643  15.980  0.00  0.00    +0.000 A 
ATOM      4  C   UNL     1       5.002   4.140  17.284  0.00  0.00    +0.000 A 
ATOM      5  C   UNL     1       6.014   5.036  17.638  0.00  0.00    +0.000 A 
ATOM      6  C   UNL     1       6.974   5.492  16.722  0.00  0.00    +0.000 A 
ENDROOT
BRANCH   1   8
ATOM      7  C   UNL     1       7.652   5.106  13.135  0.00  0.00    +0.000 C 
ATOM      8  O   UNL     1       7.836   5.513  14.489  0.00  0.00    +0.000 OA
ENDBRANCH   1   8
BRANCH   6   9
ATOM      9  O   UNL     1       7.868   6.330  17.329  0.00  0.00    +0.000 OA
ATOM     10  C   UNL     1       7.552   7.699  17.498  0.00  0.00    +0.000 C 
ENDBRANCH   6   9
BRANCH   4  11
ATOM     11  C   UNL     1       4.006   3.675  18.319  0.00  0.00    +0.000 C 
BRANCH  11  12
ATOM     12  N   UNL     1       2.721   4.366  18.411  0.00  0.00    +0.000 NA
ATOM     13  C   UNL     1       2.608   5.400  19.442  0.00  0.00    +0.000 C 
ATOM     14  C   UNL     1       1.993   4.924  20.768  0.00  0.00    +0.000 C 
ATOM     15  O   UNL     1       0.740   4.262  20.559  0.00  0.00    +0.000 OA
ATOM     16  C   UNL     1       0.916   3.129  19.699  0.00  0.00    +0.000 C 
ATOM     17  C   UNL     1       1.510   3.540  18.341  0.00  0.00    +0.000 C 
ENDBRANCH  11  12
ENDBRANCH   4  11
TORSDOF 4
ENDMDL
MODEL 5
REMARK VINA RESULT:      -6.2      1.459      3.049
REMARK  Name = 
REMARK  6 active torsions:
REMARK  status: ('A' for Active; 'I' for Inactive)
REMARK    1  A    between atoms: C_1  and  O_2
REMARK    2  A    between atoms: O_2  and  C_3
REMARK    3  A    between atoms: C_6  and  C_7
REMARK    4  A    between atoms: C_7  and  N_8
REMARK    5  A    between atoms: C_15  and  O_16
REMARK    6  A    between atoms: O_16  and  C_17
REMARK                            x       y       z     vdW  Elec       q    Type
REMARK                         _______ _______ _______ _____ _____    ______ ____
ROOT
ATOM      1  C   UNL     1       6.956   5.103  14.885  0.00  0.00    +0.000 A 
ATOM      2  C   UNL     1       6.052   4.062  14.605  0.00  0.00    +0.000 A 
ATOM      3  C   UNL     1       5.018   3.735  15.492  0.00  0.00    +0.000 A 
ATOM      4  C   UNL     1       4.873   4.430  16.694  0.00  0.00    +0.000 A 
ATOM      5  C   UNL     1       5.819   5.411  16.999  0.00  0.00    +0.000 A 
ATOM      6  C   UNL     1       6.858   5.758  16.121  0.00  0.00    +0.000 A 
ENDROOT
BRANCH   1   8
ATOM      7  C   UNL     1       7.730   5.146  12.639  0.00  0.00    +0.000 C 
ATOM      8  O   UNL     1       7.948   5.465  14.011  0.00  0.00    +0.000 OA
ENDBRANCH   1   8
BRANCH   6   9
ATOM      9  O   UNL     1       7.661   6.717  16.673  0.00  0.00    +0.000 OA
ATOM     10  C   UNL     1       7.579   6.998  18.058  0.00  0.00    +0.000 C 
ENDBRANCH   6   9
BRANCH   4  11
ATOM     11  C   UNL     1       3.785   4.091  17.685  0.00  0.00    +0.000 C 
BRANCH  11  12
ATOM     12  N   UNL     1       4.074   4.225  19.111  0.00  0.00    +0.000 NA
ATOM     13  C   UNL     1       4.027   2.996  19.906  0.00  0.00    +0.000 C 
ATOM     14  C   UNL     1       2.687   2.734  20.611  0.00  0.00    +0.000 C 
ATOM     15  O   UNL     1       2.269   3.867  21.383  0.00  0.00    +0.000 OA
ATOM     16  C   UNL     1       2.131   5.017  20.540  0.00  0.00    +0.000 C 
ATOM     17  C   UNL     1       3.448   5.349  19.818  0.00  0.00    +0.000 C 
ENDBRANCH  11  12
ENDBRANCH   4  11
TORSDOF 4
ENDMDL
MODEL 6
REMARK VINA RESULT:      -6.2      1.331      2.977
REMARK  Name = 
REMARK  6 active torsions:
REMARK  status: ('A' for Active; 'I' for Inactive)
REMARK    1  A    between atoms: C_1  and  O_2
REMARK    2  A    between atoms: O_2  and  C_3
REMARK    3  A    between atoms: C_6  and  C_7
REMARK    4  A    between atoms: C_7  and  N_8
REMARK    5  A    between atoms: C_15  and  O_16
REMARK    6  A    between atoms: O_16  and  C_17
REMARK                            x       y       z     vdW  Elec       q    Type
REMARK                         _______ _______ _______ _____ _____    ______ ____
ROOT
ATOM      1  C   UNL     1       6.235   4.869  15.566  0.00  0.00    +0.000 A 
ATOM      2  C   UNL     1       5.093   4.063  15.727  0.00  0.00    +0.000 A 
ATOM      3  C   UNL     1       4.156   4.318  16.737  0.00  0.00    +0.000 A 
ATOM      4  C   UNL     1       4.348   5.376  17.628  0.00  0.00    +0.000 A 
ATOM      5  C   UNL     1       5.522   6.124  17.509  0.00  0.00    +0.000 A 
ATOM      6  C   UNL     1       6.469   5.890  16.500  0.00  0.00    +0.000 A 
ENDROOT
BRANCH   1   8
ATOM      7  C   UNL     1       6.634   4.070  13.365  0.00  0.00    +0.000 C 
ATOM      8  O   UNL     1       7.141   4.661  14.558  0.00  0.00    +0.000 OA
ENDBRANCH   1   8
BRANCH   6   9
ATOM      9  O   UNL     1       7.537   6.734  16.629  0.00  0.00    +0.000 OA
ATOM     10  C   UNL     1       7.691   7.506  17.805  0.00  0.00    +0.000 C 
ENDBRANCH   6   9
BRANCH   4  11
ATOM     11  C   UNL     1       3.373   5.667  18.743  0.00  0.00    +0.000 C 
BRANCH  11  12
ATOM     12  N   UNL     1       3.387   4.806  19.924  0.00  0.00    +0.000 NA
ATOM     13  C   UNL     1       3.798   3.416  19.715  0.00  0.00    +0.000 C 
ATOM     14  C   UNL     1       2.643   2.426  19.500  0.00  0.00    +0.000 C 
ATOM     15  O   UNL     1       1.664   2.525  20.542  0.00  0.00    +0.000 OA
ATOM     16  C   UNL     1       1.130   3.854  20.596  0.00  0.00    +0.000 C 
ATOM     17  C   UNL     1       2.237   4.897  20.832  0.00  0.00    +0.000 C 
ENDBRANCH  11  12
ENDBRANCH   4  11
TORSDOF 4
ENDMDL
MODEL 7
REMARK VINA RESULT:      -6.1      1.035      1.658
REMARK  Name = 
REMARK  6 active torsions:
REMARK  status: ('A' for Active; 'I' for Inactive)
REMARK    1  A    between atoms: C_1  and  O_2
REMARK    2  A    between atoms: O_2  and  C_3
REMARK    3  A    between atoms: C_6  and  C_7
REMARK    4  A    between atoms: C_7  and  N_8
REMARK    5  A    between atoms: C_15  and  O_16
REMARK    6  A    between atoms: O_16  and  C_17
REMARK                            x       y       z     vdW  Elec       q    Type
REMARK                         _______ _______ _______ _____ _____    ______ ____
ROOT
ATOM      1  C   UNL     1       7.080   6.400  17.363  0.00  0.00    +0.000 A 
ATOM      2  C   UNL     1       6.942   6.213  18.751  0.00  0.00    +0.000 A 
ATOM      3  C   UNL     1       6.156   5.178  19.274  0.00  0.00    +0.000 A 
ATOM      4  C   UNL     1       5.470   4.312  18.421  0.00  0.00    +0.000 A 
ATOM      5  C   UNL     1       5.552   4.550  17.046  0.00  0.00    +0.000 A 
ATOM      6  C   UNL     1       6.339   5.577  16.502  0.00  0.00    +0.000 A 
ENDROOT
BRANCH   1   8
ATOM      7  C   UNL     1       8.055   8.550  17.628  0.00  0.00    +0.000 C 
ATOM      8  O   UNL     1       7.878   7.380  16.833  0.00  0.00    +0.000 OA
ENDBRANCH   1   8
BRANCH   6   9
ATOM      9  O   UNL     1       6.216   5.616  15.141  0.00  0.00    +0.000 OA
ATOM     10  C   UNL     1       5.717   4.490  14.443  0.00  0.00    +0.000 C 
ENDBRANCH   6   9
BRANCH   4  11
ATOM     11  C   UNL     1       4.595   3.200  18.947  0.00  0.00    +0.000 C 
BRANCH  11  12
ATOM     12  N   UNL     1       3.280   3.542  19.485  0.00  0.00    +0.000 NA
ATOM     13  C   UNL     1       2.386   2.421  19.787  0.00  0.00    +0.000 C 
ATOM     14  C   UNL     1       1.394   2.067  18.669  0.00  0.00    +0.000 C 
ATOM     15  O   UNL     1       0.655   3.216  18.237  0.00  0.00    +0.000 OA
ATOM     16  C   UNL     1       1.549   4.229  17.758  0.00  0.00    +0.000 C 
ATOM     17  C   UNL     1       2.560   4.646  18.841  0.00  0.00    +0.000 C 
ENDBRANCH  11  12
ENDBRANCH   4  11
TORSDOF 4
ENDMDL
MODEL 8
REMARK VINA RESULT:      -6.1      1.760      3.079
REMARK  Name = 
REMARK  6 active torsions:
REMARK  status: ('A' for Active; 'I' for Inactive)
REMARK    1  A    between atoms: C_1  and  O_2
REMARK    2  A    between atoms: O_2  and  C_3
REMARK    3  A    between atoms: C_6  and  C_7
REMARK    4  A    between atoms: C_7  and  N_8
REMARK    5  A    between atoms: C_15  and  O_16
REMARK    6  A    between atoms: O_16  and  C_17
REMARK                            x       y       z     vdW  Elec       q    Type
REMARK                         _______ _______ _______ _____ _____    ______ ____
ROOT
ATOM      1  C   UNL     1       6.026   4.405  16.674  0.00  0.00    +0.000 A 
ATOM      2  C   UNL     1       4.646   4.341  16.408  0.00  0.00    +0.000 A 
ATOM      3  C   UNL     1       3.698   4.664  17.388  0.00  0.00    +0.000 A 
ATOM      4  C   UNL     1       4.106   5.040  18.668  0.00  0.00    +0.000 A 
ATOM      5  C   UNL     1       5.475   5.028  18.947  0.00  0.00    +0.000 A 
ATOM      6  C   UNL     1       6.441   4.715  17.978  0.00  0.00    +0.000 A 
ENDROOT
BRANCH   1   8
ATOM      7  C   UNL     1       6.883   4.891  14.512  0.00  0.00    +0.000 C 
ATOM      8  O   UNL     1       6.969   4.134  15.717  0.00  0.00    +0.000 OA
ENDBRANCH   1   8
BRANCH   6   9
ATOM      9  O   UNL     1       7.697   4.741  18.517  0.00  0.00    +0.000 OA
ATOM     10  C   UNL     1       8.024   5.701  19.504  0.00  0.00    +0.000 C 
ENDBRANCH   6   9
BRANCH   4  11
ATOM     11  C   UNL     1       3.114   5.372  19.757  0.00  0.00    +0.000 C 
BRANCH  11  12
ATOM     12  N   UNL     1       2.422   4.274  20.429  0.00  0.00    +0.000 NA
ATOM     13  C   UNL     1       3.178   3.030  20.596  0.00  0.00    +0.000 C 
ATOM     14  C   UNL     1       2.941   1.979  19.501  0.00  0.00    +0.000 C 
ATOM     15  O   UNL     1       1.544   1.715  19.319  0.00  0.00    +0.000 OA
ATOM     16  C   UNL     1       0.855   2.919  18.960  0.00  0.00    +0.000 C 
ATOM     17  C   UNL     1       1.035   4.011  20.029  0.00  0.00    +0.000 C 
ENDBRANCH  11  12
ENDBRANCH   4  11
TORSDOF 4
ENDMDL
MODEL 9
REMARK VINA RESULT:      -6.1      1.314      2.668
REMARK  Name = 
REMARK  6 active torsions:
REMARK  status: ('A' for Active; 'I' for Inactive)
REMARK    1  A    between atoms: C_1  and  O_2
REMARK    2  A    between atoms: O_2  and  C_3
REMARK    3  A    between atoms: C_6  and  C_7
REMARK    4  A    between atoms: C_7  and  N_8
REMARK    5  A    between atoms: C_15  and  O_16
REMARK    6  A    between atoms: O_16  and  C_17
REMARK                            x       y       z     vdW  Elec       q    Type
REMARK                         _______ _______ _______ _____ _____    ______ ____
ROOT
ATOM      1  C   UNL     1       6.791   4.993  15.546  0.00  0.00    +0.000 A 
ATOM      2  C   UNL     1       5.733   4.180  15.100  0.00  0.00    +0.000 A 
ATOM      3  C   UNL     1       4.755   3.703  15.983  0.00  0.00    +0.000 A 
ATOM      4  C   UNL     1       4.822   4.010  17.343  0.00  0.00    +0.000 A 
ATOM      5  C   UNL     1       5.915   4.756  17.791  0.00  0.00    +0.000 A 
ATOM      6  C   UNL     1       6.901   5.249  16.922  0.00  0.00    +0.000 A 
ENDROOT
BRANCH   1   8
ATOM      7  C   UNL     1       7.629   5.107  13.327  0.00  0.00    +0.000 C 
ATOM      8  O   UNL     1       7.732   5.505  14.692  0.00  0.00    +0.000 OA
ENDBRANCH   1   8
BRANCH   6   9
ATOM      9  O   UNL     1       7.874   5.912  17.616  0.00  0.00    +0.000 OA
ATOM     10  C   UNL     1       7.833   5.951  19.030  0.00  0.00    +0.000 C 
ENDBRANCH   6   9
BRANCH   4  11
ATOM     11  C   UNL     1       3.800   3.495  18.328  0.00  0.00    +0.000 C 
BRANCH  11  12
ATOM     12  N   UNL     1       2.520   4.192  18.434  0.00  0.00    +0.000 NA
ATOM     13  C   UNL     1       2.556   5.650  18.300  0.00  0.00    +0.000 C 
ATOM     14  C   UNL     1       2.630   6.419  19.629  0.00  0.00    +0.000 C 
ATOM     15  O   UNL     1       1.597   6.008  20.532  0.00  0.00    +0.000 OA
ATOM     16  C   UNL     1       1.705   4.605  20.804  0.00  0.00    +0.000 C 
ATOM     17  C   UNL     1       1.617   3.773  19.513  0.00  0.00    +0.000 C 
ENDBRANCH  11  12
ENDBRANCH   4  11
TORSDOF 4
ENDMDL
