MODEL 1
REMARK VINA RESULT:      -7.7      0.000      0.000
REMARK  Name = 
REMARK  7 active torsions:
REMARK  status: ('A' for Active; 'I' for Inactive)
REMARK    1  A    between atoms: C_1  and  C_2
REMARK    2  A    between atoms: C_2  and  C_3
REMARK    3  A    between atoms: C_2  and  C_4
REMARK    4  A    between atoms: C_2  and  C_15
REMARK    5  A    between atoms: N_6  and  C_7
REMARK    6  A    between atoms: C_11  and  O_12
REMARK    7  A    between atoms: C_13  and  O_14
REMARK                            x       y       z     vdW  Elec       q    Type
REMARK                         _______ _______ _______ _____ _____    ______ ____
ROOT
ATOM      1  C   UNL     1       5.343   4.872  18.101  0.00  0.00    +0.000 C 
ATOM      2  O   UNL     1       6.075   4.085  18.703  0.00  0.00    +0.000 OA
ATOM      3  N   UNL     1       3.969   4.861  18.276  0.00  0.00    +0.000 N 
ATOM      4  H   UNL     1       3.415   5.334  17.569  0.00  0.00    +0.000 HD
ENDROOT
BRANCH   3   5
ATOM      5  C   UNL     1       3.247   3.941  19.181  0.00  0.00    +0.000 C 
ATOM      6  C   UNL     1       2.064   3.270  18.461  0.00  0.00    +0.000 C 
ATOM      7  C   UNL     1       1.210   2.382  19.362  0.00  0.00    +0.000 C 
ATOM      8  C   UNL     1       0.816   3.068  20.669  0.00  0.00    +0.000 C 
ATOM      9  C   UNL     1       2.033   3.622  21.416  0.00  0.00    +0.000 C 
ATOM     10  C   UNL     1       2.816   4.604  20.521  0.00  0.00    +0.000 C 
BRANCH   9  11
ATOM     11  O   UNL     1       2.856   2.561  21.904  0.00  0.00    +0.000 OA
ATOM     12  H   UNL     1       3.762   2.667  21.576  0.00  0.00    +0.000 HD
ENDBRANCH   9  11
BRANCH  10  13
ATOM     13  O   UNL     1       1.986   5.752  20.324  0.00  0.00    +0.000 OA
ATOM     14  H   UNL     1       2.465   6.391  19.754  0.00  0.00    +0.000 HD
ENDBRANCH  10  13
ENDBRANCH   3   5
BRANCH   1  16
ATOM     15  C   UNL     1       4.920   7.117  17.115  0.00  0.00    +0.000 C 
ATOM     16  C   UNL     1       5.906   5.926  17.119  0.00  0.00    +0.000 C 
ATOM     17  C   UNL     1       7.263   6.472  17.633  0.00  0.00    +0.000 C 
BRANCH  16  18
ATOM     18  C   UNL     1       6.127   5.294  15.738  0.00  0.00    +0.000 A 
ATOM     19  C   UNL     1       5.269   4.280  15.262  0.00  0.00    +0.000 A 
ATOM     20  C   UNL     1       5.487   3.660  14.023  0.00  0.00    +0.000 A 
ATOM     21  C   UNL     1       6.567   4.046  13.232  0.00  0.00    +0.000 A 
ATOM     22  C   UNL     1       7.404   5.049  13.684  0.00  0.00    +0.000 A 
ATOM     23  F   UNL     1       8.451   5.433  12.932  0.00  0.00    +0.000 F 
ATOM     24  C   UNL     1       7.194   5.672  14.905  0.00  0.00    +0.000 A 
ENDBRANCH  16  18
ENDBRANCH   1  16
TORSDOF 5
ENDMDL
MODEL 2
REMARK VINA RESULT:      -7.6      1.425      1.814
REMARK  Name = 
REMARK  7 active torsions:
REMARK  status: ('A' for Active; 'I' for Inactive)
REMARK    1  A    between atoms: C_1  and  C_2
REMARK    2  A    between atoms: C_2  and  C_3
REMARK    3  A    between atoms: C_2  and  C_4
REMARK    4  A    between atoms: C_2  and  C_15
REMARK    5  A    between atoms: N_6  and  C_7
REMARK    6  A    between atoms: C_11  and  O_12
REMARK    7  A    between atoms: C_13  and  O_14
REMARK                            x       y       z     vdW  Elec       q    Type
REMARK                         _______ _______ _______ _____ _____    ______ ____
ROOT
ATOM      1  C   UNL     1       5.006   4.491  16.812  0.00  0.00    +0.000 C 
ATOM      2  O   UNL     1       5.168   3.277  16.677  0.00  0.00    +0.000 OA
ATOM      3  N   UNL     1       4.113   5.003  17.741  0.00  0.00    +0.000 N 
ATOM      4  H   UNL     1       3.832   5.970  17.617  0.00  0.00    +0.000 HD
ENDROOT
BRANCH   3   5
ATOM      5  C   UNL     1       3.286   4.181  18.649  0.00  0.00    +0.000 C 
ATOM      6  C   UNL     1       1.907   3.886  18.031  0.00  0.00    +0.000 C 
ATOM      7  C   UNL     1       0.960   3.126  18.954  0.00  0.00    +0.000 C 
ATOM      8  C   UNL     1       0.881   3.735  20.353  0.00  0.00    +0.000 C 
ATOM      9  C   UNL     1       2.266   3.905  20.985  0.00  0.00    +0.000 C 
ATOM     10  C   UNL     1       3.169   4.772  20.083  0.00  0.00    +0.000 C 
BRANCH   9  11
ATOM     11  O   UNL     1       2.852   2.635  21.275  0.00  0.00    +0.000 OA
ATOM     12  H   UNL     1       2.787   2.055  20.501  0.00  0.00    +0.000 HD
ENDBRANCH   9  11
BRANCH  10  13
ATOM     13  O   UNL     1       2.627   6.096  20.089  0.00  0.00    +0.000 OA
ATOM     14  H   UNL     1       1.652   6.035  20.179  0.00  0.00    +0.000 HD
ENDBRANCH  10  13
ENDBRANCH   3   5
BRANCH   1  16
ATOM     15  C   UNL     1       4.921   6.798  15.883  0.00  0.00    +0.000 C 
ATOM     16  C   UNL     1       5.790   5.522  15.967  0.00  0.00    +0.000 C 
ATOM     17  C   UNL     1       7.103   5.923  16.688  0.00  0.00    +0.000 C 
BRANCH  16  18
ATOM     18  C   UNL     1       6.148   4.919  14.602  0.00  0.00    +0.000 A 
ATOM     19  C   UNL     1       7.402   5.175  14.006  0.00  0.00    +0.000 A 
ATOM     20  C   UNL     1       7.725   4.670  12.739  0.00  0.00    +0.000 A 
ATOM     21  C   UNL     1       6.801   3.894  12.041  0.00  0.00    +0.000 A 
ATOM     22  C   UNL     1       5.576   3.627  12.625  0.00  0.00    +0.000 A 
ATOM     23  F   UNL     1       4.673   2.879  11.964  0.00  0.00    +0.000 F 
ATOM     24  C   UNL     1       5.249   4.117  13.879  0.00  0.00    +0.000 A 
ENDBRANCH  16  18
ENDBRANCH   1  16
TORSDOF 5
ENDMDL
MODEL 3
REMARK VINA RESULT:      -7.6      1.823      3.220
REMARK  Name = 
REMARK  7 active torsions:
REMARK  status: ('A' for Active; 'I' for Inactive)
REMARK    1  A    between atoms: C_1  and  C_2
REMARK    2  A    between atoms: C_2  and  C_3
REMARK    3  A    between atoms: C_2  and  C_4
REMARK    4  A    between atoms: C_2  and  C_15
REMARK    5  A    between atoms: N_6  and  C_7
REMARK    6  A    between atoms: C_11  and  O_12
REMARK    7  A    between atoms: C_13  and  O_14
REMARK                            x       y       z     vdW  Elec       q    Type
REMARK                         _______ _______ _______ _____ _____    ______ ____
ROOT
ATOM      1  C   UNL     1       4.960   4.494  16.964  0.00  0.00    +0.000 C 
ATOM      2  O   UNL     1       5.029   3.283  16.750  0.00  0.00    +0.000 OA
ATOM      3  N   UNL     1       4.105   5.012  17.924  0.00  0.00    +0.000 N 
ATOM      4  H   UNL     1       3.900   6.004  17.864  0.00  0.00    +0.000 HD
ENDROOT
BRANCH   3   5
ATOM      5  C   UNL     1       3.214   4.198  18.778  0.00  0.00    +0.000 C 
ATOM      6  C   UNL     1       1.838   4.002  18.115  0.00  0.00    +0.000 C 
ATOM      7  C   UNL     1       0.830   3.255  18.984  0.00  0.00    +0.000 C 
ATOM      8  C   UNL     1       0.746   3.811  20.404  0.00  0.00    +0.000 C 
ATOM      9  C   UNL     1       2.121   3.883  21.075  0.00  0.00    +0.000 C 
ATOM     10  C   UNL     1       3.090   4.737  20.232  0.00  0.00    +0.000 C 
BRANCH   9  11
ATOM     11  O   UNL     1       2.633   2.573  21.327  0.00  0.00    +0.000 OA
ATOM     12  H   UNL     1       1.905   1.934  21.366  0.00  0.00    +0.000 HD
ENDBRANCH   9  11
BRANCH  10  13
ATOM     13  O   UNL     1       2.617   6.086  20.279  0.00  0.00    +0.000 OA
ATOM     14  H   UNL     1       1.874   6.180  19.645  0.00  0.00    +0.000 HD
ENDBRANCH  10  13
ENDBRANCH   3   5
BRANCH   1  16
ATOM     15  C   UNL     1       6.527   4.743  15.046  0.00  0.00    +0.000 C 
ATOM     16  C   UNL     1       5.824   5.515  16.186  0.00  0.00    +0.000 C 
ATOM     17  C   UNL     1       4.923   6.582  15.514  0.00  0.00    +0.000 C 
BRANCH  16  18
ATOM     18  C   UNL     1       6.788   6.226  17.146  0.00  0.00    +0.000 A 
ATOM     19  C   UNL     1       7.351   5.541  18.243  0.00  0.00    +0.000 A 
ATOM     20  C   UNL     1       8.195   6.190  19.155  0.00  0.00    +0.000 A 
ATOM     21  C   UNL     1       8.498   7.540  18.985  0.00  0.00    +0.000 A 
ATOM     22  C   UNL     1       7.962   8.214  17.904  0.00  0.00    +0.000 A 
ATOM     23  F   UNL     1       8.244   9.518  17.726  0.00  0.00    +0.000 F 
ATOM     24  C   UNL     1       7.130   7.581  16.994  0.00  0.00    +0.000 A 
ENDBRANCH  16  18
ENDBRANCH   1  16
TORSDOF 5
ENDMDL
MODEL 4
REMARK VINA RESULT:      -7.6      1.866      2.602
REMARK  Name = 
REMARK  7 active torsions:
REMARK  status: ('A' for Active; 'I' for Inactive)
REMARK    1  A    between atoms: C_1  and  C_2
REMARK    2  A    between atoms: C_2  and  C_3
REMARK    3  A    between atoms: C_2  and  C_4
REMARK    4  A    between atoms: C_2  and  C_15
REMARK    5  A    between atoms: N_6  and  C_7
REMARK    6  A    between atoms: C_11  and  O_12
REMARK    7  A    between atoms: C_13  and  O_14
REMARK                            x       y       z     vdW  Elec       q    Type
REMARK                         _______ _______ _______ _____ _____    ______ ____
ROOT
ATOM      1  C   UNL     1       5.309   5.248  17.001  0.00  0.00    +0.000 C 
ATOM      2  O   UNL     1       4.451   6.063  16.661  0.00  0.00    +0.000 OA
ATOM      3  N   UNL     1       5.004   4.176  17.826  0.00  0.00    +0.000 N 
ATOM      4  H   UNL     1       5.784   3.712  18.278  0.00  0.00    +0.000 HD
ENDROOT
BRANCH   3   5
ATOM      5  C   UNL     1       3.658   3.893  18.367  0.00  0.00    +0.000 C 
ATOM      6  C   UNL     1       3.423   4.644  19.690  0.00  0.00    +0.000 C 
ATOM      7  C   UNL     1       2.090   4.322  20.361  0.00  0.00    +0.000 C 
ATOM      8  C   UNL     1       1.825   2.820  20.459  0.00  0.00    +0.000 C 
ATOM      9  C   UNL     1       1.953   2.125  19.100  0.00  0.00    +0.000 C 
ATOM     10  C   UNL     1       3.350   2.374  18.495  0.00  0.00    +0.000 C 
BRANCH   9  11
ATOM     11  O   UNL     1       0.902   2.529  18.220  0.00  0.00    +0.000 OA
ATOM     12  H   UNL     1       0.681   3.460  18.375  0.00  0.00    +0.000 HD
ENDBRANCH   9  11
BRANCH  10  13
ATOM     13  O   UNL     1       4.297   1.689  19.319  0.00  0.00    +0.000 OA
ATOM     14  H   UNL     1       4.503   0.823  18.907  0.00  0.00    +0.000 HD
ENDBRANCH  10  13
ENDBRANCH   3   5
BRANCH   1  16
ATOM     15  C   UNL     1       7.246   6.801  16.824  0.00  0.00    +0.000 C 
ATOM     16  C   UNL     1       6.777   5.358  16.528  0.00  0.00    +0.000 C 
ATOM     17  C   UNL     1       7.684   4.414  17.359  0.00  0.00    +0.000 C 
BRANCH  16  18
ATOM     18  C   UNL     1       6.884   4.958  15.050  0.00  0.00    +0.000 A 
ATOM     19  C   UNL     1       7.854   5.547  14.211  0.00  0.00    +0.000 A 
ATOM     20  C   UNL     1       7.933   5.226  12.848  0.00  0.00    +0.000 A 
ATOM     21  C   UNL     1       7.044   4.305  12.296  0.00  0.00    +0.000 A 
ATOM     22  C   UNL     1       6.101   3.713  13.115  0.00  0.00    +0.000 A 
ATOM     23  F   UNL     1       5.235   2.822  12.598  0.00  0.00    +0.000 F 
ATOM     24  C   UNL     1       6.017   4.019  14.464  0.00  0.00    +0.000 A 
ENDBRANCH  16  18
ENDBRANCH   1  16
TORSDOF 5
ENDMDL
MODEL 5
REMARK VINA RESULT:      -7.5      1.395      1.920
REMARK  Name = 
REMARK  7 active torsions:
REMARK  status: ('A' for Active; 'I' for Inactive)
REMARK    1  A    between atoms: C_1  and  C_2
REMARK    2  A    between atoms: C_2  and  C_3
REMARK    3  A    between atoms: C_2  and  C_4
REMARK    4  A    between atoms: C_2  and  C_15
REMARK    5  A    between atoms: N_6  and  C_7
REMARK    6  A    between atoms: C_11  and  O_12
REMARK    7  A    between atoms: C_13  and  O_14
REMARK                            x       y       z     vdW  Elec       q    Type
REMARK                         _______ _______ _______ _____ _____    ______ ____
ROOT
ATOM      1  C   UNL     1       4.977   5.421  17.474  0.00  0.00    +0.000 C 
ATOM      2  O   UNL     1       4.128   6.267  17.192  0.00  0.00    +0.000 OA
ATOM      3  N   UNL     1       4.676   4.334  18.281  0.00  0.00    +0.000 N 
ATOM      4  H   UNL     1       5.462   3.837  18.687  0.00  0.00    +0.000 HD
ENDROOT
BRANCH   3   5
ATOM      5  C   UNL     1       3.346   4.071  18.869  0.00  0.00    +0.000 C 
ATOM      6  C   UNL     1       3.044   5.049  20.018  0.00  0.00    +0.000 C 
ATOM      7  C   UNL     1       1.728   4.773  20.741  0.00  0.00    +0.000 C 
ATOM      8  C   UNL     1       1.564   3.306  21.133  0.00  0.00    +0.000 C 
ATOM      9  C   UNL     1       1.756   2.367  19.937  0.00  0.00    +0.000 C 
ATOM     10  C   UNL     1       3.141   2.588  19.293  0.00  0.00    +0.000 C 
BRANCH   9  11
ATOM     11  O   UNL     1       0.692   2.517  18.996  0.00  0.00    +0.000 OA
ATOM     12  H   UNL     1       0.964   3.112  18.281  0.00  0.00    +0.000 HD
ENDBRANCH   9  11
BRANCH  10  13
ATOM     13  O   UNL     1       4.122   2.146  20.235  0.00  0.00    +0.000 OA
ATOM     14  H   UNL     1       4.132   1.165  20.241  0.00  0.00    +0.000 HD
ENDBRANCH  10  13
ENDBRANCH   3   5
BRANCH   1  16
ATOM     15  C   UNL     1       6.911   6.957  17.169  0.00  0.00    +0.000 C 
ATOM     16  C   UNL     1       6.428   5.506  16.944  0.00  0.00    +0.000 C 
ATOM     17  C   UNL     1       7.361   4.590  17.778  0.00  0.00    +0.000 C 
BRANCH  16  18
ATOM     18  C   UNL     1       6.480   5.050  15.480  0.00  0.00    +0.000 A 
ATOM     19  C   UNL     1       5.540   4.125  14.977  0.00  0.00    +0.000 A 
ATOM     20  C   UNL     1       5.604   3.664  13.655  0.00  0.00    +0.000 A 
ATOM     21  C   UNL     1       6.609   4.121  12.805  0.00  0.00    +0.000 A 
ATOM     22  C   UNL     1       7.525   5.039  13.285  0.00  0.00    +0.000 A 
ATOM     23  F   UNL     1       8.502   5.490  12.477  0.00  0.00    +0.000 F 
ATOM     24  C   UNL     1       7.468   5.505  14.589  0.00  0.00    +0.000 A 
ENDBRANCH  16  18
ENDBRANCH   1  16
TORSDOF 5
ENDMDL
MODEL 6
REMARK VINA RESULT:      -7.5      2.118      3.499
REMARK  Name = 
REMARK  7 active torsions:
REMARK  status: ('A' for Active; 'I' for Inactive)
REMARK    1  A    between atoms: C_1  and  C_2
REMARK    2  A    between atoms: C_2  and  C_3
REMARK    3  A    between atoms: C_2  and  C_4
REMARK    4  A    between atoms: C_2  and  C_15
REMARK    5  A    between atoms: N_6  and  C_7
REMARK    6  A    between atoms: C_11  and  O_12
REMARK    7  A    between atoms: C_13  and  O_14
REMARK                            x       y       z     vdW  Elec       q    Type
REMARK                         _______ _______ _______ _____ _____    ______ ____
ROOT
ATOM      1  C   UNL     1       4.659   4.540  16.695  0.00  0.00    +0.000 C 
ATOM      2  O   UNL     1       4.665   3.333  16.451  0.00  0.00    +0.000 OA
ATOM      3  N   UNL     1       3.750   5.095  17.583  0.00  0.00    +0.000 N 
ATOM      4  H   UNL     1       3.622   6.100  17.535  0.00  0.00    +0.000 HD
ENDROOT
BRANCH   3   5
ATOM      5  C   UNL     1       2.724   4.327  18.319  0.00  0.00    +0.000 C 
ATOM      6  C   UNL     1       2.110   5.168  19.453  0.00  0.00    +0.000 C 
ATOM      7  C   UNL     1       1.112   4.407  20.322  0.00  0.00    +0.000 C 
ATOM      8  C   UNL     1       1.645   3.054  20.789  0.00  0.00    +0.000 C 
ATOM      9  C   UNL     1       2.139   2.197  19.619  0.00  0.00    +0.000 C 
ATOM     10  C   UNL     1       3.229   2.945  18.823  0.00  0.00    +0.000 C 
BRANCH   9  11
ATOM     11  O   UNL     1       1.050   1.788  18.791  0.00  0.00    +0.000 OA
ATOM     12  H   UNL     1       0.549   1.081  19.228  0.00  0.00    +0.000 HD
ENDBRANCH   9  11
BRANCH  10  13
ATOM     13  O   UNL     1       4.374   3.056  19.673  0.00  0.00    +0.000 OA
ATOM     14  H   UNL     1       4.872   2.211  19.641  0.00  0.00    +0.000 HD
ENDBRANCH  10  13
ENDBRANCH   3   5
BRANCH   1  16
ATOM     15  C   UNL     1       6.337   4.758  14.870  0.00  0.00    +0.000 C 
ATOM     16  C   UNL     1       5.666   5.514  16.040  0.00  0.00    +0.000 C 
ATOM     17  C   UNL     1       4.920   6.723  15.419  0.00  0.00    +0.000 C 
BRANCH  16  18
ATOM     18  C   UNL     1       6.652   6.038  17.092  0.00  0.00    +0.000 A 
ATOM     19  C   UNL     1       7.103   5.205  18.138  0.00  0.00    +0.000 A 
ATOM     20  C   UNL     1       7.966   5.684  19.133  0.00  0.00    +0.000 A 
ATOM     21  C   UNL     1       8.401   7.008  19.101  0.00  0.00    +0.000 A 
ATOM     22  C   UNL     1       7.975   7.826  18.071  0.00  0.00    +0.000 A 
ATOM     23  F   UNL     1       8.385   9.108  18.026  0.00  0.00    +0.000 F 
ATOM     24  C   UNL     1       7.126   7.362  17.080  0.00  0.00    +0.000 A 
ENDBRANCH  16  18
ENDBRANCH   1  16
TORSDOF 5
ENDMDL
MODEL 7
REMARK VINA RESULT:      -7.5      1.968      3.363
REMARK  Name = 
REMARK  7 active torsions:
REMARK  status: ('A' for Active; 'I' for Inactive)
REMARK    1  A    between atoms: C_1  and  C_2
REMARK    2  A    between atoms: C_2  and  C_3
REMARK    3  A    between atoms: C_2  and  C_4
REMARK    4  A    between atoms: C_2  and  C_15
REMARK    5  A    between atoms: N_6  and  C_7
REMARK    6  A    between atoms: C_11  and  O_12
REMARK    7  A    between atoms: C_13  and  O_14
REMARK                            x       y       z     vdW  Elec       q    Type
REMARK                         _______ _______ _______ _____ _____    ______ ____
ROOT
ATOM      1  C   UNL     1       4.845   4.462  16.917  0.00  0.00    +0.000 C 
ATOM      2  O   UNL     1       4.797   3.275  16.591  0.00  0.00    +0.000 OA
ATOM      3  N   UNL     1       4.108   4.949  17.985  0.00  0.00    +0.000 N 
ATOM      4  H   UNL     1       3.983   5.955  18.032  0.00  0.00    +0.000 HD
ENDROOT
BRANCH   3   5
ATOM      5  C   UNL     1       3.216   4.128  18.831  0.00  0.00    +0.000 C 
ATOM      6  C   UNL     1       1.858   3.898  18.145  0.00  0.00    +0.000 C 
ATOM      7  C   UNL     1       0.847   3.142  19.002  0.00  0.00    +0.000 C 
ATOM      8  C   UNL     1       0.725   3.711  20.415  0.00  0.00    +0.000 C 
ATOM      9  C   UNL     1       2.086   3.816  21.111  0.00  0.00    +0.000 C 
ATOM     10  C   UNL     1       3.055   4.680  20.277  0.00  0.00    +0.000 C 
BRANCH   9  11
ATOM     11  O   UNL     1       2.618   2.519  21.386  0.00  0.00    +0.000 OA
ATOM     12  H   UNL     1       3.535   2.595  21.691  0.00  0.00    +0.000 HD
ENDBRANCH   9  11
BRANCH  10  13
ATOM     13  O   UNL     1       2.556   6.019  20.300  0.00  0.00    +0.000 OA
ATOM     14  H   UNL     1       1.833   6.074  20.962  0.00  0.00    +0.000 HD
ENDBRANCH  10  13
ENDBRANCH   3   5
BRANCH   1  16
ATOM     15  C   UNL     1       6.456   4.717  15.038  0.00  0.00    +0.000 C 
ATOM     16  C   UNL     1       5.733   5.483  16.168  0.00  0.00    +0.000 C 
ATOM     17  C   UNL     1       4.853   6.562  15.484  0.00  0.00    +0.000 C 
BRANCH  16  18
ATOM     18  C   UNL     1       6.679   6.180  17.155  0.00  0.00    +0.000 A 
ATOM     19  C   UNL     1       7.014   7.542  16.994  0.00  0.00    +0.000 A 
ATOM     20  C   UNL     1       7.914   8.179  17.860  0.00  0.00    +0.000 A 
ATOM     21  C   UNL     1       8.496   7.469  18.909  0.00  0.00    +0.000 A 
ATOM     22  C   UNL     1       8.160   6.138  19.081  0.00  0.00    +0.000 A 
ATOM     23  F   UNL     1       8.713   5.438  20.089  0.00  0.00    +0.000 F 
ATOM     24  C   UNL     1       7.268   5.500  18.234  0.00  0.00    +0.000 A 
ENDBRANCH  16  18
ENDBRANCH   1  16
TORSDOF 5
ENDMDL
MODEL 8
REMARK VINA RESULT:      -7.4      0.998      1.053
REMARK  Name = 
REMARK  7 active torsions:
REMARK  status: ('A' for Active; 'I' for Inactive)
REMARK    1  A    between atoms: C_1  and  C_2
REMARK    2  A    between atoms: C_2  and  C_3
REMARK    3  A    between atoms: C_2  and  C_4
REMARK    4  A    between atoms: C_2  and  C_15
REMARK    5  A    between atoms: N_6  and  C_7
REMARK    6  A    between atoms: C_11  and  O_12
REMARK    7  A    between atoms: C_13  and  O_14
REMARK                            x       y       z     vdW  Elec       q    Type
REMARK                         _______ _______ _______ _____ _____    ______ ____
ROOT
ATOM      1  C   UNL     1       5.017   4.968  17.687  0.00  0.00    +0.000 C 
ATOM      2  O   UNL     1       3.992   5.594  17.414  0.00  0.00    +0.000 OA
ATOM      3  N   UNL     1       5.002   3.907  18.580  0.00  0.00    +0.000 N 
ATOM      4  H   UNL     1       5.897   3.617  18.959  0.00  0.00    +0.000 HD
ENDROOT
BRANCH   3   5
ATOM      5  C   UNL     1       3.794   3.418  19.278  0.00  0.00    +0.000 C 
ATOM      6  C   UNL     1       2.633   3.202  18.291  0.00  0.00    +0.000 C 
ATOM      7  C   UNL     1       1.320   2.793  18.954  0.00  0.00    +0.000 C 
ATOM      8  C   UNL     1       0.953   3.684  20.140  0.00  0.00    +0.000 C 
ATOM      9  C   UNL     1       2.092   3.781  21.160  0.00  0.00    +0.000 C 
ATOM     10  C   UNL     1       3.378   4.305  20.486  0.00  0.00    +0.000 C 
BRANCH   9  11
ATOM     11  O   UNL     1       2.296   2.529  21.815  0.00  0.00    +0.000 OA
ATOM     12  H   UNL     1       2.907   1.980  21.299  0.00  0.00    +0.000 HD
ENDBRANCH   9  11
BRANCH  10  13
ATOM     13  O   UNL     1       3.137   5.664  20.113  0.00  0.00    +0.000 OA
ATOM     14  H   UNL     1       2.281   5.712  19.635  0.00  0.00    +0.000 HD
ENDBRANCH  10  13
ENDBRANCH   3   5
BRANCH   1  16
ATOM     15  C   UNL     1       6.626   6.822  17.276  0.00  0.00    +0.000 C 
ATOM     16  C   UNL     1       6.383   5.312  17.048  0.00  0.00    +0.000 C 
ATOM     17  C   UNL     1       7.525   4.561  17.781  0.00  0.00    +0.000 C 
BRANCH  16  18
ATOM     18  C   UNL     1       6.394   4.894  15.572  0.00  0.00    +0.000 A 
ATOM     19  C   UNL     1       5.435   3.988  15.071  0.00  0.00    +0.000 A 
ATOM     20  C   UNL     1       5.462   3.560  13.736  0.00  0.00    +0.000 A 
ATOM     21  C   UNL     1       6.447   4.033  12.871  0.00  0.00    +0.000 A 
ATOM     22  C   UNL     1       7.381   4.933  13.351  0.00  0.00    +0.000 A 
ATOM     23  F   UNL     1       8.339   5.400  12.529  0.00  0.00    +0.000 F 
ATOM     24  C   UNL     1       7.361   5.366  14.667  0.00  0.00    +0.000 A 
ENDBRANCH  16  18
ENDBRANCH   1  16
TORSDOF 5
ENDMDL
MODEL 9
REMARK VINA RESULT:      -7.4      1.003      1.415
REMARK  Name = 
REMARK  7 active torsions:
REMARK  status: ('A' for Active; 'I' for Inactive)
REMARK    1  A    between atoms: C_1  and  C_2
REMARK    2  A    between atoms: C_2  and  C_3
REMARK    3  A    between atoms: C_2  and  C_4
REMARK    4  A    between atoms: C_2  and  C_15
REMARK    5  A    between atoms: N_6  and  C_7
REMARK    6  A    between atoms: C_11  and  O_12
REMARK    7  A    between atoms: C_13  and  O_14
REMARK                            x       y       z     vdW  Elec       q    Type
REMARK                         _______ _______ _______ _____ _____    ______ ____
ROOT
ATOM      1  C   UNL     1       5.271   4.887  18.028  0.00  0.00    +0.000 C 
ATOM      2  O   UNL     1       6.012   4.082  18.591  0.00  0.00    +0.000 OA
ATOM      3  N   UNL     1       3.903   4.893  18.255  0.00  0.00    +0.000 N 
ATOM      4  H   UNL     1       3.331   5.385  17.576  0.00  0.00    +0.000 HD
ENDROOT
BRANCH   3   5
ATOM      5  C   UNL     1       3.202   3.970  19.172  0.00  0.00    +0.000 C 
ATOM      6  C   UNL     1       1.915   3.423  18.530  0.00  0.00    +0.000 C 
ATOM      7  C   UNL     1       1.084   2.539  19.457  0.00  0.00    +0.000 C 
ATOM      8  C   UNL     1       0.858   3.169  20.830  0.00  0.00    +0.000 C 
ATOM      9  C   UNL     1       2.174   3.595  21.489  0.00  0.00    +0.000 C 
ATOM     10  C   UNL     1       2.941   4.577  20.580  0.00  0.00    +0.000 C 
BRANCH   9  11
ATOM     11  O   UNL     1       2.960   2.456  21.840  0.00  0.00    +0.000 OA
ATOM     12  H   UNL     1       3.861   2.556  21.495  0.00  0.00    +0.000 HD
ENDBRANCH   9  11
BRANCH  10  13
ATOM     13  O   UNL     1       2.180   5.786  20.524  0.00  0.00    +0.000 OA
ATOM     14  H   UNL     1       1.448   5.727  21.174  0.00  0.00    +0.000 HD
ENDBRANCH  10  13
ENDBRANCH   3   5
BRANCH   1  16
ATOM     15  C   UNL     1       4.761   7.081  16.969  0.00  0.00    +0.000 C 
ATOM     16  C   UNL     1       5.812   5.950  17.042  0.00  0.00    +0.000 C 
ATOM     17  C   UNL     1       7.114   6.584  17.595  0.00  0.00    +0.000 C 
BRANCH  16  18
ATOM     18  C   UNL     1       6.124   5.299  15.688  0.00  0.00    +0.000 A 
ATOM     19  C   UNL     1       7.430   5.332  15.155  0.00  0.00    +0.000 A 
ATOM     20  C   UNL     1       7.721   4.783  13.898  0.00  0.00    +0.000 A 
ATOM     21  C   UNL     1       6.709   4.186  13.147  0.00  0.00    +0.000 A 
ATOM     22  C   UNL     1       5.430   4.137  13.669  0.00  0.00    +0.000 A 
ATOM     23  F   UNL     1       4.442   3.564  12.957  0.00  0.00    +0.000 F 
ATOM     24  C   UNL     1       5.133   4.672  14.913  0.00  0.00    +0.000 A 
ENDBRANCH  16  18
ENDBRANCH   1  16
TORSDOF 5
ENDMDL
