MODEL 1
REMARK VINA RESULT:      -7.1      0.000      0.000
REMARK  Name = 
REMARK  11 active torsions:
REMARK  status: ('A' for Active; 'I' for Inactive)
REMARK    1  A    between atoms: C_1  and  C_2
REMARK    2  A    between atoms: N_4  and  C_5
REMARK    3  A    between atoms: C_8  and  S_9
REMARK    4  A    between atoms: S_9  and  N_12
REMARK    5  A    between atoms: N_12  and  C_13
REMARK    6  A    between atoms: C_13  and  C_14
REMARK    7  A    between atoms: C_14  and  O_16
REMARK    8  A    between atoms: O_16  and  C_17
REMARK    9  A    between atoms: C_17  and  C_18
REMARK   10  A    between atoms: N_20  and  C_21
REMARK   11  A    between atoms: C_21  and  C_22
REMARK                            x       y       z     vdW  Elec       q    Type
REMARK                         _______ _______ _______ _____ _____    ______ ____
ROOT
ATOM      1  N   UNL     1       1.868   5.774  20.711  0.00  0.00    +0.000 NA
ATOM      2  H   UNL     1       1.314   6.526  21.127  0.00  0.00    +0.000 HD
ENDROOT
BRANCH   1   3
ATOM      3  S   UNL     1       2.647   6.237  19.290  0.00  0.00    +0.000 S 
ATOM      4  O   UNL     1       2.114   5.431  18.214  0.00  0.00    +0.000 OA
ATOM      5  O   UNL     1       4.061   6.297  19.581  0.00  0.00    +0.000 OA
BRANCH   3   9
ATOM      6  C   UNL     1       1.188  10.549  18.748  0.00  0.00    +0.000 A 
ATOM      7  C   UNL     1       0.875   9.808  19.891  0.00  0.00    +0.000 A 
ATOM      8  C   UNL     1       1.327   8.501  20.055  0.00  0.00    +0.000 A 
ATOM      9  C   UNL     1       2.095   7.909  19.055  0.00  0.00    +0.000 A 
ATOM     10  C   UNL     1       2.433   8.631  17.906  0.00  0.00    +0.000 A 
ATOM     11  C   UNL     1       1.967   9.948  17.747  0.00  0.00    +0.000 A 
BRANCH   6  15
ATOM     12  C   UNL     1       0.398  14.238  19.007  0.00  0.00    +0.000 C 
ATOM     13  C   UNL     1       1.092  12.954  19.371  0.00  0.00    +0.000 C 
ATOM     14  O   UNL     1       1.894  12.940  20.299  0.00  0.00    +0.000 OA
ATOM     15  N   UNL     1       0.737  11.879  18.569  0.00  0.00    +0.000 N 
ATOM     16  H   UNL     1       0.187  12.072  17.740  0.00  0.00    +0.000 HD
ENDBRANCH   6  15
ENDBRANCH   3   9
ENDBRANCH   1   3
BRANCH   1  17
ATOM     17  C   UNL     1       1.175   4.471  20.694  0.00  0.00    +0.000 C 
BRANCH  17  18
ATOM     18  C   UNL     1       1.995   3.339  21.288  0.00  0.00    +0.000 C 
ATOM     19  O   UNL     1       1.717   2.775  22.339  0.00  0.00    +0.000 OA
BRANCH  18  20
ATOM     20  O   UNL     1       3.147   3.135  20.582  0.00  0.00    +0.000 OA
BRANCH  20  21
ATOM     21  C   UNL     1       3.086   2.059  19.634  0.00  0.00    +0.000 C 
BRANCH  21  22
ATOM     22  C   UNL     1       3.712   2.535  18.322  0.00  0.00    +0.000 C 
ATOM     23  O   UNL     1       3.377   2.066  17.229  0.00  0.00    +0.000 OA
ATOM     24  N   UNL     1       4.704   3.483  18.446  0.00  0.00    +0.000 N 
ATOM     25  H   UNL     1       4.823   3.987  19.315  0.00  0.00    +0.000 HD
BRANCH  24  26
ATOM     26  C   UNL     1       5.389   3.998  17.276  0.00  0.00    +0.000 C 
BRANCH  26  27
ATOM     27  C   UNL     1       6.351   5.052  17.683  0.00  0.00    +0.000 A 
ATOM     28  C   UNL     1       6.745   6.241  17.105  0.00  0.00    +0.000 A 
ATOM     29  C   UNL     1       7.700   6.815  17.977  0.00  0.00    +0.000 A 
ATOM     30  C   UNL     1       7.836   5.937  19.026  0.00  0.00    +0.000 A 
ATOM     31  O   UNL     1       7.023   4.861  18.858  0.00  0.00    +0.000 OA
ENDBRANCH  26  27
ENDBRANCH  24  26
ENDBRANCH  21  22
ENDBRANCH  20  21
ENDBRANCH  18  20
ENDBRANCH  17  18
ENDBRANCH   1  17
TORSDOF 10
ENDMDL
MODEL 2
REMARK VINA RESULT:      -7.0      2.107      4.613
REMARK  Name = 
REMARK  11 active torsions:
REMARK  status: ('A' for Active; 'I' for Inactive)
REMARK    1  A    between atoms: C_1  and  C_2
REMARK    2  A    between atoms: N_4  and  C_5
REMARK    3  A    between atoms: C_8  and  S_9
REMARK    4  A    between atoms: S_9  and  N_12
REMARK    5  A    between atoms: N_12  and  C_13
REMARK    6  A    between atoms: C_13  and  C_14
REMARK    7  A    between atoms: C_14  and  O_16
REMARK    8  A    between atoms: O_16  and  C_17
REMARK    9  A    between atoms: C_17  and  C_18
REMARK   10  A    between atoms: N_20  and  C_21
REMARK   11  A    between atoms: C_21  and  C_22
REMARK                            x       y       z     vdW  Elec       q    Type
REMARK                         _______ _______ _______ _____ _____    ______ ____
ROOT
ATOM      1  N   UNL     1       4.370   7.405  17.870  0.00  0.00    +0.000 NA
ATOM      2  H   UNL     1       4.987   7.928  18.495  0.00  0.00    +0.000 HD
ENDROOT
BRANCH   1   3
ATOM      3  S   UNL     1       3.291   6.406  18.694  0.00  0.00    +0.000 S 
ATOM      4  O   UNL     1       4.028   5.727  19.737  0.00  0.00    +0.000 OA
ATOM      5  O   UNL     1       2.530   5.689  17.697  0.00  0.00    +0.000 OA
BRANCH   3   9
ATOM      6  C   UNL     1       0.429   9.426  20.618  0.00  0.00    +0.000 A 
ATOM      7  C   UNL     1       0.927   9.610  19.326  0.00  0.00    +0.000 A 
ATOM      8  C   UNL     1       1.791   8.685  18.742  0.00  0.00    +0.000 A 
ATOM      9  C   UNL     1       2.182   7.560  19.463  0.00  0.00    +0.000 A 
ATOM     10  C   UNL     1       1.690   7.345  20.755  0.00  0.00    +0.000 A 
ATOM     11  C   UNL     1       0.823   8.287  21.337  0.00  0.00    +0.000 A 
BRANCH   6  15
ATOM     12  C   UNL     1      -1.631  11.562  22.963  0.00  0.00    +0.000 C 
ATOM     13  C   UNL     1      -0.555  10.579  22.589  0.00  0.00    +0.000 C 
ATOM     14  O   UNL     1       0.133  10.069  23.467  0.00  0.00    +0.000 OA
ATOM     15  N   UNL     1      -0.450  10.356  21.223  0.00  0.00    +0.000 N 
ATOM     16  H   UNL     1      -0.972  10.967  20.605  0.00  0.00    +0.000 HD
ENDBRANCH   6  15
ENDBRANCH   3   9
ENDBRANCH   1   3
BRANCH   1  17
ATOM     17  C   UNL     1       5.067   6.815  16.710  0.00  0.00    +0.000 C 
BRANCH  17  18
ATOM     18  C   UNL     1       6.578   6.784  16.861  0.00  0.00    +0.000 C 
ATOM     19  O   UNL     1       7.260   7.773  17.102  0.00  0.00    +0.000 OA
BRANCH  18  20
ATOM     20  O   UNL     1       7.085   5.554  16.550  0.00  0.00    +0.000 OA
BRANCH  20  21
ATOM     21  C   UNL     1       6.906   4.558  17.569  0.00  0.00    +0.000 C 
BRANCH  21  22
ATOM     22  C   UNL     1       5.670   3.727  17.220  0.00  0.00    +0.000 C 
ATOM     23  O   UNL     1       5.363   3.472  16.050  0.00  0.00    +0.000 OA
ATOM     24  N   UNL     1       4.901   3.325  18.290  0.00  0.00    +0.000 N 
ATOM     25  H   UNL     1       5.269   3.375  19.230  0.00  0.00    +0.000 HD
BRANCH  24  26
ATOM     26  C   UNL     1       3.692   2.550  18.087  0.00  0.00    +0.000 C 
BRANCH  26  27
ATOM     27  C   UNL     1       2.841   2.624  19.299  0.00  0.00    +0.000 A 
ATOM     28  C   UNL     1       1.480   2.761  19.487  0.00  0.00    +0.000 A 
ATOM     29  C   UNL     1       1.266   2.766  20.886  0.00  0.00    +0.000 A 
ATOM     30  C   UNL     1       2.509   2.640  21.463  0.00  0.00    +0.000 A 
ATOM     31  O   UNL     1       3.472   2.555  20.508  0.00  0.00    +0.000 OA
ENDBRANCH  26  27
ENDBRANCH  24  26
ENDBRANCH  21  22
ENDBRANCH  20  21
ENDBRANCH  18  20
ENDBRANCH  17  18
ENDBRANCH   1  17
TORSDOF 10
ENDMDL
MODEL 3
REMARK VINA RESULT:      -6.9      1.838      4.359
REMARK  Name = 
REMARK  11 active torsions:
REMARK  status: ('A' for Active; 'I' for Inactive)
REMARK    1  A    between atoms: C_1  and  C_2
REMARK    2  A    between atoms: N_4  and  C_5
REMARK    3  A    between atoms: C_8  and  S_9
REMARK    4  A    between atoms: S_9  and  N_12
REMARK    5  A    between atoms: N_12  and  C_13
REMARK    6  A    between atoms: C_13  and  C_14
REMARK    7  A    between atoms: C_14  and  O_16
REMARK    8  A    between atoms: O_16  and  C_17
REMARK    9  A    between atoms: C_17  and  C_18
REMARK   10  A    between atoms: N_20  and  C_21
REMARK   11  A    between atoms: C_21  and  C_22
REMARK                            x       y       z     vdW  Elec       q    Type
REMARK                         _______ _______ _______ _____ _____    ______ ____
ROOT
ATOM      1  N   UNL     1       3.989   7.469  17.473  0.00  0.00    +0.000 NA
ATOM      2  H   UNL     1       4.445   8.263  17.926  0.00  0.00    +0.000 HD
ENDROOT
BRANCH   1   3
ATOM      3  S   UNL     1       3.078   6.534  18.539  0.00  0.00    +0.000 S 
ATOM      4  O   UNL     1       3.979   5.995  19.532  0.00  0.00    +0.000 OA
ATOM      5  O   UNL     1       2.219   5.691  17.738  0.00  0.00    +0.000 OA
BRANCH   3   9
ATOM      6  C   UNL     1       0.386   9.587  20.649  0.00  0.00    +0.000 A 
ATOM      7  C   UNL     1       0.856   8.447  21.307  0.00  0.00    +0.000 A 
ATOM      8  C   UNL     1       1.681   7.526  20.664  0.00  0.00    +0.000 A 
ATOM      9  C   UNL     1       2.033   7.732  19.332  0.00  0.00    +0.000 A 
ATOM     10  C   UNL     1       1.586   8.870  18.652  0.00  0.00    +0.000 A 
ATOM     11  C   UNL     1       0.750   9.790  19.308  0.00  0.00    +0.000 A 
BRANCH   6  15
ATOM     12  C   UNL     1      -1.122  12.555  22.442  0.00  0.00    +0.000 C 
ATOM     13  C   UNL     1      -0.052  11.791  21.712  0.00  0.00    +0.000 C 
ATOM     14  O   UNL     1       1.048  12.305  21.537  0.00  0.00    +0.000 OA
ATOM     15  N   UNL     1      -0.452  10.531  21.290  0.00  0.00    +0.000 N 
ATOM     16  H   UNL     1      -1.436  10.302  21.360  0.00  0.00    +0.000 HD
ENDBRANCH   6  15
ENDBRANCH   3   9
ENDBRANCH   1   3
BRANCH   1  17
ATOM     17  C   UNL     1       4.868   6.740  16.536  0.00  0.00    +0.000 C 
BRANCH  17  18
ATOM     18  C   UNL     1       6.339   6.803  16.910  0.00  0.00    +0.000 C 
ATOM     19  O   UNL     1       6.909   7.827  17.264  0.00  0.00    +0.000 OA
BRANCH  18  20
ATOM     20  O   UNL     1       6.966   5.615  16.661  0.00  0.00    +0.000 OA
BRANCH  20  21
ATOM     21  C   UNL     1       6.841   4.640  17.708  0.00  0.00    +0.000 C 
BRANCH  21  22
ATOM     22  C   UNL     1       5.653   3.732  17.381  0.00  0.00    +0.000 C 
ATOM     23  O   UNL     1       5.397   3.382  16.224  0.00  0.00    +0.000 OA
ATOM     24  N   UNL     1       4.867   3.371  18.453  0.00  0.00    +0.000 N 
ATOM     25  H   UNL     1       5.201   3.504  19.398  0.00  0.00    +0.000 HD
BRANCH  24  26
ATOM     26  C   UNL     1       3.700   2.531  18.269  0.00  0.00    +0.000 C 
BRANCH  26  27
ATOM     27  C   UNL     1       2.807   2.649  19.448  0.00  0.00    +0.000 A 
ATOM     28  C   UNL     1       1.437   2.733  19.586  0.00  0.00    +0.000 A 
ATOM     29  C   UNL     1       1.178   2.826  20.974  0.00  0.00    +0.000 A 
ATOM     30  C   UNL     1       2.405   2.802  21.594  0.00  0.00    +0.000 A 
ATOM     31  O   UNL     1       3.402   2.697  20.676  0.00  0.00    +0.000 OA
ENDBRANCH  26  27
ENDBRANCH  24  26
ENDBRANCH  21  22
ENDBRANCH  20  21
ENDBRANCH  18  20
ENDBRANCH  17  18
ENDBRANCH   1  17
TORSDOF 10
ENDMDL
MODEL 4
REMARK VINA RESULT:      -6.9      1.760      2.275
REMARK  Name = 
REMARK  11 active torsions:
REMARK  status: ('A' for Active; 'I' for Inactive)
REMARK    1  A    between atoms: C_1  and  C_2
REMARK    2  A    between atoms: N_4  and  C_5
REMARK    3  A    between atoms: C_8  and  S_9
REMARK    4  A    between atoms: S_9  and  N_12
REMARK    5  A    between atoms: N_12  and  C_13
REMARK    6  A    between atoms: C_13  and  C_14
REMARK    7  A    between atoms: C_14  and  O_16
REMARK    8  A    between atoms: O_16  and  C_17
REMARK    9  A    between atoms: C_17  and  C_18
REMARK   10  A    between atoms: N_20  and  C_21
REMARK   11  A    between atoms: C_21  and  C_22
REMARK                            x       y       z     vdW  Elec       q    Type
REMARK                         _______ _______ _______ _____ _____    ______ ____
ROOT
ATOM      1  N   UNL     1       2.511   5.116  18.015  0.00  0.00    +0.000 NA
ATOM      2  H   UNL     1       3.286   4.522  17.715  0.00  0.00    +0.000 HD
ENDROOT
BRANCH   1   3
ATOM      3  S   UNL     1       2.822   5.925  19.461  0.00  0.00    +0.000 S 
ATOM      4  O   UNL     1       4.256   6.055  19.593  0.00  0.00    +0.000 OA
ATOM      5  O   UNL     1       2.008   5.302  20.480  0.00  0.00    +0.000 OA
BRANCH   3   9
ATOM      6  C   UNL     1       1.049  10.098  18.785  0.00  0.00    +0.000 A 
ATOM      7  C   UNL     1       0.930   9.442  20.013  0.00  0.00    +0.000 A 
ATOM      8  C   UNL     1       1.478   8.177  20.217  0.00  0.00    +0.000 A 
ATOM      9  C   UNL     1       2.145   7.541  19.172  0.00  0.00    +0.000 A 
ATOM     10  C   UNL     1       2.288   8.179  17.936  0.00  0.00    +0.000 A 
ATOM     11  C   UNL     1       1.728   9.453  17.739  0.00  0.00    +0.000 A 
BRANCH   6  15
ATOM     12  C   UNL     1       0.256  13.793  18.656  0.00  0.00    +0.000 C 
ATOM     13  C   UNL     1       1.100  12.579  18.932  0.00  0.00    +0.000 C 
ATOM     14  O   UNL     1       2.214  12.715  19.430  0.00  0.00    +0.000 OA
ATOM     15  N   UNL     1       0.499  11.383  18.565  0.00  0.00    +0.000 N 
ATOM     16  H   UNL     1      -0.352  11.434  18.017  0.00  0.00    +0.000 HD
ENDBRANCH   6  15
ENDBRANCH   3   9
ENDBRANCH   1   3
BRANCH   1  17
ATOM     17  C   UNL     1       1.189   4.473  17.886  0.00  0.00    +0.000 C 
BRANCH  17  18
ATOM     18  C   UNL     1       1.186   3.006  18.281  0.00  0.00    +0.000 C 
ATOM     19  O   UNL     1       0.311   2.486  18.962  0.00  0.00    +0.000 OA
BRANCH  18  20
ATOM     20  O   UNL     1       2.344   2.387  17.905  0.00  0.00    +0.000 OA
BRANCH  20  21
ATOM     21  C   UNL     1       3.143   1.899  18.993  0.00  0.00    +0.000 C 
BRANCH  21  22
ATOM     22  C   UNL     1       4.487   2.630  18.970  0.00  0.00    +0.000 C 
ATOM     23  O   UNL     1       5.233   2.657  19.955  0.00  0.00    +0.000 OA
ATOM     24  N   UNL     1       4.785   3.292  17.800  0.00  0.00    +0.000 N 
ATOM     25  H   UNL     1       4.263   3.097  16.956  0.00  0.00    +0.000 HD
BRANCH  24  26
ATOM     26  C   UNL     1       6.020   4.040  17.662  0.00  0.00    +0.000 C 
BRANCH  26  27
ATOM     27  C   UNL     1       6.326   4.242  16.225  0.00  0.00    +0.000 A 
ATOM     28  C   UNL     1       5.814   3.692  15.067  0.00  0.00    +0.000 A 
ATOM     29  C   UNL     1       6.515   4.290  13.994  0.00  0.00    +0.000 A 
ATOM     30  C   UNL     1       7.416   5.160  14.564  0.00  0.00    +0.000 A 
ATOM     31  O   UNL     1       7.310   5.137  15.918  0.00  0.00    +0.000 OA
ENDBRANCH  26  27
ENDBRANCH  24  26
ENDBRANCH  21  22
ENDBRANCH  20  21
ENDBRANCH  18  20
ENDBRANCH  17  18
ENDBRANCH   1  17
TORSDOF 10
ENDMDL
MODEL 5
REMARK VINA RESULT:      -6.9      1.787      4.383
REMARK  Name = 
REMARK  11 active torsions:
REMARK  status: ('A' for Active; 'I' for Inactive)
REMARK    1  A    between atoms: C_1  and  C_2
REMARK    2  A    between atoms: N_4  and  C_5
REMARK    3  A    between atoms: C_8  and  S_9
REMARK    4  A    between atoms: S_9  and  N_12
REMARK    5  A    between atoms: N_12  and  C_13
REMARK    6  A    between atoms: C_13  and  C_14
REMARK    7  A    between atoms: C_14  and  O_16
REMARK    8  A    between atoms: O_16  and  C_17
REMARK    9  A    between atoms: C_17  and  C_18
REMARK   10  A    between atoms: N_20  and  C_21
REMARK   11  A    between atoms: C_21  and  C_22
REMARK                            x       y       z     vdW  Elec       q    Type
REMARK                         _______ _______ _______ _____ _____    ______ ____
ROOT
ATOM      1  N   UNL     1       4.289   7.281  17.937  0.00  0.00    +0.000 NA
ATOM      2  H   UNL     1       5.042   7.549  18.574  0.00  0.00    +0.000 HD
ENDROOT
BRANCH   1   3
ATOM      3  S   UNL     1       3.007   6.515  18.718  0.00  0.00    +0.000 S 
ATOM      4  O   UNL     1       3.544   5.817  19.865  0.00  0.00    +0.000 OA
ATOM      5  O   UNL     1       2.231   5.842  17.702  0.00  0.00    +0.000 OA
BRANCH   3   9
ATOM      6  C   UNL     1       0.475  10.050  20.170  0.00  0.00    +0.000 A 
ATOM      7  C   UNL     1       0.960   9.985  18.861  0.00  0.00    +0.000 A 
ATOM      8  C   UNL     1       1.722   8.905  18.421  0.00  0.00    +0.000 A 
ATOM      9  C   UNL     1       2.025   7.873  19.307  0.00  0.00    +0.000 A 
ATOM     10  C   UNL     1       1.544   7.906  20.619  0.00  0.00    +0.000 A 
ATOM     11  C   UNL     1       0.780   9.004  21.054  0.00  0.00    +0.000 A 
BRANCH   6  15
ATOM     12  C   UNL     1      -0.842  13.261  21.672  0.00  0.00    +0.000 C 
ATOM     13  C   UNL     1       0.212  12.301  21.192  0.00  0.00    +0.000 C 
ATOM     14  O   UNL     1       1.398  12.593  21.312  0.00  0.00    +0.000 OA
ATOM     15  N   UNL     1      -0.301  11.141  20.629  0.00  0.00    +0.000 N 
ATOM     16  H   UNL     1      -1.298  11.107  20.448  0.00  0.00    +0.000 HD
ENDBRANCH   6  15
ENDBRANCH   3   9
ENDBRANCH   1   3
BRANCH   1  17
ATOM     17  C   UNL     1       4.767   6.665  16.684  0.00  0.00    +0.000 C 
BRANCH  17  18
ATOM     18  C   UNL     1       6.240   6.298  16.710  0.00  0.00    +0.000 C 
ATOM     19  O   UNL     1       7.147   7.107  16.557  0.00  0.00    +0.000 OA
BRANCH  18  20
ATOM     20  O   UNL     1       6.415   4.944  16.780  0.00  0.00    +0.000 OA
BRANCH  20  21
ATOM     21  C   UNL     1       5.225   4.174  16.555  0.00  0.00    +0.000 C 
BRANCH  21  22
ATOM     22  C   UNL     1       4.903   3.399  17.834  0.00  0.00    +0.000 C 
ATOM     23  O   UNL     1       5.503   3.609  18.894  0.00  0.00    +0.000 OA
ATOM     24  N   UNL     1       3.937   2.424  17.712  0.00  0.00    +0.000 N 
ATOM     25  H   UNL     1       3.332   2.403  16.902  0.00  0.00    +0.000 HD
BRANCH  24  26
ATOM     26  C   UNL     1       3.560   1.606  18.848  0.00  0.00    +0.000 C 
BRANCH  26  27
ATOM     27  C   UNL     1       2.620   2.358  19.716  0.00  0.00    +0.000 A 
ATOM     28  C   UNL     1       2.595   2.620  21.071  0.00  0.00    +0.000 A 
ATOM     29  C   UNL     1       1.436   3.397  21.309  0.00  0.00    +0.000 A 
ATOM     30  C   UNL     1       0.824   3.553  20.087  0.00  0.00    +0.000 A 
ATOM     31  O   UNL     1       1.534   2.925  19.113  0.00  0.00    +0.000 OA
ENDBRANCH  26  27
ENDBRANCH  24  26
ENDBRANCH  21  22
ENDBRANCH  20  21
ENDBRANCH  18  20
ENDBRANCH  17  18
ENDBRANCH   1  17
TORSDOF 10
ENDMDL
MODEL 6
REMARK VINA RESULT:      -6.9      1.680      2.040
REMARK  Name = 
REMARK  11 active torsions:
REMARK  status: ('A' for Active; 'I' for Inactive)
REMARK    1  A    between atoms: C_1  and  C_2
REMARK    2  A    between atoms: N_4  and  C_5
REMARK    3  A    between atoms: C_8  and  S_9
REMARK    4  A    between atoms: S_9  and  N_12
REMARK    5  A    between atoms: N_12  and  C_13
REMARK    6  A    between atoms: C_13  and  C_14
REMARK    7  A    between atoms: C_14  and  O_16
REMARK    8  A    between atoms: O_16  and  C_17
REMARK    9  A    between atoms: C_17  and  C_18
REMARK   10  A    between atoms: N_20  and  C_21
REMARK   11  A    between atoms: C_21  and  C_22
REMARK                            x       y       z     vdW  Elec       q    Type
REMARK                         _______ _______ _______ _____ _____    ______ ____
ROOT
ATOM      1  N   UNL     1       1.855   5.302  18.211  0.00  0.00    +0.000 NA
ATOM      2  H   UNL     1       1.880   5.030  17.227  0.00  0.00    +0.000 HD
ENDROOT
BRANCH   1   3
ATOM      3  S   UNL     1       3.045   6.425  18.616  0.00  0.00    +0.000 S 
ATOM      4  O   UNL     1       3.690   6.844  17.391  0.00  0.00    +0.000 OA
ATOM      5  O   UNL     1       3.787   5.876  19.728  0.00  0.00    +0.000 OA
BRANCH   3   9
ATOM      6  C   UNL     1       0.627   9.996  20.171  0.00  0.00    +0.000 A 
ATOM      7  C   UNL     1       1.068   9.931  18.846  0.00  0.00    +0.000 A 
ATOM      8  C   UNL     1       1.795   8.839  18.376  0.00  0.00    +0.000 A 
ATOM      9  C   UNL     1       2.108   7.796  19.244  0.00  0.00    +0.000 A 
ATOM     10  C   UNL     1       1.670   7.829  20.572  0.00  0.00    +0.000 A 
ATOM     11  C   UNL     1       0.941   8.937  21.038  0.00  0.00    +0.000 A 
BRANCH   6  15
ATOM     12  C   UNL     1      -0.577  13.242  21.691  0.00  0.00    +0.000 C 
ATOM     13  C   UNL     1       0.439  12.271  21.154  0.00  0.00    +0.000 C 
ATOM     14  O   UNL     1       1.629  12.566  21.174  0.00  0.00    +0.000 OA
ATOM     15  N   UNL     1      -0.114  11.097  20.662  0.00  0.00    +0.000 N 
ATOM     16  H   UNL     1      -1.121  11.058  20.560  0.00  0.00    +0.000 HD
ENDBRANCH   6  15
ENDBRANCH   3   9
ENDBRANCH   1   3
BRANCH   1  17
ATOM     17  C   UNL     1       1.676   4.163  19.133  0.00  0.00    +0.000 C 
BRANCH  17  18
ATOM     18  C   UNL     1       1.229   2.886  18.443  0.00  0.00    +0.000 C 
ATOM     19  O   UNL     1       0.284   2.204  18.817  0.00  0.00    +0.000 OA
BRANCH  18  20
ATOM     20  O   UNL     1       2.098   2.527  17.451  0.00  0.00    +0.000 OA
BRANCH  20  21
ATOM     21  C   UNL     1       3.471   2.442  17.859  0.00  0.00    +0.000 C 
BRANCH  21  22
ATOM     22  C   UNL     1       4.294   3.389  16.983  0.00  0.00    +0.000 C 
ATOM     23  O   UNL     1       3.804   3.970  16.009  0.00  0.00    +0.000 OA
ATOM     24  N   UNL     1       5.623   3.511  17.324  0.00  0.00    +0.000 N 
ATOM     25  H   UNL     1       5.951   3.187  18.224  0.00  0.00    +0.000 HD
BRANCH  24  26
ATOM     26  C   UNL     1       6.512   4.362  16.557  0.00  0.00    +0.000 C 
BRANCH  26  27
ATOM     27  C   UNL     1       7.135   5.370  17.449  0.00  0.00    +0.000 A 
ATOM     28  C   UNL     1       7.424   6.710  17.297  0.00  0.00    +0.000 A 
ATOM     29  C   UNL     1       8.020   7.133  18.509  0.00  0.00    +0.000 A 
ATOM     30  C   UNL     1       8.065   6.023  19.320  0.00  0.00    +0.000 A 
ATOM     31  O   UNL     1       7.531   4.946  18.686  0.00  0.00    +0.000 OA
ENDBRANCH  26  27
ENDBRANCH  24  26
ENDBRANCH  21  22
ENDBRANCH  20  21
ENDBRANCH  18  20
ENDBRANCH  17  18
ENDBRANCH   1  17
TORSDOF 10
ENDMDL
MODEL 7
REMARK VINA RESULT:      -6.8      1.529      1.918
REMARK  Name = 
REMARK  11 active torsions:
REMARK  status: ('A' for Active; 'I' for Inactive)
REMARK    1  A    between atoms: C_1  and  C_2
REMARK    2  A    between atoms: N_4  and  C_5
REMARK    3  A    between atoms: C_8  and  S_9
REMARK    4  A    between atoms: S_9  and  N_12
REMARK    5  A    between atoms: N_12  and  C_13
REMARK    6  A    between atoms: C_13  and  C_14
REMARK    7  A    between atoms: C_14  and  O_16
REMARK    8  A    between atoms: O_16  and  C_17
REMARK    9  A    between atoms: C_17  and  C_18
REMARK   10  A    between atoms: N_20  and  C_21
REMARK   11  A    between atoms: C_21  and  C_22
REMARK                            x       y       z     vdW  Elec       q    Type
REMARK                         _______ _______ _______ _____ _____    ______ ____
ROOT
ATOM      1  N   UNL     1       2.088   5.181  18.188  0.00  0.00    +0.000 NA
ATOM      2  H   UNL     1       2.420   4.508  17.494  0.00  0.00    +0.000 HD
ENDROOT
BRANCH   1   3
ATOM      3  S   UNL     1       3.196   6.413  18.495  0.00  0.00    +0.000 S 
ATOM      4  O   UNL     1       3.730   6.851  17.225  0.00  0.00    +0.000 OA
ATOM      5  O   UNL     1       4.046   5.962  19.573  0.00  0.00    +0.000 OA
BRANCH   3   9
ATOM      6  C   UNL     1       0.570   9.807  20.108  0.00  0.00    +0.000 A 
ATOM      7  C   UNL     1       0.990   9.776  18.775  0.00  0.00    +0.000 A 
ATOM      8  C   UNL     1       1.781   8.738  18.287  0.00  0.00    +0.000 A 
ATOM      9  C   UNL     1       2.180   7.716  19.146  0.00  0.00    +0.000 A 
ATOM     10  C   UNL     1       1.765   7.716  20.481  0.00  0.00    +0.000 A 
ATOM     11  C   UNL     1       0.971   8.770  20.965  0.00  0.00    +0.000 A 
BRANCH   6  15
ATOM     12  C   UNL     1      -0.829  12.916  21.744  0.00  0.00    +0.000 C 
ATOM     13  C   UNL     1       0.249  12.009  21.215  0.00  0.00    +0.000 C 
ATOM     14  O   UNL     1       1.426  12.334  21.332  0.00  0.00    +0.000 OA
ATOM     15  N   UNL     1      -0.234  10.854  20.616  0.00  0.00    +0.000 N 
ATOM     16  H   UNL     1      -1.231  10.795  20.446  0.00  0.00    +0.000 HD
ENDBRANCH   6  15
ENDBRANCH   3   9
ENDBRANCH   1   3
BRANCH   1  17
ATOM     17  C   UNL     1       1.452   4.552  19.363  0.00  0.00    +0.000 C 
BRANCH  17  18
ATOM     18  C   UNL     1       2.190   3.324  19.868  0.00  0.00    +0.000 C 
ATOM     19  O   UNL     1       2.549   3.175  21.030  0.00  0.00    +0.000 OA
BRANCH  18  20
ATOM     20  O   UNL     1       2.526   2.487  18.842  0.00  0.00    +0.000 OA
BRANCH  20  21
ATOM     21  C   UNL     1       3.935   2.258  18.691  0.00  0.00    +0.000 C 
BRANCH  21  22
ATOM     22  C   UNL     1       4.451   3.152  17.561  0.00  0.00    +0.000 C 
ATOM     23  O   UNL     1       3.799   3.339  16.528  0.00  0.00    +0.000 OA
ATOM     24  N   UNL     1       5.703   3.692  17.754  0.00  0.00    +0.000 N 
ATOM     25  H   UNL     1       6.126   3.686  18.672  0.00  0.00    +0.000 HD
BRANCH  24  26
ATOM     26  C   UNL     1       6.310   4.538  16.744  0.00  0.00    +0.000 C 
BRANCH  26  27
ATOM     27  C   UNL     1       7.005   5.675  17.396  0.00  0.00    +0.000 A 
ATOM     28  C   UNL     1       7.656   5.812  18.605  0.00  0.00    +0.000 A 
ATOM     29  C   UNL     1       8.119   7.148  18.663  0.00  0.00    +0.000 A 
ATOM     30  C   UNL     1       7.714   7.744  17.491  0.00  0.00    +0.000 A 
ATOM     31  O   UNL     1       7.034   6.859  16.715  0.00  0.00    +0.000 OA
ENDBRANCH  26  27
ENDBRANCH  24  26
ENDBRANCH  21  22
ENDBRANCH  20  21
ENDBRANCH  18  20
ENDBRANCH  17  18
ENDBRANCH   1  17
TORSDOF 10
ENDMDL
MODEL 8
REMARK VINA RESULT:      -6.7      3.116      4.483
REMARK  Name = 
REMARK  11 active torsions:
REMARK  status: ('A' for Active; 'I' for Inactive)
REMARK    1  A    between atoms: C_1  and  C_2
REMARK    2  A    between atoms: N_4  and  C_5
REMARK    3  A    between atoms: C_8  and  S_9
REMARK    4  A    between atoms: S_9  and  N_12
REMARK    5  A    between atoms: N_12  and  C_13
REMARK    6  A    between atoms: C_13  and  C_14
REMARK    7  A    between atoms: C_14  and  O_16
REMARK    8  A    between atoms: O_16  and  C_17
REMARK    9  A    between atoms: C_17  and  C_18
REMARK   10  A    between atoms: N_20  and  C_21
REMARK   11  A    between atoms: C_21  and  C_22
REMARK                            x       y       z     vdW  Elec       q    Type
REMARK                         _______ _______ _______ _____ _____    ______ ____
ROOT
ATOM      1  N   UNL     1       3.786   5.812  19.723  0.00  0.00    +0.000 NA
ATOM      2  H   UNL     1       3.145   5.822  20.518  0.00  0.00    +0.000 HD
ENDROOT
BRANCH   1   3
ATOM      3  S   UNL     1       3.085   6.386  18.302  0.00  0.00    +0.000 S 
ATOM      4  O   UNL     1       2.129   5.398  17.854  0.00  0.00    +0.000 OA
ATOM      5  O   UNL     1       4.159   6.857  17.458  0.00  0.00    +0.000 OA
BRANCH   3   9
ATOM      6  C   UNL     1       0.771  10.110  19.639  0.00  0.00    +0.000 A 
ATOM      7  C   UNL     1       1.233   9.967  18.328  0.00  0.00    +0.000 A 
ATOM      8  C   UNL     1       1.928   8.829  17.924  0.00  0.00    +0.000 A 
ATOM      9  C   UNL     1       2.187   7.818  18.847  0.00  0.00    +0.000 A 
ATOM     10  C   UNL     1       1.727   7.930  20.163  0.00  0.00    +0.000 A 
ATOM     11  C   UNL     1       1.030   9.084  20.561  0.00  0.00    +0.000 A 
BRANCH   6  15
ATOM     12  C   UNL     1      -1.698  12.921  20.189  0.00  0.00    +0.000 C 
ATOM     13  C   UNL     1      -1.218  11.601  19.650  0.00  0.00    +0.000 C 
ATOM     14  O   UNL     1      -1.953  10.939  18.924  0.00  0.00    +0.000 OA
ATOM     15  N   UNL     1       0.062  11.260  20.063  0.00  0.00    +0.000 N 
ATOM     16  H   UNL     1       0.487  11.822  20.791  0.00  0.00    +0.000 HD
ENDBRANCH   6  15
ENDBRANCH   3   9
ENDBRANCH   1   3
BRANCH   1  17
ATOM     17  C   UNL     1       4.576   4.569  19.619  0.00  0.00    +0.000 C 
BRANCH  17  18
ATOM     18  C   UNL     1       5.900   4.749  18.897  0.00  0.00    +0.000 C 
ATOM     19  O   UNL     1       6.206   4.151  17.873  0.00  0.00    +0.000 OA
BRANCH  18  20
ATOM     20  O   UNL     1       6.752   5.544  19.611  0.00  0.00    +0.000 OA
BRANCH  20  21
ATOM     21  C   UNL     1       8.019   5.783  18.980  0.00  0.00    +0.000 C 
BRANCH  21  22
ATOM     22  C   UNL     1       7.926   7.092  18.192  0.00  0.00    +0.000 C 
ATOM     23  O   UNL     1       7.433   7.139  17.060  0.00  0.00    +0.000 OA
ATOM     24  N   UNL     1       8.469   8.197  18.808  0.00  0.00    +0.000 N 
ATOM     25  H   UNL     1       8.686   8.177  19.795  0.00  0.00    +0.000 HD
BRANCH  24  26
ATOM     26  C   UNL     1       8.463   9.491  18.153  0.00  0.00    +0.000 C 
BRANCH  26  27
ATOM     27  C   UNL     1       9.355  10.425  18.881  0.00  0.00    +0.000 A 
ATOM     28  C   UNL     1      10.416  11.215  18.485  0.00  0.00    +0.000 A 
ATOM     29  C   UNL     1      10.868  11.891  19.643  0.00  0.00    +0.000 A 
ATOM     30  C   UNL     1      10.061  11.466  20.673  0.00  0.00    +0.000 A 
ATOM     31  O   UNL     1       9.140  10.575  20.221  0.00  0.00    +0.000 OA
ENDBRANCH  26  27
ENDBRANCH  24  26
ENDBRANCH  21  22
ENDBRANCH  20  21
ENDBRANCH  18  20
ENDBRANCH  17  18
ENDBRANCH   1  17
TORSDOF 10
ENDMDL
MODEL 9
REMARK VINA RESULT:      -6.7      1.419      4.197
REMARK  Name = 
REMARK  11 active torsions:
REMARK  status: ('A' for Active; 'I' for Inactive)
REMARK    1  A    between atoms: C_1  and  C_2
REMARK    2  A    between atoms: N_4  and  C_5
REMARK    3  A    between atoms: C_8  and  S_9
REMARK    4  A    between atoms: S_9  and  N_12
REMARK    5  A    between atoms: N_12  and  C_13
REMARK    6  A    between atoms: C_13  and  C_14
REMARK    7  A    between atoms: C_14  and  O_16
REMARK    8  A    between atoms: O_16  and  C_17
REMARK    9  A    between atoms: C_17  and  C_18
REMARK   10  A    between atoms: N_20  and  C_21
REMARK   11  A    between atoms: C_21  and  C_22
REMARK                            x       y       z     vdW  Elec       q    Type
REMARK                         _______ _______ _______ _____ _____    ______ ____
ROOT
ATOM      1  N   UNL     1       4.126   6.816  17.186  0.00  0.00    +0.000 NA
ATOM      2  H   UNL     1       3.688   7.347  16.432  0.00  0.00    +0.000 HD
ENDROOT
BRANCH   1   3
ATOM      3  S   UNL     1       3.026   6.300  18.354  0.00  0.00    +0.000 S 
ATOM      4  O   UNL     1       3.782   5.840  19.498  0.00  0.00    +0.000 OA
ATOM      5  O   UNL     1       2.057   5.462  17.685  0.00  0.00    +0.000 OA
BRANCH   3   9
ATOM      6  C   UNL     1       0.871  10.192  19.460  0.00  0.00    +0.000 A 
ATOM      7  C   UNL     1       1.310   9.943  18.157  0.00  0.00    +0.000 A 
ATOM      8  C   UNL     1       1.957   8.754  17.823  0.00  0.00    +0.000 A 
ATOM      9  C   UNL     1       2.189   7.798  18.810  0.00  0.00    +0.000 A 
ATOM     10  C   UNL     1       1.751   8.017  20.120  0.00  0.00    +0.000 A 
ATOM     11  C   UNL     1       1.103   9.221  20.447  0.00  0.00    +0.000 A 
BRANCH   6  15
ATOM     12  C   UNL     1      -0.233  13.769  19.993  0.00  0.00    +0.000 C 
ATOM     13  C   UNL     1       0.594  12.662  19.400  0.00  0.00    +0.000 C 
ATOM     14  O   UNL     1       1.503  12.933  18.622  0.00  0.00    +0.000 OA
ATOM     15  N   UNL     1       0.211  11.393  19.812  0.00  0.00    +0.000 N 
ATOM     16  H   UNL     1      -0.658  11.309  20.327  0.00  0.00    +0.000 HD
ENDBRANCH   6  15
ENDBRANCH   3   9
ENDBRANCH   1   3
BRANCH   1  17
ATOM     17  C   UNL     1       5.383   7.415  17.677  0.00  0.00    +0.000 C 
BRANCH  17  18
ATOM     18  C   UNL     1       6.610   6.566  17.398  0.00  0.00    +0.000 C 
ATOM     19  O   UNL     1       7.451   6.840  16.551  0.00  0.00    +0.000 OA
BRANCH  18  20
ATOM     20  O   UNL     1       6.578   5.397  18.105  0.00  0.00    +0.000 OA
BRANCH  20  21
ATOM     21  C   UNL     1       6.665   4.209  17.303  0.00  0.00    +0.000 C 
BRANCH  21  22
ATOM     22  C   UNL     1       5.250   3.670  17.084  0.00  0.00    +0.000 C 
ATOM     23  O   UNL     1       4.593   3.948  16.074  0.00  0.00    +0.000 OA
ATOM     24  N   UNL     1       4.743   2.897  18.105  0.00  0.00    +0.000 N 
ATOM     25  H   UNL     1       5.357   2.526  18.817  0.00  0.00    +0.000 HD
BRANCH  24  26
ATOM     26  C   UNL     1       3.404   2.346  18.025  0.00  0.00    +0.000 C 
BRANCH  26  27
ATOM     27  C   UNL     1       2.706   2.537  19.320  0.00  0.00    +0.000 A 
ATOM     28  C   UNL     1       1.376   2.667  19.663  0.00  0.00    +0.000 A 
ATOM     29  C   UNL     1       1.336   2.822  21.069  0.00  0.00    +0.000 A 
ATOM     30  C   UNL     1       2.643   2.785  21.494  0.00  0.00    +0.000 A 
ATOM     31  O   UNL     1       3.484   2.614  20.440  0.00  0.00    +0.000 OA
ENDBRANCH  26  27
ENDBRANCH  24  26
ENDBRANCH  21  22
ENDBRANCH  20  21
ENDBRANCH  18  20
ENDBRANCH  17  18
ENDBRANCH   1  17
TORSDOF 10
ENDMDL
