MODEL 1
REMARK VINA RESULT:      -8.6      0.000      0.000
REMARK  Name = 
REMARK  6 active torsions:
REMARK  status: ('A' for Active; 'I' for Inactive)
REMARK    1  A    between atoms: C_2  and  C_3
REMARK    2  A    between atoms: C_3  and  C_4
REMARK    3  A    between atoms: N_12  and  C_13
REMARK    4  A    between atoms: C_13  and  C_14
REMARK    5  A    between atoms: N_25  and  C_26
REMARK    6  A    between atoms: C_31  and  O_32
REMARK                            x       y       z     vdW  Elec       q    Type
REMARK                         _______ _______ _______ _____ _____    ______ ____
ROOT
ATOM      1  C   UNL     1       1.411  10.963  19.560  0.00  0.00    +0.000 A 
ATOM      2  C   UNL     1       2.103   9.959  18.836  0.00  0.00    +0.000 A 
ATOM      3  C   UNL     1       1.999   8.650  19.264  0.00  0.00    +0.000 A 
ATOM      4  C   UNL     1       1.263   8.308  20.390  0.00  0.00    +0.000 A 
ATOM      5  C   UNL     1       0.612   9.266  21.159  0.00  0.00    +0.000 A 
ATOM      6  C   UNL     1      -0.076   8.899  22.331  0.00  0.00    +0.000 A 
ATOM      7  C   UNL     1      -0.726   9.850  23.105  0.00  0.00    +0.000 A 
ATOM      8  C   UNL     1      -0.729  11.174  22.695  0.00  0.00    +0.000 A 
ATOM      9  C   UNL     1      -0.062  11.548  21.523  0.00  0.00    +0.000 A 
ATOM     10  C   UNL     1       0.655  10.618  20.735  0.00  0.00    +0.000 A 
ATOM     11  C   UNL     1       1.277   6.832  20.580  0.00  0.00    +0.000 C 
ATOM     12  N   UNL     1       2.065   6.355  19.463  0.00  0.00    +0.000 N 
ATOM     13  C   UNL     1       2.561   7.404  18.695  0.00  0.00    +0.000 C 
ATOM     14  O   UNL     1       3.313   7.351  17.738  0.00  0.00    +0.000 OA
ENDROOT
BRANCH  12  15
ATOM     15  C   UNL     1       2.426   4.939  19.317  0.00  0.00    +0.000 C 
ATOM     16  C   UNL     1       1.618   4.060  20.285  0.00  0.00    +0.000 C 
ATOM     17  C   UNL     1       2.018   2.587  20.176  0.00  0.00    +0.000 C 
ATOM     18  C   UNL     1       1.942   2.054  18.747  0.00  0.00    +0.000 C 
ATOM     19  C   UNL     1       2.712   2.938  17.765  0.00  0.00    +0.000 C 
ATOM     20  C   UNL     1       2.293   4.408  17.858  0.00  0.00    +0.000 C 
BRANCH  20  21
ATOM     21  O   UNL     1       0.954   4.523  17.350  0.00  0.00    +0.000 OA
ATOM     22  H   UNL     1       0.657   3.651  17.042  0.00  0.00    +0.000 HD
ENDBRANCH  20  21
ENDBRANCH  12  15
BRANCH   1  23
ATOM     23  C   UNL     1       1.470  12.394  19.037  0.00  0.00    +0.000 C 
BRANCH  23  27
ATOM     24  C   UNL     1       1.991  16.012  18.916  0.00  0.00    +0.000 C 
ATOM     25  C   UNL     1       2.478  15.029  17.820  0.00  0.00    +0.000 C 
ATOM     26  C   UNL     1       3.321  13.886  18.379  0.00  0.00    +0.000 C 
ATOM     27  N   UNL     1       2.655  13.168  19.463  0.00  0.00    +0.000 NA
ATOM     28  C   UNL     1       2.353  14.085  20.567  0.00  0.00    +0.000 C 
ATOM     29  C   UNL     1       1.440  15.235  20.144  0.00  0.00    +0.000 C 
BRANCH  24  30
ATOM     30  C   UNL     1       0.919  16.928  18.305  0.00  0.00    +0.000 A 
ATOM     31  C   UNL     1      -0.377  16.958  18.830  0.00  0.00    +0.000 A 
ATOM     32  C   UNL     1      -1.322  17.817  18.274  0.00  0.00    +0.000 A 
ATOM     33  C   UNL     1      -0.961  18.630  17.210  0.00  0.00    +0.000 A 
ATOM     34  C   UNL     1       0.339  18.553  16.747  0.00  0.00    +0.000 A 
ATOM     35  N   UNL     1       1.276  17.731  17.270  0.00  0.00    +0.000 NA
ENDBRANCH  24  30
BRANCH  24  37
ATOM     36  N   UNL     1       4.013  17.503  19.751  0.00  0.00    +0.000 NA
ATOM     37  C   UNL     1       3.135  16.843  19.374  0.00  0.00    +0.000 C 
ENDBRANCH  24  37
ENDBRANCH  23  27
ENDBRANCH   1  23
TORSDOF 6
ENDMDL
MODEL 2
REMARK VINA RESULT:      -8.6      4.323     10.342
REMARK  Name = 
REMARK  6 active torsions:
REMARK  status: ('A' for Active; 'I' for Inactive)
REMARK    1  A    between atoms: C_2  and  C_3
REMARK    2  A    between atoms: C_3  and  C_4
REMARK    3  A    between atoms: N_12  and  C_13
REMARK    4  A    between atoms: C_13  and  C_14
REMARK    5  A    between atoms: N_25  and  C_26
REMARK    6  A    between atoms: C_31  and  O_32
REMARK                            x       y       z     vdW  Elec       q    Type
REMARK                         _______ _______ _______ _____ _____    ______ ____
ROOT
ATOM      1  C   UNL     1       3.681   5.373  18.062  0.00  0.00    +0.000 A 
ATOM      2  C   UNL     1       3.303   6.692  17.703  0.00  0.00    +0.000 A 
ATOM      3  C   UNL     1       2.483   7.397  18.562  0.00  0.00    +0.000 A 
ATOM      4  C   UNL     1       2.008   6.837  19.739  0.00  0.00    +0.000 A 
ATOM      5  C   UNL     1       2.312   5.530  20.105  0.00  0.00    +0.000 A 
ATOM      6  C   UNL     1       1.766   4.966  21.272  0.00  0.00    +0.000 A 
ATOM      7  C   UNL     1       2.062   3.661  21.642  0.00  0.00    +0.000 A 
ATOM      8  C   UNL     1       2.939   2.918  20.868  0.00  0.00    +0.000 A 
ATOM      9  C   UNL     1       3.500   3.474  19.713  0.00  0.00    +0.000 A 
ATOM     10  C   UNL     1       3.184   4.781  19.275  0.00  0.00    +0.000 A 
ATOM     11  C   UNL     1       1.204   7.837  20.493  0.00  0.00    +0.000 C 
ATOM     12  N   UNL     1       1.269   9.020  19.660  0.00  0.00    +0.000 N 
ATOM     13  C   UNL     1       1.968   8.783  18.481  0.00  0.00    +0.000 C 
ATOM     14  O   UNL     1       2.142   9.537  17.540  0.00  0.00    +0.000 OA
ENDROOT
BRANCH  12  15
ATOM     15  C   UNL     1       0.513  10.237  19.980  0.00  0.00    +0.000 C 
ATOM     16  C   UNL     1       1.371  11.494  19.762  0.00  0.00    +0.000 C 
ATOM     17  C   UNL     1       0.610  12.768  20.137  0.00  0.00    +0.000 C 
ATOM     18  C   UNL     1      -0.736  12.886  19.428  0.00  0.00    +0.000 C 
ATOM     19  C   UNL     1      -1.588  11.628  19.605  0.00  0.00    +0.000 C 
ATOM     20  C   UNL     1      -0.834  10.357  19.206  0.00  0.00    +0.000 C 
BRANCH  20  21
ATOM     21  O   UNL     1      -0.651  10.375  17.781  0.00  0.00    +0.000 OA
ATOM     22  H   UNL     1       0.288  10.528  17.585  0.00  0.00    +0.000 HD
ENDBRANCH  20  21
ENDBRANCH  12  15
BRANCH   1  23
ATOM     23  C   UNL     1       4.647   4.629  17.144  0.00  0.00    +0.000 C 
BRANCH  23  27
ATOM     24  C   UNL     1       6.511   4.561  13.999  0.00  0.00    +0.000 C 
ATOM     25  C   UNL     1       6.874   3.705  15.241  0.00  0.00    +0.000 C 
ATOM     26  C   UNL     1       7.029   4.537  16.510  0.00  0.00    +0.000 C 
ATOM     27  N   UNL     1       5.867   5.380  16.781  0.00  0.00    +0.000 NA
ATOM     28  C   UNL     1       5.641   6.304  15.665  0.00  0.00    +0.000 C 
ATOM     29  C   UNL     1       5.388   5.579  14.343  0.00  0.00    +0.000 C 
BRANCH  24  30
ATOM     30  C   UNL     1       6.082   3.616  12.866  0.00  0.00    +0.000 A 
ATOM     31  C   UNL     1       4.769   3.631  12.383  0.00  0.00    +0.000 A 
ATOM     32  C   UNL     1       4.414   2.783  11.337  0.00  0.00    +0.000 A 
ATOM     33  C   UNL     1       5.369   1.938  10.791  0.00  0.00    +0.000 A 
ATOM     34  C   UNL     1       6.648   1.980  11.313  0.00  0.00    +0.000 A 
ATOM     35  N   UNL     1       7.020   2.797  12.325  0.00  0.00    +0.000 NA
ENDBRANCH  24  30
BRANCH  24  37
ATOM     36  N   UNL     1       8.639   5.919  13.198  0.00  0.00    +0.000 NA
ATOM     37  C   UNL     1       7.708   5.327  13.564  0.00  0.00    +0.000 C 
ENDBRANCH  24  37
ENDBRANCH  23  27
ENDBRANCH   1  23
TORSDOF 6
ENDMDL
MODEL 3
REMARK VINA RESULT:      -8.5      2.150      3.166
REMARK  Name = 
REMARK  6 active torsions:
REMARK  status: ('A' for Active; 'I' for Inactive)
REMARK    1  A    between atoms: C_2  and  C_3
REMARK    2  A    between atoms: C_3  and  C_4
REMARK    3  A    between atoms: N_12  and  C_13
REMARK    4  A    between atoms: C_13  and  C_14
REMARK    5  A    between atoms: N_25  and  C_26
REMARK    6  A    between atoms: C_31  and  O_32
REMARK                            x       y       z     vdW  Elec       q    Type
REMARK                         _______ _______ _______ _____ _____    ______ ____
ROOT
ATOM      1  C   UNL     1       0.347  11.114  19.440  0.00  0.00    +0.000 A 
ATOM      2  C   UNL     1       1.106  10.413  18.469  0.00  0.00    +0.000 A 
ATOM      3  C   UNL     1       1.597   9.164  18.794  0.00  0.00    +0.000 A 
ATOM      4  C   UNL     1       1.387   8.603  20.046  0.00  0.00    +0.000 A 
ATOM      5  C   UNL     1       0.694   9.277  21.045  0.00  0.00    +0.000 A 
ATOM      6  C   UNL     1       0.550   8.711  22.326  0.00  0.00    +0.000 A 
ATOM      7  C   UNL     1      -0.138   9.379  23.330  0.00  0.00    +0.000 A 
ATOM      8  C   UNL     1      -0.724  10.604  23.052  0.00  0.00    +0.000 A 
ATOM      9  C   UNL     1      -0.601  11.169  21.778  0.00  0.00    +0.000 A 
ATOM     10  C   UNL     1       0.135  10.544  20.744  0.00  0.00    +0.000 A 
ATOM     11  C   UNL     1       1.972   7.235  20.097  0.00  0.00    +0.000 C 
ATOM     12  N   UNL     1       2.518   7.051  18.769  0.00  0.00    +0.000 N 
ATOM     13  C   UNL     1       2.369   8.193  17.987  0.00  0.00    +0.000 C 
ATOM     14  O   UNL     1       2.780   8.395  16.858  0.00  0.00    +0.000 OA
ENDROOT
BRANCH  12  15
ATOM     15  C   UNL     1       3.294   5.858  18.406  0.00  0.00    +0.000 C 
ATOM     16  C   UNL     1       4.082   5.324  19.613  0.00  0.00    +0.000 C 
ATOM     17  C   UNL     1       4.932   4.108  19.237  0.00  0.00    +0.000 C 
ATOM     18  C   UNL     1       4.122   3.001  18.569  0.00  0.00    +0.000 C 
ATOM     19  C   UNL     1       3.303   3.523  17.387  0.00  0.00    +0.000 C 
ATOM     20  C   UNL     1       2.435   4.724  17.772  0.00  0.00    +0.000 C 
BRANCH  20  21
ATOM     21  O   UNL     1       1.397   4.261  18.650  0.00  0.00    +0.000 OA
ATOM     22  H   UNL     1       0.575   4.735  18.445  0.00  0.00    +0.000 HD
ENDBRANCH  20  21
ENDBRANCH  12  15
BRANCH   1  23
ATOM     23  C   UNL     1      -0.254  12.459  19.046  0.00  0.00    +0.000 C 
BRANCH  23  27
ATOM     24  C   UNL     1       0.737  15.220  21.232  0.00  0.00    +0.000 C 
ATOM     25  C   UNL     1      -0.344  15.335  20.125  0.00  0.00    +0.000 C 
ATOM     26  C   UNL     1       0.154  14.876  18.758  0.00  0.00    +0.000 C 
ATOM     27  N   UNL     1       0.728  13.532  18.786  0.00  0.00    +0.000 NA
ATOM     28  C   UNL     1       1.863  13.486  19.716  0.00  0.00    +0.000 C 
ATOM     29  C   UNL     1       1.465  13.849  21.146  0.00  0.00    +0.000 C 
BRANCH  24  30
ATOM     30  C   UNL     1       0.057  15.408  22.597  0.00  0.00    +0.000 A 
ATOM     31  C   UNL     1      -1.011  14.589  22.982  0.00  0.00    +0.000 A 
ATOM     32  C   UNL     1      -1.591  14.765  24.235  0.00  0.00    +0.000 A 
ATOM     33  C   UNL     1      -1.100  15.747  25.082  0.00  0.00    +0.000 A 
ATOM     34  C   UNL     1      -0.040  16.515  24.639  0.00  0.00    +0.000 A 
ATOM     35  N   UNL     1       0.544  16.363  23.430  0.00  0.00    +0.000 NA
ENDBRANCH  24  30
BRANCH  24  37
ATOM     36  N   UNL     1       2.536  17.127  20.869  0.00  0.00    +0.000 NA
ATOM     37  C   UNL     1       1.749  16.290  21.043  0.00  0.00    +0.000 C 
ENDBRANCH  24  37
ENDBRANCH  23  27
ENDBRANCH   1  23
TORSDOF 6
ENDMDL
MODEL 4
REMARK VINA RESULT:      -8.5      4.307     10.333
REMARK  Name = 
REMARK  6 active torsions:
REMARK  status: ('A' for Active; 'I' for Inactive)
REMARK    1  A    between atoms: C_2  and  C_3
REMARK    2  A    between atoms: C_3  and  C_4
REMARK    3  A    between atoms: N_12  and  C_13
REMARK    4  A    between atoms: C_13  and  C_14
REMARK    5  A    between atoms: N_25  and  C_26
REMARK    6  A    between atoms: C_31  and  O_32
REMARK                            x       y       z     vdW  Elec       q    Type
REMARK                         _______ _______ _______ _____ _____    ______ ____
ROOT
ATOM      1  C   UNL     1       3.566   5.277  18.129  0.00  0.00    +0.000 A 
ATOM      2  C   UNL     1       3.188   6.624  17.895  0.00  0.00    +0.000 A 
ATOM      3  C   UNL     1       2.447   7.276  18.860  0.00  0.00    +0.000 A 
ATOM      4  C   UNL     1       2.048   6.638  20.026  0.00  0.00    +0.000 A 
ATOM      5  C   UNL     1       2.353   5.304  20.274  0.00  0.00    +0.000 A 
ATOM      6  C   UNL     1       1.882   4.664  21.435  0.00  0.00    +0.000 A 
ATOM      7  C   UNL     1       2.180   3.332  21.688  0.00  0.00    +0.000 A 
ATOM      8  C   UNL     1       2.983   2.635  20.799  0.00  0.00    +0.000 A 
ATOM      9  C   UNL     1       3.470   3.265  19.649  0.00  0.00    +0.000 A 
ATOM     10  C   UNL     1       3.148   4.605  19.330  0.00  0.00    +0.000 A 
ATOM     11  C   UNL     1       1.320   7.592  20.907  0.00  0.00    +0.000 C 
ATOM     12  N   UNL     1       1.348   8.831  20.159  0.00  0.00    +0.000 N 
ATOM     13  C   UNL     1       1.954   8.670  18.916  0.00  0.00    +0.000 C 
ATOM     14  O   UNL     1       2.072   9.489  18.021  0.00  0.00    +0.000 OA
ENDROOT
BRANCH  12  15
ATOM     15  C   UNL     1       0.639  10.032  20.619  0.00  0.00    +0.000 C 
ATOM     16  C   UNL     1      -0.536  10.371  19.689  0.00  0.00    +0.000 C 
ATOM     17  C   UNL     1      -1.254  11.648  20.130  0.00  0.00    +0.000 C 
ATOM     18  C   UNL     1      -1.696  11.607  21.591  0.00  0.00    +0.000 C 
ATOM     19  C   UNL     1      -0.545  11.236  22.527  0.00  0.00    +0.000 C 
ATOM     20  C   UNL     1       0.157   9.944  22.097  0.00  0.00    +0.000 C 
BRANCH  20  21
ATOM     21  O   UNL     1      -0.749   8.851  22.318  0.00  0.00    +0.000 OA
ATOM     22  H   UNL     1      -1.294   8.727  21.524  0.00  0.00    +0.000 HD
ENDBRANCH  20  21
ENDBRANCH  12  15
BRANCH   1  23
ATOM     23  C   UNL     1       4.448   4.589  17.092  0.00  0.00    +0.000 C 
BRANCH  23  27
ATOM     24  C   UNL     1       6.362   4.512  13.976  0.00  0.00    +0.000 C 
ATOM     25  C   UNL     1       6.674   3.623  15.208  0.00  0.00    +0.000 C 
ATOM     26  C   UNL     1       6.837   4.426  16.494  0.00  0.00    +0.000 C 
ATOM     27  N   UNL     1       5.699   5.303  16.762  0.00  0.00    +0.000 NA
ATOM     28  C   UNL     1       5.523   6.255  15.659  0.00  0.00    +0.000 C 
ATOM     29  C   UNL     1       5.268   5.562  14.321  0.00  0.00    +0.000 C 
BRANCH  24  30
ATOM     30  C   UNL     1       5.920   3.603  12.819  0.00  0.00    +0.000 A 
ATOM     31  C   UNL     1       4.625   3.691  12.296  0.00  0.00    +0.000 A 
ATOM     32  C   UNL     1       4.259   2.873  11.230  0.00  0.00    +0.000 A 
ATOM     33  C   UNL     1       5.186   1.985  10.704  0.00  0.00    +0.000 A 
ATOM     34  C   UNL     1       6.448   1.956  11.265  0.00  0.00    +0.000 A 
ATOM     35  N   UNL     1       6.830   2.741  12.297  0.00  0.00    +0.000 NA
ENDBRANCH  24  30
BRANCH  24  37
ATOM     36  N   UNL     1       8.540   5.840  13.267  0.00  0.00    +0.000 NA
ATOM     37  C   UNL     1       7.590   5.245  13.574  0.00  0.00    +0.000 C 
ENDBRANCH  24  37
ENDBRANCH  23  27
ENDBRANCH   1  23
TORSDOF 6
ENDMDL
MODEL 5
REMARK VINA RESULT:      -8.5      0.968      1.387
REMARK  Name = 
REMARK  6 active torsions:
REMARK  status: ('A' for Active; 'I' for Inactive)
REMARK    1  A    between atoms: C_2  and  C_3
REMARK    2  A    between atoms: C_3  and  C_4
REMARK    3  A    between atoms: N_12  and  C_13
REMARK    4  A    between atoms: C_13  and  C_14
REMARK    5  A    between atoms: N_25  and  C_26
REMARK    6  A    between atoms: C_31  and  O_32
REMARK                            x       y       z     vdW  Elec       q    Type
REMARK                         _______ _______ _______ _____ _____    ______ ____
ROOT
ATOM      1  C   UNL     1       1.376  11.057  19.508  0.00  0.00    +0.000 A 
ATOM      2  C   UNL     1       2.055  10.060  18.764  0.00  0.00    +0.000 A 
ATOM      3  C   UNL     1       1.961   8.747  19.183  0.00  0.00    +0.000 A 
ATOM      4  C   UNL     1       1.246   8.396  20.319  0.00  0.00    +0.000 A 
ATOM      5  C   UNL     1       0.607   9.347  21.108  0.00  0.00    +0.000 A 
ATOM      6  C   UNL     1      -0.058   8.971  22.289  0.00  0.00    +0.000 A 
ATOM      7  C   UNL     1      -0.695   9.915  23.083  0.00  0.00    +0.000 A 
ATOM      8  C   UNL     1      -0.707  11.242  22.683  0.00  0.00    +0.000 A 
ATOM      9  C   UNL     1      -0.062  11.626  21.502  0.00  0.00    +0.000 A 
ATOM     10  C   UNL     1       0.641  10.703  20.693  0.00  0.00    +0.000 A 
ATOM     11  C   UNL     1       1.264   6.919  20.497  0.00  0.00    +0.000 C 
ATOM     12  N   UNL     1       2.033   6.451  19.363  0.00  0.00    +0.000 N 
ATOM     13  C   UNL     1       2.513   7.506  18.594  0.00  0.00    +0.000 C 
ATOM     14  O   UNL     1       3.248   7.462  17.623  0.00  0.00    +0.000 OA
ENDROOT
BRANCH  12  15
ATOM     15  C   UNL     1       2.392   5.036  19.199  0.00  0.00    +0.000 C 
ATOM     16  C   UNL     1       2.045   4.539  17.786  0.00  0.00    +0.000 C 
ATOM     17  C   UNL     1       2.371   3.054  17.616  0.00  0.00    +0.000 C 
ATOM     18  C   UNL     1       3.813   2.715  17.986  0.00  0.00    +0.000 C 
ATOM     19  C   UNL     1       4.184   3.235  19.375  0.00  0.00    +0.000 C 
ATOM     20  C   UNL     1       3.881   4.727  19.535  0.00  0.00    +0.000 C 
BRANCH  20  21
ATOM     21  O   UNL     1       4.797   5.460  18.707  0.00  0.00    +0.000 OA
ATOM     22  H   UNL     1       4.699   6.408  18.890  0.00  0.00    +0.000 HD
ENDBRANCH  20  21
ENDBRANCH  12  15
BRANCH   1  23
ATOM     23  C   UNL     1       1.423  12.493  18.994  0.00  0.00    +0.000 C 
BRANCH  23  27
ATOM     24  C   UNL     1       1.895  16.119  18.963  0.00  0.00    +0.000 C 
ATOM     25  C   UNL     1       2.376  15.172  17.833  0.00  0.00    +0.000 C 
ATOM     26  C   UNL     1       3.243  14.027  18.347  0.00  0.00    +0.000 C 
ATOM     27  N   UNL     1       2.605  13.271  19.421  0.00  0.00    +0.000 NA
ATOM     28  C   UNL     1       2.310  14.154  20.556  0.00  0.00    +0.000 C 
ATOM     29  C   UNL     1       1.375  15.302  20.179  0.00  0.00    +0.000 C 
BRANCH  24  30
ATOM     30  C   UNL     1       0.801  17.037  18.396  0.00  0.00    +0.000 A 
ATOM     31  C   UNL     1       1.046  17.827  17.268  0.00  0.00    +0.000 A 
ATOM     32  C   UNL     1       0.027  18.630  16.759  0.00  0.00    +0.000 A 
ATOM     33  C   UNL     1      -1.213  18.631  17.379  0.00  0.00    +0.000 A 
ATOM     34  C   UNL     1      -1.387  17.821  18.485  0.00  0.00    +0.000 A 
ATOM     35  N   UNL     1      -0.417  17.030  18.997  0.00  0.00    +0.000 NA
ENDBRANCH  24  30
BRANCH  24  37
ATOM     36  N   UNL     1       3.916  17.626  19.772  0.00  0.00    +0.000 NA
ATOM     37  C   UNL     1       3.035  16.953  19.425  0.00  0.00    +0.000 C 
ENDBRANCH  24  37
ENDBRANCH  23  27
ENDBRANCH   1  23
TORSDOF 6
ENDMDL
MODEL 6
REMARK VINA RESULT:      -8.4      0.766      1.011
REMARK  Name = 
REMARK  6 active torsions:
REMARK  status: ('A' for Active; 'I' for Inactive)
REMARK    1  A    between atoms: C_2  and  C_3
REMARK    2  A    between atoms: C_3  and  C_4
REMARK    3  A    between atoms: N_12  and  C_13
REMARK    4  A    between atoms: C_13  and  C_14
REMARK    5  A    between atoms: N_25  and  C_26
REMARK    6  A    between atoms: C_31  and  O_32
REMARK                            x       y       z     vdW  Elec       q    Type
REMARK                         _______ _______ _______ _____ _____    ______ ____
ROOT
ATOM      1  C   UNL     1       1.304  10.947  19.424  0.00  0.00    +0.000 A 
ATOM      2  C   UNL     1       2.033   9.992  18.671  0.00  0.00    +0.000 A 
ATOM      3  C   UNL     1       2.036   8.680  19.100  0.00  0.00    +0.000 A 
ATOM      4  C   UNL     1       1.371   8.290  20.254  0.00  0.00    +0.000 A 
ATOM      5  C   UNL     1       0.687   9.202  21.050  0.00  0.00    +0.000 A 
ATOM      6  C   UNL     1       0.074   8.790  22.249  0.00  0.00    +0.000 A 
ATOM      7  C   UNL     1      -0.608   9.695  23.050  0.00  0.00    +0.000 A 
ATOM      8  C   UNL     1      -0.718  11.015  22.643  0.00  0.00    +0.000 A 
ATOM      9  C   UNL     1      -0.125  11.433  21.446  0.00  0.00    +0.000 A 
ATOM     10  C   UNL     1       0.620  10.553  20.627  0.00  0.00    +0.000 A 
ATOM     11  C   UNL     1       1.492   6.818  20.440  0.00  0.00    +0.000 C 
ATOM     12  N   UNL     1       2.266   6.395  19.292  0.00  0.00    +0.000 N 
ATOM     13  C   UNL     1       2.657   7.474  18.507  0.00  0.00    +0.000 C 
ATOM     14  O   UNL     1       3.373   7.472  17.520  0.00  0.00    +0.000 OA
ENDROOT
BRANCH  12  15
ATOM     15  C   UNL     1       2.716   5.006  19.129  0.00  0.00    +0.000 C 
ATOM     16  C   UNL     1       2.122   4.101  20.220  0.00  0.00    +0.000 C 
ATOM     17  C   UNL     1       2.621   2.660  20.090  0.00  0.00    +0.000 C 
ATOM     18  C   UNL     1       2.393   2.076  18.698  0.00  0.00    +0.000 C 
ATOM     19  C   UNL     1       2.947   2.983  17.598  0.00  0.00    +0.000 C 
ATOM     20  C   UNL     1       2.427   4.418  17.716  0.00  0.00    +0.000 C 
BRANCH  20  21
ATOM     21  O   UNL     1       1.026   4.413  17.397  0.00  0.00    +0.000 OA
ATOM     22  H   UNL     1       0.719   3.494  17.336  0.00  0.00    +0.000 HD
ENDBRANCH  20  21
ENDBRANCH  12  15
BRANCH   1  23
ATOM     23  C   UNL     1       1.244  12.379  18.901  0.00  0.00    +0.000 C 
BRANCH  23  27
ATOM     24  C   UNL     1       1.462  16.015  19.232  0.00  0.00    +0.000 C 
ATOM     25  C   UNL     1       1.786  15.242  17.927  0.00  0.00    +0.000 C 
ATOM     26  C   UNL     1       2.807  14.127  18.134  0.00  0.00    +0.000 C 
ATOM     27  N   UNL     1       2.431  13.206  19.204  0.00  0.00    +0.000 NA
ATOM     28  C   UNL     1       2.295  13.931  20.472  0.00  0.00    +0.000 C 
ATOM     29  C   UNL     1       1.232  15.028  20.411  0.00  0.00    +0.000 C 
BRANCH  24  30
ATOM     30  C   UNL     1       0.224  16.890  18.984  0.00  0.00    +0.000 A 
ATOM     31  C   UNL     1       0.101  17.637  17.808  0.00  0.00    +0.000 A 
ATOM     32  C   UNL     1      -1.044  18.401  17.598  0.00  0.00    +0.000 A 
ATOM     33  C   UNL     1      -2.045  18.407  18.558  0.00  0.00    +0.000 A 
ATOM     34  C   UNL     1      -1.860  17.640  19.693  0.00  0.00    +0.000 A 
ATOM     35  N   UNL     1      -0.760  16.887  19.920  0.00  0.00    +0.000 NA
ENDBRANCH  24  30
BRANCH  24  37
ATOM     36  N   UNL     1       3.492  17.592  19.865  0.00  0.00    +0.000 NA
ATOM     37  C   UNL     1       2.611  16.889  19.582  0.00  0.00    +0.000 C 
ENDBRANCH  24  37
ENDBRANCH  23  27
ENDBRANCH   1  23
TORSDOF 6
ENDMDL
MODEL 7
REMARK VINA RESULT:      -8.1      1.470      1.858
REMARK  Name = 
REMARK  6 active torsions:
REMARK  status: ('A' for Active; 'I' for Inactive)
REMARK    1  A    between atoms: C_2  and  C_3
REMARK    2  A    between atoms: C_3  and  C_4
REMARK    3  A    between atoms: N_12  and  C_13
REMARK    4  A    between atoms: C_13  and  C_14
REMARK    5  A    between atoms: N_25  and  C_26
REMARK    6  A    between atoms: C_31  and  O_32
REMARK                            x       y       z     vdW  Elec       q    Type
REMARK                         _______ _______ _______ _____ _____    ______ ____
ROOT
ATOM      1  C   UNL     1       1.088  10.887  19.404  0.00  0.00    +0.000 A 
ATOM      2  C   UNL     1       1.841   9.971  18.626  0.00  0.00    +0.000 A 
ATOM      3  C   UNL     1       1.959   8.670  19.074  0.00  0.00    +0.000 A 
ATOM      4  C   UNL     1       1.386   8.256  20.268  0.00  0.00    +0.000 A 
ATOM      5  C   UNL     1       0.683   9.133  21.087  0.00  0.00    +0.000 A 
ATOM      6  C   UNL     1       0.165   8.702  22.323  0.00  0.00    +0.000 A 
ATOM      7  C   UNL     1      -0.535   9.572  23.147  0.00  0.00    +0.000 A 
ATOM      8  C   UNL     1      -0.758  10.874  22.727  0.00  0.00    +0.000 A 
ATOM      9  C   UNL     1      -0.262  11.310  21.493  0.00  0.00    +0.000 A 
ATOM     10  C   UNL     1       0.499  10.469  20.648  0.00  0.00    +0.000 A 
ATOM     11  C   UNL     1       1.620   6.800  20.469  0.00  0.00    +0.000 C 
ATOM     12  N   UNL     1       2.359   6.410  19.287  0.00  0.00    +0.000 N 
ATOM     13  C   UNL     1       2.631   7.500  18.466  0.00  0.00    +0.000 C 
ATOM     14  O   UNL     1       3.291   7.529  17.442  0.00  0.00    +0.000 OA
ENDROOT
BRANCH  12  15
ATOM     15  C   UNL     1       2.897   5.054  19.119  0.00  0.00    +0.000 C 
ATOM     16  C   UNL     1       2.444   4.135  20.266  0.00  0.00    +0.000 C 
ATOM     17  C   UNL     1       3.035   2.730  20.129  0.00  0.00    +0.000 C 
ATOM     18  C   UNL     1       2.758   2.099  18.767  0.00  0.00    +0.000 C 
ATOM     19  C   UNL     1       3.170   3.016  17.616  0.00  0.00    +0.000 C 
ATOM     20  C   UNL     1       2.557   4.413  17.741  0.00  0.00    +0.000 C 
BRANCH  20  21
ATOM     21  O   UNL     1       1.143   4.302  17.518  0.00  0.00    +0.000 OA
ATOM     22  H   UNL     1       0.875   4.954  16.851  0.00  0.00    +0.000 HD
ENDBRANCH  20  21
ENDBRANCH  12  15
BRANCH   1  23
ATOM     23  C   UNL     1       0.899  12.301  18.864  0.00  0.00    +0.000 C 
BRANCH  23  27
ATOM     24  C   UNL     1       1.265  15.606  20.386  0.00  0.00    +0.000 C 
ATOM     25  C   UNL     1       0.965  15.373  18.883  0.00  0.00    +0.000 C 
ATOM     26  C   UNL     1       1.965  14.431  18.217  0.00  0.00    +0.000 C 
ATOM     27  N   UNL     1       2.101  13.159  18.924  0.00  0.00    +0.000 NA
ATOM     28  C   UNL     1       2.552  13.391  20.301  0.00  0.00    +0.000 C 
ATOM     29  C   UNL     1       1.581  14.261  21.098  0.00  0.00    +0.000 C 
BRANCH  24  30
ATOM     30  C   UNL     1       0.052  16.304  21.021  0.00  0.00    +0.000 A 
ATOM     31  C   UNL     1      -0.813  15.603  21.868  0.00  0.00    +0.000 A 
ATOM     32  C   UNL     1      -1.889  16.267  22.450  0.00  0.00    +0.000 A 
ATOM     33  C   UNL     1      -2.086  17.613  22.182  0.00  0.00    +0.000 A 
ATOM     34  C   UNL     1      -1.189  18.245  21.341  0.00  0.00    +0.000 A 
ATOM     35  N   UNL     1      -0.134  17.625  20.765  0.00  0.00    +0.000 NA
ENDBRANCH  24  30
BRANCH  24  37
ATOM     36  N   UNL     1       3.368  17.196  20.626  0.00  0.00    +0.000 NA
ATOM     37  C   UNL     1       2.455  16.487  20.519  0.00  0.00    +0.000 C 
ENDBRANCH  24  37
ENDBRANCH  23  27
ENDBRANCH   1  23
TORSDOF 6
ENDMDL
MODEL 8
REMARK VINA RESULT:      -8.1      1.312      1.670
REMARK  Name = 
REMARK  6 active torsions:
REMARK  status: ('A' for Active; 'I' for Inactive)
REMARK    1  A    between atoms: C_2  and  C_3
REMARK    2  A    between atoms: C_3  and  C_4
REMARK    3  A    between atoms: N_12  and  C_13
REMARK    4  A    between atoms: C_13  and  C_14
REMARK    5  A    between atoms: N_25  and  C_26
REMARK    6  A    between atoms: C_31  and  O_32
REMARK                            x       y       z     vdW  Elec       q    Type
REMARK                         _______ _______ _______ _____ _____    ______ ____
ROOT
ATOM      1  C   UNL     1       1.203  11.157  19.440  0.00  0.00    +0.000 A 
ATOM      2  C   UNL     1       1.898  10.184  18.677  0.00  0.00    +0.000 A 
ATOM      3  C   UNL     1       1.893   8.875  19.120  0.00  0.00    +0.000 A 
ATOM      4  C   UNL     1       1.253   8.507  20.295  0.00  0.00    +0.000 A 
ATOM      5  C   UNL     1       0.604   9.437  21.099  0.00  0.00    +0.000 A 
ATOM      6  C   UNL     1       0.017   9.046  22.318  0.00  0.00    +0.000 A 
ATOM      7  C   UNL     1      -0.630   9.969  23.127  0.00  0.00    +0.000 A 
ATOM      8  C   UNL     1      -0.731  11.287  22.710  0.00  0.00    +0.000 A 
ATOM      9  C   UNL     1      -0.165  11.684  21.493  0.00  0.00    +0.000 A 
ATOM     10  C   UNL     1       0.546  10.785  20.664  0.00  0.00    +0.000 A 
ATOM     11  C   UNL     1       1.358   7.036  20.493  0.00  0.00    +0.000 C 
ATOM     12  N   UNL     1       2.095   6.589  19.330  0.00  0.00    +0.000 N 
ATOM     13  C   UNL     1       2.481   7.655  18.523  0.00  0.00    +0.000 C 
ATOM     14  O   UNL     1       3.170   7.632  17.518  0.00  0.00    +0.000 OA
ENDROOT
BRANCH  12  15
ATOM     15  C   UNL     1       2.520   5.193  19.169  0.00  0.00    +0.000 C 
ATOM     16  C   UNL     1       2.124   4.651  17.785  0.00  0.00    +0.000 C 
ATOM     17  C   UNL     1       2.519   3.182  17.621  0.00  0.00    +0.000 C 
ATOM     18  C   UNL     1       3.995   2.927  17.917  0.00  0.00    +0.000 C 
ATOM     19  C   UNL     1       4.413   3.492  19.275  0.00  0.00    +0.000 C 
ATOM     20  C   UNL     1       4.039   4.969  19.427  0.00  0.00    +0.000 C 
BRANCH  20  21
ATOM     21  O   UNL     1       4.869   5.733  18.537  0.00  0.00    +0.000 OA
ATOM     22  H   UNL     1       4.812   6.672  18.780  0.00  0.00    +0.000 HD
ENDBRANCH  20  21
ENDBRANCH  12  15
BRANCH   1  23
ATOM     23  C   UNL     1       1.150  12.584  18.903  0.00  0.00    +0.000 C 
BRANCH  23  27
ATOM     24  C   UNL     1       1.501  16.145  19.659  0.00  0.00    +0.000 C 
ATOM     25  C   UNL     1       1.564  15.552  18.228  0.00  0.00    +0.000 C 
ATOM     26  C   UNL     1       2.582  14.424  18.096  0.00  0.00    +0.000 C 
ATOM     27  N   UNL     1       2.389  13.368  19.088  0.00  0.00    +0.000 NA
ATOM     28  C   UNL     1       2.503  13.919  20.443  0.00  0.00    +0.000 C 
ATOM     29  C   UNL     1       1.470  15.011  20.722  0.00  0.00    +0.000 C 
BRANCH  24  30
ATOM     30  C   UNL     1       0.257  17.041  19.760  0.00  0.00    +0.000 A 
ATOM     31  C   UNL     1      -0.745  16.985  18.785  0.00  0.00    +0.000 A 
ATOM     32  C   UNL     1      -1.874  17.789  18.915  0.00  0.00    +0.000 A 
ATOM     33  C   UNL     1      -1.988  18.631  20.011  0.00  0.00    +0.000 A 
ATOM     34  C   UNL     1      -0.964  18.630  20.939  0.00  0.00    +0.000 A 
ATOM     35  N   UNL     1       0.141  17.858  20.839  0.00  0.00    +0.000 NA
ENDBRANCH  24  30
BRANCH  24  37
ATOM     36  N   UNL     1       3.673  17.601  20.074  0.00  0.00    +0.000 NA
ATOM     37  C   UNL     1       2.713  16.970  19.903  0.00  0.00    +0.000 C 
ENDBRANCH  24  37
ENDBRANCH  23  27
ENDBRANCH   1  23
TORSDOF 6
ENDMDL
MODEL 9
REMARK VINA RESULT:      -8.1      2.191      3.342
REMARK  Name = 
REMARK  6 active torsions:
REMARK  status: ('A' for Active; 'I' for Inactive)
REMARK    1  A    between atoms: C_2  and  C_3
REMARK    2  A    between atoms: C_3  and  C_4
REMARK    3  A    between atoms: N_12  and  C_13
REMARK    4  A    between atoms: C_13  and  C_14
REMARK    5  A    between atoms: N_25  and  C_26
REMARK    6  A    between atoms: C_31  and  O_32
REMARK                            x       y       z     vdW  Elec       q    Type
REMARK                         _______ _______ _______ _____ _____    ______ ____
ROOT
ATOM      1  C   UNL     1       0.251  11.054  19.458  0.00  0.00    +0.000 A 
ATOM      2  C   UNL     1       1.025  10.290  18.549  0.00  0.00    +0.000 A 
ATOM      3  C   UNL     1       1.499   9.059  18.961  0.00  0.00    +0.000 A 
ATOM      4  C   UNL     1       1.256   8.577  20.239  0.00  0.00    +0.000 A 
ATOM      5  C   UNL     1       0.545   9.315  21.180  0.00  0.00    +0.000 A 
ATOM      6  C   UNL     1       0.368   8.830  22.489  0.00  0.00    +0.000 A 
ATOM      7  C   UNL     1      -0.338   9.562  23.433  0.00  0.00    +0.000 A 
ATOM      8  C   UNL     1      -0.907  10.772  23.068  0.00  0.00    +0.000 A 
ATOM      9  C   UNL     1      -0.750  11.258  21.765  0.00  0.00    +0.000 A 
ATOM     10  C   UNL     1       0.004  10.566  20.789  0.00  0.00    +0.000 A 
ATOM     11  C   UNL     1       1.828   7.211  20.387  0.00  0.00    +0.000 C 
ATOM     12  N   UNL     1       2.403   6.943  19.086  0.00  0.00    +0.000 N 
ATOM     13  C   UNL     1       2.281   8.036  18.233  0.00  0.00    +0.000 C 
ATOM     14  O   UNL     1       2.720   8.166  17.103  0.00  0.00    +0.000 OA
ENDROOT
BRANCH  12  15
ATOM     15  C   UNL     1       3.177   5.725  18.814  0.00  0.00    +0.000 C 
ATOM     16  C   UNL     1       2.640   4.995  17.572  0.00  0.00    +0.000 C 
ATOM     17  C   UNL     1       3.407   3.698  17.306  0.00  0.00    +0.000 C 
ATOM     18  C   UNL     1       4.917   3.908  17.218  0.00  0.00    +0.000 C 
ATOM     19  C   UNL     1       5.461   4.665  18.430  0.00  0.00    +0.000 C 
ATOM     20  C   UNL     1       4.708   5.974  18.680  0.00  0.00    +0.000 C 
BRANCH  20  21
ATOM     21  O   UNL     1       5.028   6.883  17.615  0.00  0.00    +0.000 OA
ATOM     22  H   UNL     1       5.738   7.476  17.908  0.00  0.00    +0.000 HD
ENDBRANCH  20  21
ENDBRANCH  12  15
BRANCH   1  23
ATOM     23  C   UNL     1      -0.331  12.377  18.969  0.00  0.00    +0.000 C 
BRANCH  23  27
ATOM     24  C   UNL     1       0.698  15.135  21.139  0.00  0.00    +0.000 C 
ATOM     25  C   UNL     1      -0.384  15.258  20.035  0.00  0.00    +0.000 C 
ATOM     26  C   UNL     1       0.106  14.787  18.669  0.00  0.00    +0.000 C 
ATOM     27  N   UNL     1       0.664  13.437  18.702  0.00  0.00    +0.000 NA
ATOM     28  C   UNL     1       1.800  13.382  19.629  0.00  0.00    +0.000 C 
ATOM     29  C   UNL     1       1.410  13.756  21.059  0.00  0.00    +0.000 C 
BRANCH  24  30
ATOM     30  C   UNL     1       0.023  15.338  22.505  0.00  0.00    +0.000 A 
ATOM     31  C   UNL     1      -1.078  14.560  22.880  0.00  0.00    +0.000 A 
ATOM     32  C   UNL     1      -1.653  14.746  24.134  0.00  0.00    +0.000 A 
ATOM     33  C   UNL     1      -1.125  15.700  24.992  0.00  0.00    +0.000 A 
ATOM     34  C   UNL     1      -0.033  16.428  24.558  0.00  0.00    +0.000 A 
ATOM     35  N   UNL     1       0.547  16.265  23.348  0.00  0.00    +0.000 NA
ENDBRANCH  24  30
BRANCH  24  37
ATOM     36  N   UNL     1       2.542  17.002  20.795  0.00  0.00    +0.000 NA
ATOM     37  C   UNL     1       1.722  16.193  20.943  0.00  0.00    +0.000 C 
ENDBRANCH  24  37
ENDBRANCH  23  27
ENDBRANCH   1  23
TORSDOF 6
ENDMDL
