MODEL 1
REMARK VINA RESULT:      -8.3      0.000      0.000
REMARK  Name = 
REMARK  4 active torsions:
REMARK  status: ('A' for Active; 'I' for Inactive)
REMARK    1  A    between atoms: C_1  and  O_2
REMARK    2  A    between atoms: O_2  and  C_3
REMARK    3  A    between atoms: C_6  and  C_7
REMARK    4  A    between atoms: C_7  and  N_8
REMARK                            x       y       z     vdW  Elec       q    Type
REMARK                         _______ _______ _______ _____ _____    ______ ____
ROOT
ATOM      1  N   UNL     1       1.821   8.513  19.202  0.00  0.00    +0.000 N 
ATOM      2  C   UNL     1       1.883   7.744  20.370  0.00  0.00    +0.000 C 
ATOM      3  C   UNL     1       1.276   8.135  21.507  0.00  0.00    +0.000 C 
ATOM      4  C   UNL     1       0.753   9.494  21.572  0.00  0.00    +0.000 C 
ATOM      5  C   UNL     1       0.550  10.184  20.436  0.00  0.00    +0.000 C 
ATOM      6  C   UNL     1       0.811   9.492  19.160  0.00  0.00    +0.000 C 
ATOM      7  N   UNL     1       0.096   9.678  18.092  0.00  0.00    +0.000 NA
ATOM      8  C   UNL     1      -1.143  10.356  18.042  0.00  0.00    +0.000 A 
ATOM      9  C   UNL     1      -2.036   9.794  17.105  0.00  0.00    +0.000 A 
ATOM     10  C   UNL     1      -3.310  10.317  16.857  0.00  0.00    +0.000 A 
ATOM     11  C   UNL     1      -3.728  11.446  17.539  0.00  0.00    +0.000 A 
ATOM     12  C   UNL     1      -2.887  12.002  18.498  0.00  0.00    +0.000 A 
ATOM     13  C   UNL     1      -1.615  11.457  18.774  0.00  0.00    +0.000 A 
ATOM     14  O   UNL     1      -1.038  12.116  19.823  0.00  0.00    +0.000 OA
ATOM     15  S   UNL     1       0.459  11.885  20.371  0.00  0.00    +0.000 S 
ATOM     16  O   UNL     1       0.491  12.424  21.722  0.00  0.00    +0.000 OA
ATOM     17  O   UNL     1       1.390  12.410  19.385  0.00  0.00    +0.000 OA
ENDROOT
BRANCH   1  18
ATOM     18  C   UNL     1       2.621   8.206  18.013  0.00  0.00    +0.000 C 
BRANCH  18  22
ATOM     19  C   UNL     1       3.668   3.993  17.633  0.00  0.00    +0.000 A 
ATOM     20  C   UNL     1       2.335   4.389  17.764  0.00  0.00    +0.000 A 
ATOM     21  C   UNL     1       1.999   5.741  17.905  0.00  0.00    +0.000 A 
ATOM     22  C   UNL     1       2.994   6.730  17.937  0.00  0.00    +0.000 A 
ATOM     23  C   UNL     1       4.334   6.318  17.839  0.00  0.00    +0.000 A 
ATOM     24  C   UNL     1       4.667   4.964  17.689  0.00  0.00    +0.000 A 
BRANCH  19  26
ATOM     25  C   UNL     1       3.537   1.849  18.634  0.00  0.00    +0.000 C 
ATOM     26  O   UNL     1       3.862   2.646  17.499  0.00  0.00    +0.000 OA
ENDBRANCH  19  26
ENDBRANCH  18  22
ENDBRANCH   1  18
TORSDOF 3
ENDMDL
MODEL 2
REMARK VINA RESULT:      -8.1      2.484      7.850
REMARK  Name = 
REMARK  4 active torsions:
REMARK  status: ('A' for Active; 'I' for Inactive)
REMARK    1  A    between atoms: C_1  and  O_2
REMARK    2  A    between atoms: O_2  and  C_3
REMARK    3  A    between atoms: C_6  and  C_7
REMARK    4  A    between atoms: C_7  and  N_8
REMARK                            x       y       z     vdW  Elec       q    Type
REMARK                         _______ _______ _______ _____ _____    ______ ____
ROOT
ATOM      1  N   UNL     1       1.757   8.342  18.840  0.00  0.00    +0.000 N 
ATOM      2  C   UNL     1       1.450   8.594  20.182  0.00  0.00    +0.000 C 
ATOM      3  C   UNL     1       1.605   7.652  21.132  0.00  0.00    +0.000 C 
ATOM      4  C   UNL     1       1.870   6.285  20.704  0.00  0.00    +0.000 C 
ATOM      5  C   UNL     1       2.312   6.052  19.455  0.00  0.00    +0.000 C 
ATOM      6  C   UNL     1       2.570   7.220  18.592  0.00  0.00    +0.000 C 
ATOM      7  N   UNL     1       3.546   7.270  17.737  0.00  0.00    +0.000 NA
ATOM      8  C   UNL     1       4.622   6.356  17.666  0.00  0.00    +0.000 A 
ATOM      9  C   UNL     1       5.837   6.970  17.294  0.00  0.00    +0.000 A 
ATOM     10  C   UNL     1       7.030   6.259  17.127  0.00  0.00    +0.000 A 
ATOM     11  C   UNL     1       7.039   4.888  17.313  0.00  0.00    +0.000 A 
ATOM     12  C   UNL     1       5.867   4.257  17.719  0.00  0.00    +0.000 A 
ATOM     13  C   UNL     1       4.670   4.976  17.921  0.00  0.00    +0.000 A 
ATOM     14  O   UNL     1       3.702   4.149  18.417  0.00  0.00    +0.000 OA
ATOM     15  S   UNL     1       2.161   4.547  18.668  0.00  0.00    +0.000 S 
ATOM     16  O   UNL     1       1.628   3.565  19.599  0.00  0.00    +0.000 OA
ATOM     17  O   UNL     1       1.517   4.709  17.374  0.00  0.00    +0.000 OA
ENDROOT
BRANCH   1  18
ATOM     18  C   UNL     1       1.424   9.282  17.765  0.00  0.00    +0.000 C 
BRANCH  18  22
ATOM     19  C   UNL     1      -2.202  11.478  18.775  0.00  0.00    +0.000 A 
ATOM     20  C   UNL     1      -2.255  10.347  17.957  0.00  0.00    +0.000 A 
ATOM     21  C   UNL     1      -1.089   9.652  17.617  0.00  0.00    +0.000 A 
ATOM     22  C   UNL     1       0.165  10.085  18.074  0.00  0.00    +0.000 A 
ATOM     23  C   UNL     1       0.213  11.243  18.868  0.00  0.00    +0.000 A 
ATOM     24  C   UNL     1      -0.959  11.932  19.213  0.00  0.00    +0.000 A 
BRANCH  19  26
ATOM     25  C   UNL     1      -4.511  11.606  18.257  0.00  0.00    +0.000 C 
ATOM     26  O   UNL     1      -3.410  12.064  19.034  0.00  0.00    +0.000 OA
ENDBRANCH  19  26
ENDBRANCH  18  22
ENDBRANCH   1  18
TORSDOF 3
ENDMDL
MODEL 3
REMARK VINA RESULT:      -8.0      2.506      7.903
REMARK  Name = 
REMARK  4 active torsions:
REMARK  status: ('A' for Active; 'I' for Inactive)
REMARK    1  A    between atoms: C_1  and  O_2
REMARK    2  A    between atoms: O_2  and  C_3
REMARK    3  A    between atoms: C_6  and  C_7
REMARK    4  A    between atoms: C_7  and  N_8
REMARK                            x       y       z     vdW  Elec       q    Type
REMARK                         _______ _______ _______ _____ _____    ______ ____
ROOT
ATOM      1  N   UNL     1       1.753   8.331  18.894  0.00  0.00    +0.000 N 
ATOM      2  C   UNL     1       1.477   8.538  20.250  0.00  0.00    +0.000 C 
ATOM      3  C   UNL     1       1.637   7.559  21.162  0.00  0.00    +0.000 C 
ATOM      4  C   UNL     1       1.873   6.205  20.679  0.00  0.00    +0.000 C 
ATOM      5  C   UNL     1       2.286   6.012  19.413  0.00  0.00    +0.000 C 
ATOM      6  C   UNL     1       2.543   7.207  18.589  0.00  0.00    +0.000 C 
ATOM      7  N   UNL     1       3.503   7.274  17.716  0.00  0.00    +0.000 NA
ATOM      8  C   UNL     1       4.563   6.349  17.589  0.00  0.00    +0.000 A 
ATOM      9  C   UNL     1       5.779   6.959  17.215  0.00  0.00    +0.000 A 
ATOM     10  C   UNL     1       6.958   6.238  16.997  0.00  0.00    +0.000 A 
ATOM     11  C   UNL     1       6.950   4.861  17.133  0.00  0.00    +0.000 A 
ATOM     12  C   UNL     1       5.778   4.232  17.539  0.00  0.00    +0.000 A 
ATOM     13  C   UNL     1       4.596   4.960  17.793  0.00  0.00    +0.000 A 
ATOM     14  O   UNL     1       3.626   4.129  18.278  0.00  0.00    +0.000 OA
ATOM     15  S   UNL     1       2.097   4.539  18.575  0.00  0.00    +0.000 S 
ATOM     16  O   UNL     1       1.568   3.531  19.481  0.00  0.00    +0.000 OA
ATOM     17  O   UNL     1       1.429   4.757  17.302  0.00  0.00    +0.000 OA
ENDROOT
BRANCH   1  18
ATOM     18  C   UNL     1       1.412   9.314  17.862  0.00  0.00    +0.000 C 
BRANCH  18  22
ATOM     19  C   UNL     1      -2.348  11.405  18.550  0.00  0.00    +0.000 A 
ATOM     20  C   UNL     1      -1.169  11.834  19.164  0.00  0.00    +0.000 A 
ATOM     21  C   UNL     1       0.036  11.152  18.958  0.00  0.00    +0.000 A 
ATOM     22  C   UNL     1       0.085  10.009  18.145  0.00  0.00    +0.000 A 
ATOM     23  C   UNL     1      -1.112   9.565  17.560  0.00  0.00    +0.000 A 
ATOM     24  C   UNL     1      -2.316  10.256  17.762  0.00  0.00    +0.000 A 
BRANCH  19  26
ATOM     25  C   UNL     1      -3.562  12.647  20.163  0.00  0.00    +0.000 C 
ATOM     26  O   UNL     1      -3.454  12.159  18.830  0.00  0.00    +0.000 OA
ENDBRANCH  19  26
ENDBRANCH  18  22
ENDBRANCH   1  18
TORSDOF 3
ENDMDL
MODEL 4
REMARK VINA RESULT:      -7.9      0.618      1.104
REMARK  Name = 
REMARK  4 active torsions:
REMARK  status: ('A' for Active; 'I' for Inactive)
REMARK    1  A    between atoms: C_1  and  O_2
REMARK    2  A    between atoms: O_2  and  C_3
REMARK    3  A    between atoms: C_6  and  C_7
REMARK    4  A    between atoms: C_7  and  N_8
REMARK                            x       y       z     vdW  Elec       q    Type
REMARK                         _______ _______ _______ _____ _____    ______ ____
ROOT
ATOM      1  N   UNL     1       1.911   8.302  19.352  0.00  0.00    +0.000 N 
ATOM      2  C   UNL     1       1.888   7.634  20.581  0.00  0.00    +0.000 C 
ATOM      3  C   UNL     1       1.296   8.169  21.667  0.00  0.00    +0.000 C 
ATOM      4  C   UNL     1       0.887   9.566  21.604  0.00  0.00    +0.000 C 
ATOM      5  C   UNL     1       0.761  10.171  20.409  0.00  0.00    +0.000 C 
ATOM      6  C   UNL     1       0.987   9.353  19.202  0.00  0.00    +0.000 C 
ATOM      7  N   UNL     1       0.309   9.504  18.105  0.00  0.00    +0.000 NA
ATOM      8  C   UNL     1      -0.869  10.273  17.968  0.00  0.00    +0.000 A 
ATOM      9  C   UNL     1      -1.789   9.707  17.060  0.00  0.00    +0.000 A 
ATOM     10  C   UNL     1      -3.010  10.308  16.737  0.00  0.00    +0.000 A 
ATOM     11  C   UNL     1      -3.344  11.522  17.312  0.00  0.00    +0.000 A 
ATOM     12  C   UNL     1      -2.478  12.089  18.240  0.00  0.00    +0.000 A 
ATOM     13  C   UNL     1      -1.260  11.468  18.593  0.00  0.00    +0.000 A 
ATOM     14  O   UNL     1      -0.649  12.165  19.596  0.00  0.00    +0.000 OA
ATOM     15  S   UNL     1       0.813  11.862  20.199  0.00  0.00    +0.000 S 
ATOM     16  O   UNL     1       0.866  12.510  21.501  0.00  0.00    +0.000 OA
ATOM     17  O   UNL     1       1.802  12.223  19.196  0.00  0.00    +0.000 OA
ENDROOT
BRANCH   1  18
ATOM     18  C   UNL     1       2.704   7.830  18.213  0.00  0.00    +0.000 C 
BRANCH  18  22
ATOM     19  C   UNL     1       3.267   3.516  18.465  0.00  0.00    +0.000 A 
ATOM     20  C   UNL     1       4.317   4.392  18.752  0.00  0.00    +0.000 A 
ATOM     21  C   UNL     1       4.142   5.778  18.653  0.00  0.00    +0.000 A 
ATOM     22  C   UNL     1       2.914   6.320  18.245  0.00  0.00    +0.000 A 
ATOM     23  C   UNL     1       1.875   5.430  17.926  0.00  0.00    +0.000 A 
ATOM     24  C   UNL     1       2.051   4.043  18.034  0.00  0.00    +0.000 A 
BRANCH  19  26
ATOM     25  C   UNL     1       4.492   1.856  19.632  0.00  0.00    +0.000 C 
ATOM     26  O   UNL     1       3.566   2.189  18.602  0.00  0.00    +0.000 OA
ENDBRANCH  19  26
ENDBRANCH  18  22
ENDBRANCH   1  18
TORSDOF 3
ENDMDL
MODEL 5
REMARK VINA RESULT:      -7.8      3.037      7.839
REMARK  Name = 
REMARK  4 active torsions:
REMARK  status: ('A' for Active; 'I' for Inactive)
REMARK    1  A    between atoms: C_1  and  O_2
REMARK    2  A    between atoms: O_2  and  C_3
REMARK    3  A    between atoms: C_6  and  C_7
REMARK    4  A    between atoms: C_7  and  N_8
REMARK                            x       y       z     vdW  Elec       q    Type
REMARK                         _______ _______ _______ _____ _____    ______ ____
ROOT
ATOM      1  N   UNL     1       1.840   8.122  20.060  0.00  0.00    +0.000 N 
ATOM      2  C   UNL     1       1.431   9.077  19.123  0.00  0.00    +0.000 C 
ATOM      3  C   UNL     1       1.734   8.962  17.816  0.00  0.00    +0.000 C 
ATOM      4  C   UNL     1       2.703   7.946  17.425  0.00  0.00    +0.000 C 
ATOM      5  C   UNL     1       2.987   6.937  18.267  0.00  0.00    +0.000 C 
ATOM      6  C   UNL     1       2.240   6.877  19.538  0.00  0.00    +0.000 C 
ATOM      7  N   UNL     1       1.871   5.762  20.092  0.00  0.00    +0.000 NA
ATOM      8  C   UNL     1       1.905   4.489  19.479  0.00  0.00    +0.000 A 
ATOM      9  C   UNL     1       0.830   3.665  19.872  0.00  0.00    +0.000 A 
ATOM     10  C   UNL     1       0.674   2.350  19.420  0.00  0.00    +0.000 A 
ATOM     11  C   UNL     1       1.613   1.808  18.561  0.00  0.00    +0.000 A 
ATOM     12  C   UNL     1       2.664   2.607  18.123  0.00  0.00    +0.000 A 
ATOM     13  C   UNL     1       2.806   3.944  18.551  0.00  0.00    +0.000 A 
ATOM     14  O   UNL     1       3.849   4.539  17.898  0.00  0.00    +0.000 OA
ATOM     15  S   UNL     1       4.420   6.017  18.186  0.00  0.00    +0.000 S 
ATOM     16  O   UNL     1       5.178   6.404  17.006  0.00  0.00    +0.000 OA
ATOM     17  O   UNL     1       5.092   6.002  19.476  0.00  0.00    +0.000 OA
ENDROOT
BRANCH   1  18
ATOM     18  C   UNL     1       1.685   8.317  21.504  0.00  0.00    +0.000 C 
BRANCH  18  22
ATOM     19  C   UNL     1      -0.896  11.664  22.560  0.00  0.00    +0.000 A 
ATOM     20  C   UNL     1      -1.048  10.422  23.179  0.00  0.00    +0.000 A 
ATOM     21  C   UNL     1      -0.231   9.340  22.827  0.00  0.00    +0.000 A 
ATOM     22  C   UNL     1       0.747   9.473  21.831  0.00  0.00    +0.000 A 
ATOM     23  C   UNL     1       0.870  10.718  21.190  0.00  0.00    +0.000 A 
ATOM     24  C   UNL     1       0.056  11.801  21.551  0.00  0.00    +0.000 A 
BRANCH  19  26
ATOM     25  C   UNL     1      -3.025  12.195  23.456  0.00  0.00    +0.000 C 
ATOM     26  O   UNL     1      -1.752  12.638  22.995  0.00  0.00    +0.000 OA
ENDBRANCH  19  26
ENDBRANCH  18  22
ENDBRANCH   1  18
TORSDOF 3
ENDMDL
MODEL 6
REMARK VINA RESULT:      -7.8      0.951      1.378
REMARK  Name = 
REMARK  4 active torsions:
REMARK  status: ('A' for Active; 'I' for Inactive)
REMARK    1  A    between atoms: C_1  and  O_2
REMARK    2  A    between atoms: O_2  and  C_3
REMARK    3  A    between atoms: C_6  and  C_7
REMARK    4  A    between atoms: C_7  and  N_8
REMARK                            x       y       z     vdW  Elec       q    Type
REMARK                         _______ _______ _______ _____ _____    ______ ____
ROOT
ATOM      1  N   UNL     1       1.554   8.966  19.200  0.00  0.00    +0.000 N 
ATOM      2  C   UNL     1       1.733   8.081  20.268  0.00  0.00    +0.000 C 
ATOM      3  C   UNL     1       1.139   8.280  21.460  0.00  0.00    +0.000 C 
ATOM      4  C   UNL     1       0.494   9.566  21.697  0.00  0.00    +0.000 C 
ATOM      5  C   UNL     1       0.181  10.356  20.654  0.00  0.00    +0.000 C 
ATOM      6  C   UNL     1       0.455   9.841  19.300  0.00  0.00    +0.000 C 
ATOM      7  N   UNL     1      -0.316  10.075  18.282  0.00  0.00    +0.000 NA
ATOM      8  C   UNL     1      -1.615  10.630  18.346  0.00  0.00    +0.000 A 
ATOM      9  C   UNL     1      -2.487  10.091  17.377  0.00  0.00    +0.000 A 
ATOM     10  C   UNL     1      -3.813  10.512  17.228  0.00  0.00    +0.000 A 
ATOM     11  C   UNL     1      -4.308  11.511  18.048  0.00  0.00    +0.000 A 
ATOM     12  C   UNL     1      -3.486  12.036  19.040  0.00  0.00    +0.000 A 
ATOM     13  C   UNL     1      -2.158  11.590  19.214  0.00  0.00    +0.000 A 
ATOM     14  O   UNL     1      -1.604  12.180  20.315  0.00  0.00    +0.000 OA
ATOM     15  S   UNL     1      -0.071  12.037  20.789  0.00  0.00    +0.000 S 
ATOM     16  O   UNL     1      -0.036  12.421  22.192  0.00  0.00    +0.000 OA
ATOM     17  O   UNL     1       0.766  12.757  19.844  0.00  0.00    +0.000 OA
ENDROOT
BRANCH   1  18
ATOM     18  C   UNL     1       2.331   8.874  17.960  0.00  0.00    +0.000 C 
BRANCH  18  22
ATOM     19  C   UNL     1       4.063   4.901  17.518  0.00  0.00    +0.000 A 
ATOM     20  C   UNL     1       4.823   6.044  17.262  0.00  0.00    +0.000 A 
ATOM     21  C   UNL     1       4.262   7.321  17.386  0.00  0.00    +0.000 A 
ATOM     22  C   UNL     1       2.917   7.483  17.752  0.00  0.00    +0.000 A 
ATOM     23  C   UNL     1       2.152   6.326  17.975  0.00  0.00    +0.000 A 
ATOM     24  C   UNL     1       2.719   5.048  17.858  0.00  0.00    +0.000 A 
BRANCH  19  26
ATOM     25  C   UNL     1       5.564   3.608  16.217  0.00  0.00    +0.000 C 
ATOM     26  O   UNL     1       4.728   3.716  17.364  0.00  0.00    +0.000 OA
ENDBRANCH  19  26
ENDBRANCH  18  22
ENDBRANCH   1  18
TORSDOF 3
ENDMDL
MODEL 7
REMARK VINA RESULT:      -7.7      2.466      8.096
REMARK  Name = 
REMARK  4 active torsions:
REMARK  status: ('A' for Active; 'I' for Inactive)
REMARK    1  A    between atoms: C_1  and  O_2
REMARK    2  A    between atoms: O_2  and  C_3
REMARK    3  A    between atoms: C_6  and  C_7
REMARK    4  A    between atoms: C_7  and  N_8
REMARK                            x       y       z     vdW  Elec       q    Type
REMARK                         _______ _______ _______ _____ _____    ______ ____
ROOT
ATOM      1  N   UNL     1       1.812   8.214  18.832  0.00  0.00    +0.000 N 
ATOM      2  C   UNL     1       1.492   8.459  20.172  0.00  0.00    +0.000 C 
ATOM      3  C   UNL     1       1.659   7.520  21.124  0.00  0.00    +0.000 C 
ATOM      4  C   UNL     1       1.955   6.158  20.697  0.00  0.00    +0.000 C 
ATOM      5  C   UNL     1       2.410   5.935  19.451  0.00  0.00    +0.000 C 
ATOM      6  C   UNL     1       2.650   7.109  18.590  0.00  0.00    +0.000 C 
ATOM      7  N   UNL     1       3.631   7.178  17.742  0.00  0.00    +0.000 NA
ATOM      8  C   UNL     1       4.726   6.287  17.678  0.00  0.00    +0.000 A 
ATOM      9  C   UNL     1       5.930   6.926  17.316  0.00  0.00    +0.000 A 
ATOM     10  C   UNL     1       7.139   6.240  17.156  0.00  0.00    +0.000 A 
ATOM     11  C   UNL     1       7.175   4.869  17.343  0.00  0.00    +0.000 A 
ATOM     12  C   UNL     1       6.014   4.214  17.740  0.00  0.00    +0.000 A 
ATOM     13  C   UNL     1       4.800   4.908  17.934  0.00  0.00    +0.000 A 
ATOM     14  O   UNL     1       3.846   4.061  18.423  0.00  0.00    +0.000 OA
ATOM     15  S   UNL     1       2.296   4.428  18.663  0.00  0.00    +0.000 S 
ATOM     16  O   UNL     1       1.776   3.434  19.591  0.00  0.00    +0.000 OA
ATOM     17  O   UNL     1       1.657   4.576  17.365  0.00  0.00    +0.000 OA
ENDROOT
BRANCH   1  18
ATOM     18  C   UNL     1       1.468   9.146  17.756  0.00  0.00    +0.000 C 
BRANCH  18  22
ATOM     19  C   UNL     1      -0.456  12.814  19.108  0.00  0.00    +0.000 A 
ATOM     20  C   UNL     1       0.936  12.717  19.051  0.00  0.00    +0.000 A 
ATOM     21  C   UNL     1       1.555  11.532  18.634  0.00  0.00    +0.000 A 
ATOM     22  C   UNL     1       0.793  10.408  18.282  0.00  0.00    +0.000 A 
ATOM     23  C   UNL     1      -0.605  10.505  18.375  0.00  0.00    +0.000 A 
ATOM     24  C   UNL     1      -1.223  11.695  18.785  0.00  0.00    +0.000 A 
BRANCH  19  26
ATOM     25  C   UNL     1      -0.248  15.174  19.048  0.00  0.00    +0.000 C 
ATOM     26  O   UNL     1      -0.936  14.024  19.528  0.00  0.00    +0.000 OA
ENDBRANCH  19  26
ENDBRANCH  18  22
ENDBRANCH   1  18
TORSDOF 3
ENDMDL
MODEL 8
REMARK VINA RESULT:      -7.4      2.915      3.974
REMARK  Name = 
REMARK  4 active torsions:
REMARK  status: ('A' for Active; 'I' for Inactive)
REMARK    1  A    between atoms: C_1  and  O_2
REMARK    2  A    between atoms: O_2  and  C_3
REMARK    3  A    between atoms: C_6  and  C_7
REMARK    4  A    between atoms: C_7  and  N_8
REMARK                            x       y       z     vdW  Elec       q    Type
REMARK                         _______ _______ _______ _____ _____    ______ ____
ROOT
ATOM      1  N   UNL     1       0.872   9.904  18.101  0.00  0.00    +0.000 N 
ATOM      2  C   UNL     1      -0.361   9.570  17.530  0.00  0.00    +0.000 C 
ATOM      3  C   UNL     1      -1.503  10.180  17.904  0.00  0.00    +0.000 C 
ATOM      4  C   UNL     1      -1.469  11.028  19.089  0.00  0.00    +0.000 C 
ATOM      5  C   UNL     1      -0.289  11.476  19.554  0.00  0.00    +0.000 C 
ATOM      6  C   UNL     1       0.923  11.131  18.787  0.00  0.00    +0.000 C 
ATOM      7  N   UNL     1       1.930  11.940  18.651  0.00  0.00    +0.000 NA
ATOM      8  C   UNL     1       1.934  13.312  18.991  0.00  0.00    +0.000 A 
ATOM      9  C   UNL     1       2.712  14.091  18.109  0.00  0.00    +0.000 A 
ATOM     10  C   UNL     1       2.891  15.469  18.265  0.00  0.00    +0.000 A 
ATOM     11  C   UNL     1       2.299  16.116  19.336  0.00  0.00    +0.000 A 
ATOM     12  C   UNL     1       1.493  15.385  20.202  0.00  0.00    +0.000 A 
ATOM     13  C   UNL     1       1.283  14.000  20.027  0.00  0.00    +0.000 A 
ATOM     14  O   UNL     1       0.374  13.543  20.939  0.00  0.00    +0.000 OA
ATOM     15  S   UNL     1      -0.048  12.004  21.157  0.00  0.00    +0.000 S 
ATOM     16  O   UNL     1      -1.323  12.021  21.858  0.00  0.00    +0.000 OA
ATOM     17  O   UNL     1       1.075  11.305  21.762  0.00  0.00    +0.000 OA
ENDROOT
BRANCH   1  18
ATOM     18  C   UNL     1       2.092   9.132  17.848  0.00  0.00    +0.000 C 
BRANCH  18  22
ATOM     19  C   UNL     1       2.145   5.509  20.267  0.00  0.00    +0.000 A 
ATOM     20  C   UNL     1       1.734   6.727  20.814  0.00  0.00    +0.000 A 
ATOM     21  C   UNL     1       1.735   7.895  20.042  0.00  0.00    +0.000 A 
ATOM     22  C   UNL     1       2.166   7.875  18.707  0.00  0.00    +0.000 A 
ATOM     23  C   UNL     1       2.608   6.652  18.177  0.00  0.00    +0.000 A 
ATOM     24  C   UNL     1       2.599   5.482  18.950  0.00  0.00    +0.000 A 
BRANCH  19  26
ATOM     25  C   UNL     1       1.191   3.399  20.775  0.00  0.00    +0.000 C 
ATOM     26  O   UNL     1       2.095   4.443  21.123  0.00  0.00    +0.000 OA
ENDBRANCH  19  26
ENDBRANCH  18  22
ENDBRANCH   1  18
TORSDOF 3
ENDMDL
MODEL 9
REMARK VINA RESULT:      -7.1      4.780      8.415
REMARK  Name = 
REMARK  4 active torsions:
REMARK  status: ('A' for Active; 'I' for Inactive)
REMARK    1  A    between atoms: C_1  and  O_2
REMARK    2  A    between atoms: O_2  and  C_3
REMARK    3  A    between atoms: C_6  and  C_7
REMARK    4  A    between atoms: C_7  and  N_8
REMARK                            x       y       z     vdW  Elec       q    Type
REMARK                         _______ _______ _______ _____ _____    ______ ____
ROOT
ATOM      1  N   UNL     1      -0.908  11.557  22.694  0.00  0.00    +0.000 N 
ATOM      2  C   UNL     1      -0.785  10.239  23.147  0.00  0.00    +0.000 C 
ATOM      3  C   UNL     1      -0.324   9.257  22.349  0.00  0.00    +0.000 C 
ATOM      4  C   UNL     1      -0.181   9.541  20.926  0.00  0.00    +0.000 C 
ATOM      5  C   UNL     1      -0.147  10.817  20.502  0.00  0.00    +0.000 C 
ATOM      6  C   UNL     1      -0.193  11.879  21.525  0.00  0.00    +0.000 C 
ATOM      7  N   UNL     1       0.466  12.993  21.422  0.00  0.00    +0.000 NA
ATOM      8  C   UNL     1       1.482  13.261  20.477  0.00  0.00    +0.000 A 
ATOM      9  C   UNL     1       2.509  14.079  20.996  0.00  0.00    +0.000 A 
ATOM     10  C   UNL     1       3.602  14.503  20.234  0.00  0.00    +0.000 A 
ATOM     11  C   UNL     1       3.694  14.130  18.904  0.00  0.00    +0.000 A 
ATOM     12  C   UNL     1       2.719  13.292  18.373  0.00  0.00    +0.000 A 
ATOM     13  C   UNL     1       1.632  12.834  19.148  0.00  0.00    +0.000 A 
ATOM     14  O   UNL     1       0.883  11.946  18.430  0.00  0.00    +0.000 OA
ATOM     15  S   UNL     1      -0.509  11.288  18.904  0.00  0.00    +0.000 S 
ATOM     16  O   UNL     1      -0.707  10.103  18.083  0.00  0.00    +0.000 OA
ATOM     17  O   UNL     1      -1.528  12.325  18.895  0.00  0.00    +0.000 OA
ENDROOT
BRANCH   1  18
ATOM     18  C   UNL     1      -1.577  12.600  23.477  0.00  0.00    +0.000 C 
BRANCH  18  22
ATOM     19  C   UNL     1      -5.875  12.837  22.798  0.00  0.00    +0.000 A 
ATOM     20  C   UNL     1      -5.360  12.733  24.093  0.00  0.00    +0.000 A 
ATOM     21  C   UNL     1      -3.981  12.638  24.311  0.00  0.00    +0.000 A 
ATOM     22  C   UNL     1      -3.082  12.626  23.233  0.00  0.00    +0.000 A 
ATOM     23  C   UNL     1      -3.611  12.697  21.934  0.00  0.00    +0.000 A 
ATOM     24  C   UNL     1      -4.993  12.800  21.719  0.00  0.00    +0.000 A 
BRANCH  19  26
ATOM     25  C   UNL     1      -7.853  12.224  21.645  0.00  0.00    +0.000 C 
ATOM     26  O   UNL     1      -7.237  12.926  22.721  0.00  0.00    +0.000 OA
ENDBRANCH  19  26
ENDBRANCH  18  22
ENDBRANCH   1  18
TORSDOF 3
ENDMDL
