MODEL 1
REMARK VINA RESULT:      -7.5      0.000      0.000
REMARK  Name = 
REMARK  9 active torsions:
REMARK  status: ('A' for Active; 'I' for Inactive)
REMARK    1  A    between atoms: C_1  and  O_2
REMARK    2  A    between atoms: O_2  and  C_3
REMARK    3  A    between atoms: C_6  and  N_7
REMARK    4  A    between atoms: N_10  and  C_11
REMARK    5  A    between atoms: C_11  and  C_12
REMARK    6  A    between atoms: C_12  and  C_13
REMARK    7  A    between atoms: C_13  and  O_14
REMARK    8  A    between atoms: C_13  and  C_18
REMARK    9  A    between atoms: O_14  and  C_15
REMARK                            x       y       z     vdW  Elec       q    Type
REMARK                         _______ _______ _______ _____ _____    ______ ____
ROOT
ATOM      1  C   UNL     1       3.968   4.806  17.201  0.00  0.00    +0.000 C 
ENDROOT
BRANCH   1   5
ATOM      2  N   UNL     1       2.030   7.189  19.024  0.00  0.00    +0.000 N 
ATOM      3  C   UNL     1       2.622   7.503  17.714  0.00  0.00    +0.000 C 
ATOM      4  C   UNL     1       4.137   7.222  17.695  0.00  0.00    +0.000 C 
ATOM      5  N   UNL     1       4.501   5.846  18.107  0.00  0.00    +0.000 NA
ATOM      6  C   UNL     1       3.964   5.657  19.483  0.00  0.00    +0.000 C 
ATOM      7  C   UNL     1       2.441   5.913  19.644  0.00  0.00    +0.000 C 
BRANCH   2  11
ATOM      8  C   UNL     1       0.648  10.204  21.630  0.00  0.00    +0.000 A 
ATOM      9  C   UNL     1       1.069   8.973  22.121  0.00  0.00    +0.000 A 
ATOM     10  C   UNL     1       1.545   7.991  21.248  0.00  0.00    +0.000 A 
ATOM     11  C   UNL     1       1.587   8.200  19.863  0.00  0.00    +0.000 A 
ATOM     12  C   UNL     1       1.134   9.436  19.388  0.00  0.00    +0.000 A 
ATOM     13  C   UNL     1       0.668  10.430  20.257  0.00  0.00    +0.000 A 
BRANCH   8  15
ATOM     14  C   UNL     1      -0.679  12.096  22.073  0.00  0.00    +0.000 C 
ATOM     15  O   UNL     1       0.204  11.095  22.566  0.00  0.00    +0.000 OA
ENDBRANCH   8  15
ENDBRANCH   2  11
ENDBRANCH   1   5
BRANCH   1  16
ATOM     16  C   UNL     1       5.057   3.978  16.500  0.00  0.00    +0.000 C 
BRANCH  16  17
ATOM     17  C   UNL     1       6.209   4.847  15.957  0.00  0.00    +0.000 C 
BRANCH  17  18
ATOM     18  C   UNL     1       6.474   4.598  14.484  0.00  0.00    +0.000 A 
ATOM     19  C   UNL     1       5.711   3.661  13.770  0.00  0.00    +0.000 A 
ATOM     20  C   UNL     1       5.988   3.403  12.425  0.00  0.00    +0.000 A 
ATOM     21  C   UNL     1       7.025   4.076  11.783  0.00  0.00    +0.000 A 
ATOM     22  C   UNL     1       7.783   5.016  12.477  0.00  0.00    +0.000 A 
ATOM     23  C   UNL     1       7.504   5.280  13.816  0.00  0.00    +0.000 A 
ENDBRANCH  17  18
BRANCH  17  24
ATOM     24  O   UNL     1       7.435   4.521  16.645  0.00  0.00    +0.000 OA
BRANCH  24  25
ATOM     25  C   UNL     1       7.660   5.171  17.803  0.00  0.00    +0.000 C 
ATOM     26  N   UNL     1       7.682   6.503  17.580  0.00  0.00    +0.000 N 
ATOM     27  O   UNL     1       7.814   4.666  18.903  0.00  0.00    +0.000 OA
ATOM     28  H   UNL     1       7.457   6.857  16.663  0.00  0.00    +0.000 HD
ATOM     29  H   UNL     1       7.769   7.132  18.365  0.00  0.00    +0.000 HD
ENDBRANCH  24  25
ENDBRANCH  17  24
ENDBRANCH  16  17
ENDBRANCH   1  16
TORSDOF 8
ENDMDL
MODEL 2
REMARK VINA RESULT:      -7.3      0.323      1.346
REMARK  Name = 
REMARK  9 active torsions:
REMARK  status: ('A' for Active; 'I' for Inactive)
REMARK    1  A    between atoms: C_1  and  O_2
REMARK    2  A    between atoms: O_2  and  C_3
REMARK    3  A    between atoms: C_6  and  N_7
REMARK    4  A    between atoms: N_10  and  C_11
REMARK    5  A    between atoms: C_11  and  C_12
REMARK    6  A    between atoms: C_12  and  C_13
REMARK    7  A    between atoms: C_13  and  O_14
REMARK    8  A    between atoms: C_13  and  C_18
REMARK    9  A    between atoms: O_14  and  C_15
REMARK                            x       y       z     vdW  Elec       q    Type
REMARK                         _______ _______ _______ _____ _____    ______ ____
ROOT
ATOM      1  C   UNL     1       4.122   4.845  17.318  0.00  0.00    +0.000 C 
ENDROOT
BRANCH   1   5
ATOM      2  N   UNL     1       2.077   7.207  19.050  0.00  0.00    +0.000 N 
ATOM      3  C   UNL     1       2.623   7.482  17.711  0.00  0.00    +0.000 C 
ATOM      4  C   UNL     1       4.151   7.292  17.673  0.00  0.00    +0.000 C 
ATOM      5  N   UNL     1       4.607   5.966  18.152  0.00  0.00    +0.000 NA
ATOM      6  C   UNL     1       4.110   5.823  19.548  0.00  0.00    +0.000 C 
ATOM      7  C   UNL     1       2.578   5.996  19.730  0.00  0.00    +0.000 C 
BRANCH   2  11
ATOM      8  C   UNL     1       0.634  10.397  21.403  0.00  0.00    +0.000 A 
ATOM      9  C   UNL     1       0.804  10.542  20.030  0.00  0.00    +0.000 A 
ATOM     10  C   UNL     1       1.262   9.469  19.259  0.00  0.00    +0.000 A 
ATOM     11  C   UNL     1       1.590   8.236  19.841  0.00  0.00    +0.000 A 
ATOM     12  C   UNL     1       1.437   8.122  21.227  0.00  0.00    +0.000 A 
ATOM     13  C   UNL     1       0.966   9.186  22.004  0.00  0.00    +0.000 A 
BRANCH   8  15
ATOM     14  C   UNL     1       0.091  12.683  21.272  0.00  0.00    +0.000 C 
ATOM     15  O   UNL     1       0.178  11.503  22.063  0.00  0.00    +0.000 OA
ENDBRANCH   8  15
ENDBRANCH   2  11
ENDBRANCH   1   5
BRANCH   1  16
ATOM     16  C   UNL     1       5.244   4.057  16.625  0.00  0.00    +0.000 C 
BRANCH  16  17
ATOM     17  C   UNL     1       6.309   4.972  15.987  0.00  0.00    +0.000 C 
BRANCH  17  18
ATOM     18  C   UNL     1       6.552   4.644  14.526  0.00  0.00    +0.000 A 
ATOM     19  C   UNL     1       7.595   5.262  13.820  0.00  0.00    +0.000 A 
ATOM     20  C   UNL     1       7.788   4.991  12.462  0.00  0.00    +0.000 A 
ATOM     21  C   UNL     1       6.943   4.101  11.802  0.00  0.00    +0.000 A 
ATOM     22  C   UNL     1       5.910   3.473  12.493  0.00  0.00    +0.000 A 
ATOM     23  C   UNL     1       5.721   3.737  13.848  0.00  0.00    +0.000 A 
ENDBRANCH  17  18
BRANCH  17  24
ATOM     24  O   UNL     1       7.576   4.789  16.654  0.00  0.00    +0.000 OA
BRANCH  24  25
ATOM     25  C   UNL     1       7.676   5.303  17.896  0.00  0.00    +0.000 C 
ATOM     26  N   UNL     1       7.643   6.652  17.833  0.00  0.00    +0.000 N 
ATOM     27  O   UNL     1       7.772   4.676  18.937  0.00  0.00    +0.000 OA
ATOM     28  H   UNL     1       7.471   7.104  16.948  0.00  0.00    +0.000 HD
ATOM     29  H   UNL     1       7.636   7.184  18.690  0.00  0.00    +0.000 HD
ENDBRANCH  24  25
ENDBRANCH  17  24
ENDBRANCH  16  17
ENDBRANCH   1  16
TORSDOF 8
ENDMDL
MODEL 3
REMARK VINA RESULT:      -7.3      1.071      1.803
REMARK  Name = 
REMARK  9 active torsions:
REMARK  status: ('A' for Active; 'I' for Inactive)
REMARK    1  A    between atoms: C_1  and  O_2
REMARK    2  A    between atoms: O_2  and  C_3
REMARK    3  A    between atoms: C_6  and  N_7
REMARK    4  A    between atoms: N_10  and  C_11
REMARK    5  A    between atoms: C_11  and  C_12
REMARK    6  A    between atoms: C_12  and  C_13
REMARK    7  A    between atoms: C_13  and  O_14
REMARK    8  A    between atoms: C_13  and  C_18
REMARK    9  A    between atoms: O_14  and  C_15
REMARK                            x       y       z     vdW  Elec       q    Type
REMARK                         _______ _______ _______ _____ _____    ______ ____
ROOT
ATOM      1  C   UNL     1       4.279   3.918  17.072  0.00  0.00    +0.000 C 
ENDROOT
BRANCH   1   5
ATOM      2  N   UNL     1       2.597   6.763  18.428  0.00  0.00    +0.000 N 
ATOM      3  C   UNL     1       4.064   6.645  18.439  0.00  0.00    +0.000 C 
ATOM      4  C   UNL     1       4.521   5.325  19.090  0.00  0.00    +0.000 C 
ATOM      5  N   UNL     1       3.912   4.115  18.491  0.00  0.00    +0.000 NA
ATOM      6  C   UNL     1       2.437   4.267  18.627  0.00  0.00    +0.000 C 
ATOM      7  C   UNL     1       1.842   5.563  18.014  0.00  0.00    +0.000 C 
BRANCH   2  11
ATOM      8  C   UNL     1       0.676   9.617  20.869  0.00  0.00    +0.000 A 
ATOM      9  C   UNL     1       0.920   9.875  19.524  0.00  0.00    +0.000 A 
ATOM     10  C   UNL     1       1.538   8.911  18.722  0.00  0.00    +0.000 A 
ATOM     11  C   UNL     1       1.953   7.679  19.245  0.00  0.00    +0.000 A 
ATOM     12  C   UNL     1       1.722   7.451  20.606  0.00  0.00    +0.000 A 
ATOM     13  C   UNL     1       1.092   8.406  21.414  0.00  0.00    +0.000 A 
BRANCH   8  15
ATOM     14  C   UNL     1      -0.418  10.257  22.852  0.00  0.00    +0.000 C 
ATOM     15  O   UNL     1       0.064  10.622  21.564  0.00  0.00    +0.000 OA
ENDBRANCH   8  15
ENDBRANCH   2  11
ENDBRANCH   1   5
BRANCH   1  16
ATOM     16  C   UNL     1       5.794   3.826  16.830  0.00  0.00    +0.000 C 
BRANCH  16  17
ATOM     17  C   UNL     1       6.347   5.033  16.047  0.00  0.00    +0.000 C 
BRANCH  17  18
ATOM     18  C   UNL     1       6.618   4.701  14.591  0.00  0.00    +0.000 A 
ATOM     19  C   UNL     1       7.572   5.425  13.860  0.00  0.00    +0.000 A 
ATOM     20  C   UNL     1       7.787   5.145  12.507  0.00  0.00    +0.000 A 
ATOM     21  C   UNL     1       7.054   4.143  11.877  0.00  0.00    +0.000 A 
ATOM     22  C   UNL     1       6.111   3.410  12.593  0.00  0.00    +0.000 A 
ATOM     23  C   UNL     1       5.901   3.682  13.943  0.00  0.00    +0.000 A 
ENDBRANCH  17  18
BRANCH  17  24
ATOM     24  O   UNL     1       7.612   5.442  16.606  0.00  0.00    +0.000 OA
BRANCH  24  25
ATOM     25  C   UNL     1       7.576   6.473  17.473  0.00  0.00    +0.000 C 
ATOM     26  N   UNL     1       7.144   7.585  16.839  0.00  0.00    +0.000 N 
ATOM     27  O   UNL     1       7.871   6.440  18.656  0.00  0.00    +0.000 OA
ATOM     28  H   UNL     1       6.831   7.522  15.882  0.00  0.00    +0.000 HD
ATOM     29  H   UNL     1       6.993   8.428  17.372  0.00  0.00    +0.000 HD
ENDBRANCH  24  25
ENDBRANCH  17  24
ENDBRANCH  16  17
ENDBRANCH   1  16
TORSDOF 8
ENDMDL
MODEL 4
REMARK VINA RESULT:      -7.1      1.921      3.376
REMARK  Name = 
REMARK  9 active torsions:
REMARK  status: ('A' for Active; 'I' for Inactive)
REMARK    1  A    between atoms: C_1  and  O_2
REMARK    2  A    between atoms: O_2  and  C_3
REMARK    3  A    between atoms: C_6  and  N_7
REMARK    4  A    between atoms: N_10  and  C_11
REMARK    5  A    between atoms: C_11  and  C_12
REMARK    6  A    between atoms: C_12  and  C_13
REMARK    7  A    between atoms: C_13  and  O_14
REMARK    8  A    between atoms: C_13  and  C_18
REMARK    9  A    between atoms: O_14  and  C_15
REMARK                            x       y       z     vdW  Elec       q    Type
REMARK                         _______ _______ _______ _____ _____    ______ ____
ROOT
ATOM      1  C   UNL     1       4.035   3.713  18.061  0.00  0.00    +0.000 C 
ENDROOT
BRANCH   1   5
ATOM      2  N   UNL     1       2.715   6.812  19.248  0.00  0.00    +0.000 N 
ATOM      3  C   UNL     1       3.328   5.827  20.154  0.00  0.00    +0.000 C 
ATOM      4  C   UNL     1       2.682   4.437  19.999  0.00  0.00    +0.000 C 
ATOM      5  N   UNL     1       2.678   3.924  18.609  0.00  0.00    +0.000 NA
ATOM      6  C   UNL     1       1.940   4.924  17.788  0.00  0.00    +0.000 C 
ATOM      7  C   UNL     1       2.487   6.375  17.856  0.00  0.00    +0.000 C 
BRANCH   2  11
ATOM      8  C   UNL     1       0.229   9.843  20.807  0.00  0.00    +0.000 A 
ATOM      9  C   UNL     1       0.570   8.734  21.574  0.00  0.00    +0.000 A 
ATOM     10  C   UNL     1       1.412   7.747  21.052  0.00  0.00    +0.000 A 
ATOM     11  C   UNL     1       1.913   7.828  19.744  0.00  0.00    +0.000 A 
ATOM     12  C   UNL     1       1.535   8.939  18.982  0.00  0.00    +0.000 A 
ATOM     13  C   UNL     1       0.703   9.937  19.502  0.00  0.00    +0.000 A 
BRANCH   8  15
ATOM     14  C   UNL     1      -0.805  10.539  22.803  0.00  0.00    +0.000 C 
ATOM     15  O   UNL     1      -0.596  10.750  21.411  0.00  0.00    +0.000 OA
ENDBRANCH   8  15
ENDBRANCH   2  11
ENDBRANCH   1   5
BRANCH   1  16
ATOM     16  C   UNL     1       4.086   3.688  16.525  0.00  0.00    +0.000 C 
BRANCH  16  17
ATOM     17  C   UNL     1       5.492   3.993  15.970  0.00  0.00    +0.000 C 
BRANCH  17  18
ATOM     18  C   UNL     1       6.248   4.988  16.830  0.00  0.00    +0.000 A 
ATOM     19  C   UNL     1       6.003   6.365  16.711  0.00  0.00    +0.000 A 
ATOM     20  C   UNL     1       6.733   7.282  17.473  0.00  0.00    +0.000 A 
ATOM     21  C   UNL     1       7.710   6.832  18.359  0.00  0.00    +0.000 A 
ATOM     22  C   UNL     1       7.956   5.468  18.495  0.00  0.00    +0.000 A 
ATOM     23  C   UNL     1       7.224   4.552  17.741  0.00  0.00    +0.000 A 
ENDBRANCH  17  18
BRANCH  17  24
ATOM     24  O   UNL     1       5.383   4.596  14.664  0.00  0.00    +0.000 OA
BRANCH  24  25
ATOM     25  C   UNL     1       6.438   4.430  13.841  0.00  0.00    +0.000 C 
ATOM     26  N   UNL     1       6.295   3.282  13.144  0.00  0.00    +0.000 N 
ATOM     27  O   UNL     1       7.387   5.186  13.714  0.00  0.00    +0.000 OA
ATOM     28  H   UNL     1       5.442   2.750  13.231  0.00  0.00    +0.000 HD
ATOM     29  H   UNL     1       6.971   3.053  12.430  0.00  0.00    +0.000 HD
ENDBRANCH  24  25
ENDBRANCH  17  24
ENDBRANCH  16  17
ENDBRANCH   1  16
TORSDOF 8
ENDMDL
MODEL 5
REMARK VINA RESULT:      -7.0      0.907      1.102
REMARK  Name = 
REMARK  9 active torsions:
REMARK  status: ('A' for Active; 'I' for Inactive)
REMARK    1  A    between atoms: C_1  and  O_2
REMARK    2  A    between atoms: O_2  and  C_3
REMARK    3  A    between atoms: C_6  and  N_7
REMARK    4  A    between atoms: N_10  and  C_11
REMARK    5  A    between atoms: C_11  and  C_12
REMARK    6  A    between atoms: C_12  and  C_13
REMARK    7  A    between atoms: C_13  and  O_14
REMARK    8  A    between atoms: C_13  and  C_18
REMARK    9  A    between atoms: O_14  and  C_15
REMARK                            x       y       z     vdW  Elec       q    Type
REMARK                         _______ _______ _______ _____ _____    ______ ____
ROOT
ATOM      1  C   UNL     1       4.032   3.870  16.965  0.00  0.00    +0.000 C 
ENDROOT
BRANCH   1   5
ATOM      2  N   UNL     1       2.528   6.860  18.211  0.00  0.00    +0.000 N 
ATOM      3  C   UNL     1       3.987   6.670  18.193  0.00  0.00    +0.000 C 
ATOM      4  C   UNL     1       4.396   5.364  18.901  0.00  0.00    +0.000 C 
ATOM      5  N   UNL     1       3.714   4.156  18.381  0.00  0.00    +0.000 NA
ATOM      6  C   UNL     1       2.252   4.389  18.544  0.00  0.00    +0.000 C 
ATOM      7  C   UNL     1       1.705   5.680  17.878  0.00  0.00    +0.000 C 
BRANCH   2  11
ATOM      8  C   UNL     1       0.738   9.803  20.647  0.00  0.00    +0.000 A 
ATOM      9  C   UNL     1       1.164   8.593  21.184  0.00  0.00    +0.000 A 
ATOM     10  C   UNL     1       1.775   7.635  20.369  0.00  0.00    +0.000 A 
ATOM     11  C   UNL     1       1.952   7.848  18.995  0.00  0.00    +0.000 A 
ATOM     12  C   UNL     1       1.492   9.061  18.471  0.00  0.00    +0.000 A 
ATOM     13  C   UNL     1       0.891  10.030  19.282  0.00  0.00    +0.000 A 
BRANCH   8  15
ATOM     14  C   UNL     1       0.396  12.048  21.262  0.00  0.00    +0.000 C 
ATOM     15  O   UNL     1       0.157  10.670  21.528  0.00  0.00    +0.000 OA
ENDBRANCH   8  15
ENDBRANCH   2  11
ENDBRANCH   1   5
BRANCH   1  16
ATOM     16  C   UNL     1       5.508   3.518  16.721  0.00  0.00    +0.000 C 
BRANCH  16  17
ATOM     17  C   UNL     1       6.308   4.690  16.118  0.00  0.00    +0.000 C 
BRANCH  17  18
ATOM     18  C   UNL     1       6.540   4.524  14.628  0.00  0.00    +0.000 A 
ATOM     19  C   UNL     1       5.794   3.592  13.890  0.00  0.00    +0.000 A 
ATOM     20  C   UNL     1       6.041   3.410  12.526  0.00  0.00    +0.000 A 
ATOM     21  C   UNL     1       7.032   4.156  11.891  0.00  0.00    +0.000 A 
ATOM     22  C   UNL     1       7.773   5.091  12.609  0.00  0.00    +0.000 A 
ATOM     23  C   UNL     1       7.522   5.279  13.967  0.00  0.00    +0.000 A 
ENDBRANCH  17  18
BRANCH  17  24
ATOM     24  O   UNL     1       7.617   4.751  16.722  0.00  0.00    +0.000 OA
BRANCH  24  25
ATOM     25  C   UNL     1       7.697   5.382  17.910  0.00  0.00    +0.000 C 
ATOM     26  N   UNL     1       7.563   6.714  17.728  0.00  0.00    +0.000 N 
ATOM     27  O   UNL     1       7.855   4.861  19.002  0.00  0.00    +0.000 OA
ATOM     28  H   UNL     1       7.344   7.070  16.810  0.00  0.00    +0.000 HD
ATOM     29  H   UNL     1       7.528   7.320  18.534  0.00  0.00    +0.000 HD
ENDBRANCH  24  25
ENDBRANCH  17  24
ENDBRANCH  16  17
ENDBRANCH   1  16
TORSDOF 8
ENDMDL
MODEL 6
REMARK VINA RESULT:      -6.8      1.075      1.809
REMARK  Name = 
REMARK  9 active torsions:
REMARK  status: ('A' for Active; 'I' for Inactive)
REMARK    1  A    between atoms: C_1  and  O_2
REMARK    2  A    between atoms: O_2  and  C_3
REMARK    3  A    between atoms: C_6  and  N_7
REMARK    4  A    between atoms: N_10  and  C_11
REMARK    5  A    between atoms: C_11  and  C_12
REMARK    6  A    between atoms: C_12  and  C_13
REMARK    7  A    between atoms: C_13  and  O_14
REMARK    8  A    between atoms: C_13  and  C_18
REMARK    9  A    between atoms: O_14  and  C_15
REMARK                            x       y       z     vdW  Elec       q    Type
REMARK                         _______ _______ _______ _____ _____    ______ ____
ROOT
ATOM      1  C   UNL     1       4.640   3.397  17.732  0.00  0.00    +0.000 C 
ENDROOT
BRANCH   1   5
ATOM      2  N   UNL     1       3.116   6.414  18.887  0.00  0.00    +0.000 N 
ATOM      3  C   UNL     1       3.957   5.581  19.761  0.00  0.00    +0.000 C 
ATOM      4  C   UNL     1       3.471   4.119  19.787  0.00  0.00    +0.000 C 
ATOM      5  N   UNL     1       3.349   3.499  18.447  0.00  0.00    +0.000 NA
ATOM      6  C   UNL     1       2.395   4.340  17.673  0.00  0.00    +0.000 C 
ATOM      7  C   UNL     1       2.766   5.844  17.570  0.00  0.00    +0.000 C 
BRANCH   2  11
ATOM      8  C   UNL     1       0.579   9.387  20.473  0.00  0.00    +0.000 A 
ATOM      9  C   UNL     1       1.133   9.523  19.205  0.00  0.00    +0.000 A 
ATOM     10  C   UNL     1       1.955   8.520  18.683  0.00  0.00    +0.000 A 
ATOM     11  C   UNL     1       2.267   7.370  19.422  0.00  0.00    +0.000 A 
ATOM     12  C   UNL     1       1.720   7.267  20.706  0.00  0.00    +0.000 A 
ATOM     13  C   UNL     1       0.886   8.261  21.230  0.00  0.00    +0.000 A 
BRANCH   8  15
ATOM     14  C   UNL     1      -0.220  11.556  20.027  0.00  0.00    +0.000 C 
ATOM     15  O   UNL     1      -0.212  10.422  20.887  0.00  0.00    +0.000 OA
ENDBRANCH   8  15
ENDBRANCH   2  11
ENDBRANCH   1   5
BRANCH   1  16
ATOM     16  C   UNL     1       4.606   3.974  16.308  0.00  0.00    +0.000 C 
BRANCH  16  17
ATOM     17  C   UNL     1       5.897   4.732  15.942  0.00  0.00    +0.000 C 
BRANCH  17  18
ATOM     18  C   UNL     1       6.293   4.530  14.491  0.00  0.00    +0.000 A 
ATOM     19  C   UNL     1       5.590   3.626  13.680  0.00  0.00    +0.000 A 
ATOM     20  C   UNL     1       5.986   3.410  12.356  0.00  0.00    +0.000 A 
ATOM     21  C   UNL     1       7.083   4.093  11.835  0.00  0.00    +0.000 A 
ATOM     22  C   UNL     1       7.783   5.000  12.626  0.00  0.00    +0.000 A 
ATOM     23  C   UNL     1       7.385   5.223  13.943  0.00  0.00    +0.000 A 
ENDBRANCH  17  18
BRANCH  17  24
ATOM     24  O   UNL     1       6.999   4.235  16.730  0.00  0.00    +0.000 OA
BRANCH  24  25
ATOM     25  C   UNL     1       7.445   5.045  17.710  0.00  0.00    +0.000 C 
ATOM     26  N   UNL     1       7.483   6.320  17.264  0.00  0.00    +0.000 N 
ATOM     27  O   UNL     1       7.764   4.713  18.840  0.00  0.00    +0.000 OA
ATOM     28  H   UNL     1       7.119   6.537  16.349  0.00  0.00    +0.000 HD
ATOM     29  H   UNL     1       7.728   7.058  17.906  0.00  0.00    +0.000 HD
ENDBRANCH  24  25
ENDBRANCH  17  24
ENDBRANCH  16  17
ENDBRANCH   1  16
TORSDOF 8
ENDMDL
MODEL 7
REMARK VINA RESULT:      -6.8      0.952      1.413
REMARK  Name = 
REMARK  9 active torsions:
REMARK  status: ('A' for Active; 'I' for Inactive)
REMARK    1  A    between atoms: C_1  and  O_2
REMARK    2  A    between atoms: O_2  and  C_3
REMARK    3  A    between atoms: C_6  and  N_7
REMARK    4  A    between atoms: N_10  and  C_11
REMARK    5  A    between atoms: C_11  and  C_12
REMARK    6  A    between atoms: C_12  and  C_13
REMARK    7  A    between atoms: C_13  and  O_14
REMARK    8  A    between atoms: C_13  and  C_18
REMARK    9  A    between atoms: O_14  and  C_15
REMARK                            x       y       z     vdW  Elec       q    Type
REMARK                         _______ _______ _______ _____ _____    ______ ____
ROOT
ATOM      1  C   UNL     1       4.516   3.959  18.058  0.00  0.00    +0.000 C 
ENDROOT
BRANCH   1   5
ATOM      2  N   UNL     1       2.889   6.838  19.407  0.00  0.00    +0.000 N 
ATOM      3  C   UNL     1       3.005   5.582  20.165  0.00  0.00    +0.000 C 
ATOM      4  C   UNL     1       2.459   4.385  19.362  0.00  0.00    +0.000 C 
ATOM      5  N   UNL     1       3.064   4.233  18.018  0.00  0.00    +0.000 NA
ATOM      6  C   UNL     1       2.798   5.502  17.285  0.00  0.00    +0.000 C 
ATOM      7  C   UNL     1       3.296   6.793  17.989  0.00  0.00    +0.000 C 
BRANCH   2  11
ATOM      8  C   UNL     1       0.070   9.739  20.606  0.00  0.00    +0.000 A 
ATOM      9  C   UNL     1       0.416   8.688  21.449  0.00  0.00    +0.000 A 
ATOM     10  C   UNL     1       1.368   7.746  21.047  0.00  0.00    +0.000 A 
ATOM     11  C   UNL     1       1.977   7.811  19.786  0.00  0.00    +0.000 A 
ATOM     12  C   UNL     1       1.594   8.862  18.944  0.00  0.00    +0.000 A 
ATOM     13  C   UNL     1       0.652   9.816  19.344  0.00  0.00    +0.000 A 
BRANCH   8  15
ATOM     14  C   UNL     1      -1.037  11.797  20.336  0.00  0.00    +0.000 C 
ATOM     15  O   UNL     1      -0.866  10.606  21.095  0.00  0.00    +0.000 OA
ENDBRANCH   8  15
ENDBRANCH   2  11
ENDBRANCH   1   5
BRANCH   1  16
ATOM     16  C   UNL     1       5.116   3.594  16.691  0.00  0.00    +0.000 C 
BRANCH  16  17
ATOM     17  C   UNL     1       6.134   4.638  16.189  0.00  0.00    +0.000 C 
BRANCH  17  18
ATOM     18  C   UNL     1       6.416   4.501  14.705  0.00  0.00    +0.000 A 
ATOM     19  C   UNL     1       5.647   3.638  13.910  0.00  0.00    +0.000 A 
ATOM     20  C   UNL     1       5.938   3.481  12.551  0.00  0.00    +0.000 A 
ATOM     21  C   UNL     1       6.996   4.184  11.979  0.00  0.00    +0.000 A 
ATOM     22  C   UNL     1       7.760   5.052  12.754  0.00  0.00    +0.000 A 
ATOM     23  C   UNL     1       7.466   5.215  14.106  0.00  0.00    +0.000 A 
ENDBRANCH  17  18
BRANCH  17  24
ATOM     24  O   UNL     1       7.399   4.449  16.856  0.00  0.00    +0.000 OA
BRANCH  24  25
ATOM     25  C   UNL     1       7.653   5.266  17.897  0.00  0.00    +0.000 C 
ATOM     26  N   UNL     1       7.665   6.550  17.475  0.00  0.00    +0.000 N 
ATOM     27  O   UNL     1       7.838   4.932  19.056  0.00  0.00    +0.000 OA
ATOM     28  H   UNL     1       7.415   6.762  16.522  0.00  0.00    +0.000 HD
ATOM     29  H   UNL     1       7.771   7.289  18.154  0.00  0.00    +0.000 HD
ENDBRANCH  24  25
ENDBRANCH  17  24
ENDBRANCH  16  17
ENDBRANCH   1  16
TORSDOF 8
ENDMDL
MODEL 8
REMARK VINA RESULT:      -6.8      0.812      1.227
REMARK  Name = 
REMARK  9 active torsions:
REMARK  status: ('A' for Active; 'I' for Inactive)
REMARK    1  A    between atoms: C_1  and  O_2
REMARK    2  A    between atoms: O_2  and  C_3
REMARK    3  A    between atoms: C_6  and  N_7
REMARK    4  A    between atoms: N_10  and  C_11
REMARK    5  A    between atoms: C_11  and  C_12
REMARK    6  A    between atoms: C_12  and  C_13
REMARK    7  A    between atoms: C_13  and  O_14
REMARK    8  A    between atoms: C_13  and  C_18
REMARK    9  A    between atoms: O_14  and  C_15
REMARK                            x       y       z     vdW  Elec       q    Type
REMARK                         _______ _______ _______ _____ _____    ______ ____
ROOT
ATOM      1  C   UNL     1       4.035   4.412  17.201  0.00  0.00    +0.000 C 
ENDROOT
BRANCH   1   5
ATOM      2  N   UNL     1       2.130   7.005  18.752  0.00  0.00    +0.000 N 
ATOM      3  C   UNL     1       3.210   7.296  17.795  0.00  0.00    +0.000 C 
ATOM      4  C   UNL     1       4.530   6.615  18.207  0.00  0.00    +0.000 C 
ATOM      5  N   UNL     1       4.413   5.154  18.423  0.00  0.00    +0.000 NA
ATOM      6  C   UNL     1       3.386   4.960  19.484  0.00  0.00    +0.000 C 
ATOM      7  C   UNL     1       2.003   5.603  19.196  0.00  0.00    +0.000 C 
BRANCH   2  11
ATOM      8  C   UNL     1       0.686  10.077  21.257  0.00  0.00    +0.000 A 
ATOM      9  C   UNL     1       0.856  10.288  19.893  0.00  0.00    +0.000 A 
ATOM     10  C   UNL     1       1.315   9.254  19.071  0.00  0.00    +0.000 A 
ATOM     11  C   UNL     1       1.642   7.994  19.592  0.00  0.00    +0.000 A 
ATOM     12  C   UNL     1       1.489   7.812  20.970  0.00  0.00    +0.000 A 
ATOM     13  C   UNL     1       1.017   8.838  21.798  0.00  0.00    +0.000 A 
BRANCH   8  15
ATOM     14  C   UNL     1      -0.768  10.847  22.940  0.00  0.00    +0.000 C 
ATOM     15  O   UNL     1       0.230  11.149  21.970  0.00  0.00    +0.000 OA
ENDBRANCH   8  15
ENDBRANCH   2  11
ENDBRANCH   1   5
BRANCH   1  16
ATOM     16  C   UNL     1       5.222   3.742  16.491  0.00  0.00    +0.000 C 
BRANCH  16  17
ATOM     17  C   UNL     1       6.163   4.759  15.815  0.00  0.00    +0.000 C 
BRANCH  17  18
ATOM     18  C   UNL     1       6.353   4.476  14.337  0.00  0.00    +0.000 A 
ATOM     19  C   UNL     1       5.426   3.688  13.637  0.00  0.00    +0.000 A 
ATOM     20  C   UNL     1       5.628   3.392  12.286  0.00  0.00    +0.000 A 
ATOM     21  C   UNL     1       6.753   3.879  11.625  0.00  0.00    +0.000 A 
ATOM     22  C   UNL     1       7.676   4.670  12.304  0.00  0.00    +0.000 A 
ATOM     23  C   UNL     1       7.472   4.973  13.649  0.00  0.00    +0.000 A 
ENDBRANCH  17  18
BRANCH  17  24
ATOM     24  O   UNL     1       7.476   4.683  16.409  0.00  0.00    +0.000 OA
BRANCH  24  25
ATOM     25  C   UNL     1       7.637   5.322  17.584  0.00  0.00    +0.000 C 
ATOM     26  N   UNL     1       7.352   4.480  18.602  0.00  0.00    +0.000 N 
ATOM     27  O   UNL     1       7.993   6.478  17.741  0.00  0.00    +0.000 OA
ATOM     28  H   UNL     1       7.152   3.512  18.405  0.00  0.00    +0.000 HD
ATOM     29  H   UNL     1       7.496   4.791  19.551  0.00  0.00    +0.000 HD
ENDBRANCH  24  25
ENDBRANCH  17  24
ENDBRANCH  16  17
ENDBRANCH   1  16
TORSDOF 8
ENDMDL
MODEL 9
REMARK VINA RESULT:      -6.8      1.226      2.102
REMARK  Name = 
REMARK  9 active torsions:
REMARK  status: ('A' for Active; 'I' for Inactive)
REMARK    1  A    between atoms: C_1  and  O_2
REMARK    2  A    between atoms: O_2  and  C_3
REMARK    3  A    between atoms: C_6  and  N_7
REMARK    4  A    between atoms: N_10  and  C_11
REMARK    5  A    between atoms: C_11  and  C_12
REMARK    6  A    between atoms: C_12  and  C_13
REMARK    7  A    between atoms: C_13  and  O_14
REMARK    8  A    between atoms: C_13  and  C_18
REMARK    9  A    between atoms: O_14  and  C_15
REMARK                            x       y       z     vdW  Elec       q    Type
REMARK                         _______ _______ _______ _____ _____    ______ ____
ROOT
ATOM      1  C   UNL     1       4.535   3.383  17.677  0.00  0.00    +0.000 C 
ENDROOT
BRANCH   1   5
ATOM      2  N   UNL     1       3.070   6.413  18.872  0.00  0.00    +0.000 N 
ATOM      3  C   UNL     1       3.955   5.590  19.712  0.00  0.00    +0.000 C 
ATOM      4  C   UNL     1       3.472   4.128  19.780  0.00  0.00    +0.000 C 
ATOM      5  N   UNL     1       3.283   3.493  18.455  0.00  0.00    +0.000 NA
ATOM      6  C   UNL     1       2.290   4.325  17.721  0.00  0.00    +0.000 C 
ATOM      7  C   UNL     1       2.653   5.828  17.582  0.00  0.00    +0.000 C 
BRANCH   2  11
ATOM      8  C   UNL     1       0.615   9.404  20.551  0.00  0.00    +0.000 A 
ATOM      9  C   UNL     1       1.112   9.530  19.258  0.00  0.00    +0.000 A 
ATOM     10  C   UNL     1       1.907   8.521  18.707  0.00  0.00    +0.000 A 
ATOM     11  C   UNL     1       2.249   7.375  19.439  0.00  0.00    +0.000 A 
ATOM     12  C   UNL     1       1.760   7.282  20.746  0.00  0.00    +0.000 A 
ATOM     13  C   UNL     1       0.952   8.282  21.301  0.00  0.00    +0.000 A 
BRANCH   8  15
ATOM     14  C   UNL     1       0.367  11.739  20.715  0.00  0.00    +0.000 C 
ATOM     15  O   UNL     1      -0.154  10.444  20.994  0.00  0.00    +0.000 OA
ENDBRANCH   8  15
ENDBRANCH   2  11
ENDBRANCH   1   5
BRANCH   1  16
ATOM     16  C   UNL     1       4.476   4.078  16.307  0.00  0.00    +0.000 C 
BRANCH  16  17
ATOM     17  C   UNL     1       5.775   4.836  15.967  0.00  0.00    +0.000 C 
BRANCH  17  18
ATOM     18  C   UNL     1       6.253   4.557  14.554  0.00  0.00    +0.000 A 
ATOM     19  C   UNL     1       7.369   5.229  14.033  0.00  0.00    +0.000 A 
ATOM     20  C   UNL     1       7.779   5.002  12.716  0.00  0.00    +0.000 A 
ATOM     21  C   UNL     1       7.080   4.105  11.912  0.00  0.00    +0.000 A 
ATOM     22  C   UNL     1       5.976   3.423  12.419  0.00  0.00    +0.000 A 
ATOM     23  C   UNL     1       5.571   3.643  13.734  0.00  0.00    +0.000 A 
ENDBRANCH  17  18
BRANCH  17  24
ATOM     24  O   UNL     1       6.839   4.403  16.841  0.00  0.00    +0.000 OA
BRANCH  24  25
ATOM     25  C   UNL     1       7.355   5.340  17.661  0.00  0.00    +0.000 C 
ATOM     26  N   UNL     1       7.755   4.763  18.815  0.00  0.00    +0.000 N 
ATOM     27  O   UNL     1       7.467   6.531  17.425  0.00  0.00    +0.000 OA
ATOM     28  H   UNL     1       7.716   3.759  18.909  0.00  0.00    +0.000 HD
ATOM     29  H   UNL     1       8.231   5.324  19.506  0.00  0.00    +0.000 HD
ENDBRANCH  24  25
ENDBRANCH  17  24
ENDBRANCH  16  17
ENDBRANCH   1  16
TORSDOF 8
ENDMDL
