MODEL 1
REMARK VINA RESULT:      -8.0      0.000      0.000
REMARK  Name = 
REMARK  9 active torsions:
REMARK  status: ('A' for Active; 'I' for Inactive)
REMARK    1  A    between atoms: C_1  and  C_2
REMARK    2  A    between atoms: C_2  and  C_3
REMARK    3  A    between atoms: C_3  and  C_4
REMARK    4  A    between atoms: C_4  and  N_5
REMARK    5  A    between atoms: N_5  and  C_6
REMARK    6  A    between atoms: N_5  and  S_7
REMARK    7  A    between atoms: S_7  and  C_10
REMARK    8  A    between atoms: C_13  and  C_14
REMARK    9  A    between atoms: C_20  and  C_21
REMARK                            x       y       z     vdW  Elec       q    Type
REMARK                         _______ _______ _______ _____ _____    ______ ____
ROOT
ATOM      1  C   UNL     1       3.668   5.278  18.652  0.00  0.00    +0.000 A 
ATOM      2  C   UNL     1       3.593   6.480  17.951  0.00  0.00    +0.000 A 
ATOM      3  C   UNL     1       2.840   7.540  18.477  0.00  0.00    +0.000 A 
ATOM      4  C   UNL     1       2.125   7.404  19.683  0.00  0.00    +0.000 A 
ATOM      5  C   UNL     1       2.208   6.187  20.375  0.00  0.00    +0.000 A 
ATOM      6  C   UNL     1       2.975   5.128  19.860  0.00  0.00    +0.000 A 
ENDROOT
BRANCH   4   7
ATOM      7  C   UNL     1       1.292   8.577  20.136  0.00  0.00    +0.000 C 
ATOM      8  O   UNL     1       0.981   9.419  19.305  0.00  0.00    +0.000 OA
ATOM      9  N   UNL     1       0.979   8.647  21.477  0.00  0.00    +0.000 N 
ATOM     10  C   UNL     1       0.252   9.684  21.997  0.00  0.00    +0.000 A 
ATOM     11  N   UNL     1       0.207  10.037  23.263  0.00  0.00    +0.000 NA
ATOM     12  N   UNL     1      -0.675  11.095  23.339  0.00  0.00    +0.000 NA
ATOM     13  C   UNL     1      -1.164  11.274  22.124  0.00  0.00    +0.000 A 
ATOM     14  O   UNL     1      -0.593  10.415  21.215  0.00  0.00    +0.000 OA
ATOM     15  H   UNL     1       1.422   8.066  22.167  0.00  0.00    +0.000 HD
BRANCH  13  16
ATOM     16  C   UNL     1      -2.226  12.186  21.817  0.00  0.00    +0.000 A 
ATOM     17  C   UNL     1      -3.161  12.727  22.687  0.00  0.00    +0.000 A 
ATOM     18  C   UNL     1      -4.028  13.543  21.923  0.00  0.00    +0.000 A 
ATOM     19  C   UNL     1      -3.578  13.462  20.629  0.00  0.00    +0.000 A 
ATOM     20  O   UNL     1      -2.491  12.652  20.552  0.00  0.00    +0.000 OA
ENDBRANCH  13  16
ENDBRANCH   4   7
BRANCH   1  21
ATOM     21  S   UNL     1       4.698   3.942  18.034  0.00  0.00    +0.000 S 
ATOM     22  O   UNL     1       3.823   2.969  17.425  0.00  0.00    +0.000 OA
ATOM     23  O   UNL     1       5.614   3.579  19.107  0.00  0.00    +0.000 OA
BRANCH  21  24
ATOM     24  N   UNL     1       5.606   4.696  16.770  0.00  0.00    +0.000 NA
ATOM     25  C   UNL     1       5.605   3.961  15.484  0.00  0.00    +0.000 C 
BRANCH  24  26
ATOM     26  C   UNL     1       6.971   5.092  17.231  0.00  0.00    +0.000 C 
BRANCH  26  27
ATOM     27  C   UNL     1       7.318   6.555  16.952  0.00  0.00    +0.000 C 
BRANCH  27  29
ATOM     28  C   UNL     1       8.088   8.744  17.920  0.00  0.00    +0.000 C 
ATOM     29  C   UNL     1       7.881   7.261  18.183  0.00  0.00    +0.000 C 
ENDBRANCH  27  29
ENDBRANCH  26  27
ENDBRANCH  24  26
ENDBRANCH  21  24
ENDBRANCH   1  21
TORSDOF 7
ENDMDL
MODEL 2
REMARK VINA RESULT:      -8.0      0.683      1.326
REMARK  Name = 
REMARK  9 active torsions:
REMARK  status: ('A' for Active; 'I' for Inactive)
REMARK    1  A    between atoms: C_1  and  C_2
REMARK    2  A    between atoms: C_2  and  C_3
REMARK    3  A    between atoms: C_3  and  C_4
REMARK    4  A    between atoms: C_4  and  N_5
REMARK    5  A    between atoms: N_5  and  C_6
REMARK    6  A    between atoms: N_5  and  S_7
REMARK    7  A    between atoms: S_7  and  C_10
REMARK    8  A    between atoms: C_13  and  C_14
REMARK    9  A    between atoms: C_20  and  C_21
REMARK                            x       y       z     vdW  Elec       q    Type
REMARK                         _______ _______ _______ _____ _____    ______ ____
ROOT
ATOM      1  C   UNL     1       3.654   5.343  18.602  0.00  0.00    +0.000 A 
ATOM      2  C   UNL     1       2.978   5.316  19.821  0.00  0.00    +0.000 A 
ATOM      3  C   UNL     1       2.212   6.425  20.209  0.00  0.00    +0.000 A 
ATOM      4  C   UNL     1       2.141   7.584  19.411  0.00  0.00    +0.000 A 
ATOM      5  C   UNL     1       2.829   7.596  18.189  0.00  0.00    +0.000 A 
ATOM      6  C   UNL     1       3.585   6.480  17.788  0.00  0.00    +0.000 A 
ENDROOT
BRANCH   4   7
ATOM      7  C   UNL     1       1.344   8.749  19.943  0.00  0.00    +0.000 C 
ATOM      8  O   UNL     1       1.110   9.680  19.186  0.00  0.00    +0.000 OA
ATOM      9  N   UNL     1       0.976   8.706  21.271  0.00  0.00    +0.000 N 
ATOM     10  C   UNL     1       0.276   9.725  21.860  0.00  0.00    +0.000 A 
ATOM     11  N   UNL     1       0.192   9.957  23.152  0.00  0.00    +0.000 NA
ATOM     12  N   UNL     1      -0.643  11.047  23.296  0.00  0.00    +0.000 NA
ATOM     13  C   UNL     1      -1.069  11.365  22.085  0.00  0.00    +0.000 A 
ATOM     14  O   UNL     1      -0.499  10.569  21.120  0.00  0.00    +0.000 OA
ATOM     15  H   UNL     1       1.362   8.041  21.918  0.00  0.00    +0.000 HD
BRANCH  13  16
ATOM     16  C   UNL     1      -2.073  12.354  21.827  0.00  0.00    +0.000 A 
ATOM     17  C   UNL     1      -2.716  12.621  20.627  0.00  0.00    +0.000 A 
ATOM     18  C   UNL     1      -3.599  13.704  20.852  0.00  0.00    +0.000 A 
ATOM     19  C   UNL     1      -3.455  14.038  22.175  0.00  0.00    +0.000 A 
ATOM     20  O   UNL     1      -2.543  13.230  22.774  0.00  0.00    +0.000 OA
ENDBRANCH  13  16
ENDBRANCH   4   7
BRANCH   1  21
ATOM     21  S   UNL     1       4.568   3.897  18.051  0.00  0.00    +0.000 S 
ATOM     22  O   UNL     1       3.613   2.973  17.489  0.00  0.00    +0.000 OA
ATOM     23  O   UNL     1       5.453   3.512  19.142  0.00  0.00    +0.000 OA
BRANCH  21  24
ATOM     24  N   UNL     1       5.532   4.511  16.753  0.00  0.00    +0.000 NA
ATOM     25  C   UNL     1       5.472   3.712  15.507  0.00  0.00    +0.000 C 
BRANCH  24  26
ATOM     26  C   UNL     1       6.925   4.821  17.198  0.00  0.00    +0.000 C 
BRANCH  26  27
ATOM     27  C   UNL     1       7.305   6.295  17.058  0.00  0.00    +0.000 C 
BRANCH  27  29
ATOM     28  C   UNL     1       8.007   5.812  19.423  0.00  0.00    +0.000 C 
ATOM     29  C   UNL     1       7.801   6.892  18.373  0.00  0.00    +0.000 C 
ENDBRANCH  27  29
ENDBRANCH  26  27
ENDBRANCH  24  26
ENDBRANCH  21  24
ENDBRANCH   1  21
TORSDOF 7
ENDMDL
MODEL 3
REMARK VINA RESULT:      -7.8      0.909      1.200
REMARK  Name = 
REMARK  9 active torsions:
REMARK  status: ('A' for Active; 'I' for Inactive)
REMARK    1  A    between atoms: C_1  and  C_2
REMARK    2  A    between atoms: C_2  and  C_3
REMARK    3  A    between atoms: C_3  and  C_4
REMARK    4  A    between atoms: C_4  and  N_5
REMARK    5  A    between atoms: N_5  and  C_6
REMARK    6  A    between atoms: N_5  and  S_7
REMARK    7  A    between atoms: S_7  and  C_10
REMARK    8  A    between atoms: C_13  and  C_14
REMARK    9  A    between atoms: C_20  and  C_21
REMARK                            x       y       z     vdW  Elec       q    Type
REMARK                         _______ _______ _______ _____ _____    ______ ____
ROOT
ATOM      1  C   UNL     1       3.735   5.636  18.007  0.00  0.00    +0.000 A 
ATOM      2  C   UNL     1       3.708   6.950  17.542  0.00  0.00    +0.000 A 
ATOM      3  C   UNL     1       2.941   7.906  18.223  0.00  0.00    +0.000 A 
ATOM      4  C   UNL     1       2.165   7.560  19.346  0.00  0.00    +0.000 A 
ATOM      5  C   UNL     1       2.201   6.234  19.800  0.00  0.00    +0.000 A 
ATOM      6  C   UNL     1       2.981   5.275  19.130  0.00  0.00    +0.000 A 
ENDROOT
BRANCH   4   7
ATOM      7  C   UNL     1       1.323   8.644  19.973  0.00  0.00    +0.000 C 
ATOM      8  O   UNL     1       0.903   9.537  19.252  0.00  0.00    +0.000 OA
ATOM      9  N   UNL     1       1.126   8.579  21.336  0.00  0.00    +0.000 N 
ATOM     10  C   UNL     1       0.401   9.527  22.008  0.00  0.00    +0.000 A 
ATOM     11  N   UNL     1       0.451   9.764  23.300  0.00  0.00    +0.000 NA
ATOM     12  N   UNL     1      -0.468  10.764  23.546  0.00  0.00    +0.000 NA
ATOM     13  C   UNL     1      -1.069  11.022  22.397  0.00  0.00    +0.000 A 
ATOM     14  O   UNL     1      -0.542  10.278  21.368  0.00  0.00    +0.000 OA
ATOM     15  H   UNL     1       1.654   7.964  21.930  0.00  0.00    +0.000 HD
BRANCH  13  16
ATOM     16  C   UNL     1      -2.194  11.900  22.264  0.00  0.00    +0.000 A 
ATOM     17  C   UNL     1      -3.008  12.397  23.271  0.00  0.00    +0.000 A 
ATOM     18  C   UNL     1      -4.005  13.191  22.656  0.00  0.00    +0.000 A 
ATOM     19  C   UNL     1      -3.747  13.142  21.309  0.00  0.00    +0.000 A 
ATOM     20  O   UNL     1      -2.657  12.372  21.060  0.00  0.00    +0.000 OA
ENDBRANCH  13  16
ENDBRANCH   4   7
BRANCH   1  21
ATOM     21  S   UNL     1       4.782   4.419  17.197  0.00  0.00    +0.000 S 
ATOM     22  O   UNL     1       4.953   4.843  15.828  0.00  0.00    +0.000 OA
ATOM     23  O   UNL     1       4.245   3.108  17.530  0.00  0.00    +0.000 OA
BRANCH  21  24
ATOM     24  N   UNL     1       6.301   4.610  18.000  0.00  0.00    +0.000 NA
ATOM     25  C   UNL     1       6.203   4.931  19.443  0.00  0.00    +0.000 C 
BRANCH  24  26
ATOM     26  C   UNL     1       7.214   5.522  17.246  0.00  0.00    +0.000 C 
BRANCH  26  27
ATOM     27  C   UNL     1       7.775   6.670  18.086  0.00  0.00    +0.000 C 
BRANCH  27  29
ATOM     28  C   UNL     1       8.312   9.124  18.182  0.00  0.00    +0.000 C 
ATOM     29  C   UNL     1       7.616   8.023  17.398  0.00  0.00    +0.000 C 
ENDBRANCH  27  29
ENDBRANCH  26  27
ENDBRANCH  24  26
ENDBRANCH  21  24
ENDBRANCH   1  21
TORSDOF 7
ENDMDL
MODEL 4
REMARK VINA RESULT:      -7.7      1.772      2.148
REMARK  Name = 
REMARK  9 active torsions:
REMARK  status: ('A' for Active; 'I' for Inactive)
REMARK    1  A    between atoms: C_1  and  C_2
REMARK    2  A    between atoms: C_2  and  C_3
REMARK    3  A    between atoms: C_3  and  C_4
REMARK    4  A    between atoms: C_4  and  N_5
REMARK    5  A    between atoms: N_5  and  C_6
REMARK    6  A    between atoms: N_5  and  S_7
REMARK    7  A    between atoms: S_7  and  C_10
REMARK    8  A    between atoms: C_13  and  C_14
REMARK    9  A    between atoms: C_20  and  C_21
REMARK                            x       y       z     vdW  Elec       q    Type
REMARK                         _______ _______ _______ _____ _____    ______ ____
ROOT
ATOM      1  C   UNL     1       3.846   5.467  18.643  0.00  0.00    +0.000 A 
ATOM      2  C   UNL     1       3.093   5.368  19.812  0.00  0.00    +0.000 A 
ATOM      3  C   UNL     1       2.231   6.416  20.167  0.00  0.00    +0.000 A 
ATOM      4  C   UNL     1       2.136   7.585  19.387  0.00  0.00    +0.000 A 
ATOM      5  C   UNL     1       2.902   7.669  18.215  0.00  0.00    +0.000 A 
ATOM      6  C   UNL     1       3.756   6.615  17.847  0.00  0.00    +0.000 A 
ENDROOT
BRANCH   4   7
ATOM      7  C   UNL     1       1.229   8.683  19.883  0.00  0.00    +0.000 C 
ATOM      8  O   UNL     1       0.852   8.638  21.046  0.00  0.00    +0.000 OA
ATOM      9  N   UNL     1       0.843   9.642  18.971  0.00  0.00    +0.000 N 
ATOM     10  C   UNL     1       0.000  10.666  19.311  0.00  0.00    +0.000 A 
ATOM     11  N   UNL     1      -0.701  11.398  18.474  0.00  0.00    +0.000 NA
ATOM     12  N   UNL     1      -1.369  12.331  19.241  0.00  0.00    +0.000 NA
ATOM     13  C   UNL     1      -0.977  12.150  20.490  0.00  0.00    +0.000 A 
ATOM     14  O   UNL     1      -0.116  11.085  20.604  0.00  0.00    +0.000 OA
ATOM     15  H   UNL     1       0.990   9.538  17.982  0.00  0.00    +0.000 HD
BRANCH  13  16
ATOM     16  C   UNL     1      -1.332  13.021  21.572  0.00  0.00    +0.000 A 
ATOM     17  C   UNL     1      -2.549  13.648  21.795  0.00  0.00    +0.000 A 
ATOM     18  C   UNL     1      -2.413  14.432  22.965  0.00  0.00    +0.000 A 
ATOM     19  C   UNL     1      -1.125  14.239  23.400  0.00  0.00    +0.000 A 
ATOM     20  O   UNL     1      -0.466  13.389  22.573  0.00  0.00    +0.000 OA
ENDBRANCH  13  16
ENDBRANCH   4   7
BRANCH   1  21
ATOM     21  S   UNL     1       4.890   4.096  18.131  0.00  0.00    +0.000 S 
ATOM     22  O   UNL     1       4.126   3.299  17.201  0.00  0.00    +0.000 OA
ATOM     23  O   UNL     1       5.462   3.522  19.340  0.00  0.00    +0.000 OA
BRANCH  21  24
ATOM     24  N   UNL     1       6.153   4.874  17.241  0.00  0.00    +0.000 NA
ATOM     25  C   UNL     1       6.347   4.361  15.865  0.00  0.00    +0.000 C 
BRANCH  24  26
ATOM     26  C   UNL     1       7.418   4.954  18.033  0.00  0.00    +0.000 C 
BRANCH  26  27
ATOM     27  C   UNL     1       7.733   6.356  18.556  0.00  0.00    +0.000 C 
BRANCH  27  29
ATOM     28  C   UNL     1       8.121   8.759  17.928  0.00  0.00    +0.000 C 
ATOM     29  C   UNL     1       7.521   7.431  17.493  0.00  0.00    +0.000 C 
ENDBRANCH  27  29
ENDBRANCH  26  27
ENDBRANCH  24  26
ENDBRANCH  21  24
ENDBRANCH   1  21
TORSDOF 7
ENDMDL
MODEL 5
REMARK VINA RESULT:      -7.7      2.087      3.436
REMARK  Name = 
REMARK  9 active torsions:
REMARK  status: ('A' for Active; 'I' for Inactive)
REMARK    1  A    between atoms: C_1  and  C_2
REMARK    2  A    between atoms: C_2  and  C_3
REMARK    3  A    between atoms: C_3  and  C_4
REMARK    4  A    between atoms: C_4  and  N_5
REMARK    5  A    between atoms: N_5  and  C_6
REMARK    6  A    between atoms: N_5  and  S_7
REMARK    7  A    between atoms: S_7  and  C_10
REMARK    8  A    between atoms: C_13  and  C_14
REMARK    9  A    between atoms: C_20  and  C_21
REMARK                            x       y       z     vdW  Elec       q    Type
REMARK                         _______ _______ _______ _____ _____    ______ ____
ROOT
ATOM      1  C   UNL     1       3.499   5.717  18.766  0.00  0.00    +0.000 A 
ATOM      2  C   UNL     1       2.938   5.769  20.041  0.00  0.00    +0.000 A 
ATOM      3  C   UNL     1       2.146   6.868  20.402  0.00  0.00    +0.000 A 
ATOM      4  C   UNL     1       1.935   7.943  19.516  0.00  0.00    +0.000 A 
ATOM      5  C   UNL     1       2.508   7.877  18.238  0.00  0.00    +0.000 A 
ATOM      6  C   UNL     1       3.289   6.769  17.866  0.00  0.00    +0.000 A 
ENDROOT
BRANCH   4   7
ATOM      7  C   UNL     1       1.122   9.111  20.017  0.00  0.00    +0.000 C 
ATOM      8  O   UNL     1       0.939  10.054  19.260  0.00  0.00    +0.000 OA
ATOM      9  N   UNL     1       0.679   9.056  21.322  0.00  0.00    +0.000 N 
ATOM     10  C   UNL     1      -0.043  10.075  21.884  0.00  0.00    +0.000 A 
ATOM     11  N   UNL     1      -0.197  10.293  23.171  0.00  0.00    +0.000 NA
ATOM     12  N   UNL     1      -1.027  11.389  23.282  0.00  0.00    +0.000 NA
ATOM     13  C   UNL     1      -1.381  11.727  22.053  0.00  0.00    +0.000 A 
ATOM     14  O   UNL     1      -0.766  10.936  21.112  0.00  0.00    +0.000 OA
ATOM     15  H   UNL     1       1.021   8.379  21.981  0.00  0.00    +0.000 HD
BRANCH  13  16
ATOM     16  C   UNL     1      -2.359  12.730  21.752  0.00  0.00    +0.000 A 
ATOM     17  C   UNL     1      -3.686  12.773  22.155  0.00  0.00    +0.000 A 
ATOM     18  C   UNL     1      -4.264  13.932  21.584  0.00  0.00    +0.000 A 
ATOM     19  C   UNL     1      -3.262  14.538  20.868  0.00  0.00    +0.000 A 
ATOM     20  O   UNL     1      -2.110  13.827  20.964  0.00  0.00    +0.000 OA
ENDBRANCH  13  16
ENDBRANCH   4   7
BRANCH   1  21
ATOM     21  S   UNL     1       4.443   4.275  18.259  0.00  0.00    +0.000 S 
ATOM     22  O   UNL     1       5.756   4.391  18.848  0.00  0.00    +0.000 OA
ATOM     23  O   UNL     1       4.261   4.130  16.821  0.00  0.00    +0.000 OA
BRANCH  21  24
ATOM     24  N   UNL     1       3.627   2.971  19.049  0.00  0.00    +0.000 NA
ATOM     25  C   UNL     1       4.514   2.037  19.780  0.00  0.00    +0.000 C 
BRANCH  24  26
ATOM     26  C   UNL     1       2.663   2.287  18.134  0.00  0.00    +0.000 C 
BRANCH  26  27
ATOM     27  C   UNL     1       1.261   2.125  18.722  0.00  0.00    +0.000 C 
BRANCH  27  29
ATOM     28  C   UNL     1       1.154   2.736  21.158  0.00  0.00    +0.000 C 
ATOM     29  C   UNL     1       0.927   3.218  19.733  0.00  0.00    +0.000 C 
ENDBRANCH  27  29
ENDBRANCH  26  27
ENDBRANCH  24  26
ENDBRANCH  21  24
ENDBRANCH   1  21
TORSDOF 7
ENDMDL
MODEL 6
REMARK VINA RESULT:      -7.5      1.243      1.994
REMARK  Name = 
REMARK  9 active torsions:
REMARK  status: ('A' for Active; 'I' for Inactive)
REMARK    1  A    between atoms: C_1  and  C_2
REMARK    2  A    between atoms: C_2  and  C_3
REMARK    3  A    between atoms: C_3  and  C_4
REMARK    4  A    between atoms: C_4  and  N_5
REMARK    5  A    between atoms: N_5  and  C_6
REMARK    6  A    between atoms: N_5  and  S_7
REMARK    7  A    between atoms: S_7  and  C_10
REMARK    8  A    between atoms: C_13  and  C_14
REMARK    9  A    between atoms: C_20  and  C_21
REMARK                            x       y       z     vdW  Elec       q    Type
REMARK                         _______ _______ _______ _____ _____    ______ ____
ROOT
ATOM      1  C   UNL     1       3.423   5.279  18.678  0.00  0.00    +0.000 A 
ATOM      2  C   UNL     1       3.317   6.455  17.938  0.00  0.00    +0.000 A 
ATOM      3  C   UNL     1       2.615   7.545  18.471  0.00  0.00    +0.000 A 
ATOM      4  C   UNL     1       1.980   7.466  19.726  0.00  0.00    +0.000 A 
ATOM      5  C   UNL     1       2.093   6.275  20.458  0.00  0.00    +0.000 A 
ATOM      6  C   UNL     1       2.810   5.185  19.934  0.00  0.00    +0.000 A 
ENDROOT
BRANCH   4   7
ATOM      7  C   UNL     1       1.194   8.669  20.187  0.00  0.00    +0.000 C 
ATOM      8  O   UNL     1       0.965   9.554  19.376  0.00  0.00    +0.000 OA
ATOM      9  N   UNL     1       0.830   8.711  21.517  0.00  0.00    +0.000 N 
ATOM     10  C   UNL     1       0.140   9.770  22.044  0.00  0.00    +0.000 A 
ATOM     11  N   UNL     1       0.062  10.081  23.319  0.00  0.00    +0.000 NA
ATOM     12  N   UNL     1      -0.763  11.184  23.398  0.00  0.00    +0.000 NA
ATOM     13  C   UNL     1      -1.190  11.431  22.171  0.00  0.00    +0.000 A 
ATOM     14  O   UNL     1      -0.630  10.573  21.255  0.00  0.00    +0.000 OA
ATOM     15  H   UNL     1       1.212   8.083  22.202  0.00  0.00    +0.000 HD
BRANCH  13  16
ATOM     16  C   UNL     1      -2.187  12.411  21.855  0.00  0.00    +0.000 A 
ATOM     17  C   UNL     1      -2.516  12.920  20.607  0.00  0.00    +0.000 A 
ATOM     18  C   UNL     1      -3.532  13.885  20.798  0.00  0.00    +0.000 A 
ATOM     19  C   UNL     1      -3.777  13.914  22.148  0.00  0.00    +0.000 A 
ATOM     20  O   UNL     1      -2.977  13.028  22.796  0.00  0.00    +0.000 OA
ENDBRANCH  13  16
ENDBRANCH   4   7
BRANCH   1  21
ATOM     21  S   UNL     1       4.392   3.904  18.046  0.00  0.00    +0.000 S 
ATOM     22  O   UNL     1       3.973   3.673  16.684  0.00  0.00    +0.000 OA
ATOM     23  O   UNL     1       4.343   2.851  19.051  0.00  0.00    +0.000 OA
BRANCH  21  24
ATOM     24  N   UNL     1       5.998   4.543  17.999  0.00  0.00    +0.000 NA
ATOM     25  C   UNL     1       6.413   5.267  19.223  0.00  0.00    +0.000 C 
BRANCH  24  26
ATOM     26  C   UNL     1       6.253   5.307  16.740  0.00  0.00    +0.000 C 
BRANCH  26  27
ATOM     27  C   UNL     1       7.146   4.571  15.740  0.00  0.00    +0.000 C 
BRANCH  27  29
ATOM     28  C   UNL     1       6.015   3.799  13.632  0.00  0.00    +0.000 C 
ATOM     29  C   UNL     1       6.804   4.918  14.294  0.00  0.00    +0.000 C 
ENDBRANCH  27  29
ENDBRANCH  26  27
ENDBRANCH  24  26
ENDBRANCH  21  24
ENDBRANCH   1  21
TORSDOF 7
ENDMDL
MODEL 7
REMARK VINA RESULT:      -7.5      1.004      1.160
REMARK  Name = 
REMARK  9 active torsions:
REMARK  status: ('A' for Active; 'I' for Inactive)
REMARK    1  A    between atoms: C_1  and  C_2
REMARK    2  A    between atoms: C_2  and  C_3
REMARK    3  A    between atoms: C_3  and  C_4
REMARK    4  A    between atoms: C_4  and  N_5
REMARK    5  A    between atoms: N_5  and  C_6
REMARK    6  A    between atoms: N_5  and  S_7
REMARK    7  A    between atoms: S_7  and  C_10
REMARK    8  A    between atoms: C_13  and  C_14
REMARK    9  A    between atoms: C_20  and  C_21
REMARK                            x       y       z     vdW  Elec       q    Type
REMARK                         _______ _______ _______ _____ _____    ______ ____
ROOT
ATOM      1  C   UNL     1       3.919   5.493  17.666  0.00  0.00    +0.000 A 
ATOM      2  C   UNL     1       4.089   6.834  17.324  0.00  0.00    +0.000 A 
ATOM      3  C   UNL     1       3.333   7.815  17.981  0.00  0.00    +0.000 A 
ATOM      4  C   UNL     1       2.375   7.472  18.956  0.00  0.00    +0.000 A 
ATOM      5  C   UNL     1       2.214   6.119  19.287  0.00  0.00    +0.000 A 
ATOM      6  C   UNL     1       2.981   5.134  18.641  0.00  0.00    +0.000 A 
ENDROOT
BRANCH   4   7
ATOM      7  C   UNL     1       1.565   8.591  19.562  0.00  0.00    +0.000 C 
ATOM      8  O   UNL     1       1.226   9.516  18.837  0.00  0.00    +0.000 OA
ATOM      9  N   UNL     1       1.304   8.519  20.914  0.00  0.00    +0.000 N 
ATOM     10  C   UNL     1       0.602   9.497  21.568  0.00  0.00    +0.000 A 
ATOM     11  N   UNL     1       0.608   9.714  22.864  0.00  0.00    +0.000 NA
ATOM     12  N   UNL     1      -0.267  10.758  23.085  0.00  0.00    +0.000 NA
ATOM     13  C   UNL     1      -0.801  11.064  21.915  0.00  0.00    +0.000 A 
ATOM     14  O   UNL     1      -0.269  10.306  20.900  0.00  0.00    +0.000 OA
ATOM     15  H   UNL     1       1.772   7.869  21.521  0.00  0.00    +0.000 HD
BRANCH  13  16
ATOM     16  C   UNL     1      -1.870  12.003  21.748  0.00  0.00    +0.000 A 
ATOM     17  C   UNL     1      -2.456  12.423  20.563  0.00  0.00    +0.000 A 
ATOM     18  C   UNL     1      -3.444  13.381  20.895  0.00  0.00    +0.000 A 
ATOM     19  C   UNL     1      -3.415  13.493  22.263  0.00  0.00    +0.000 A 
ATOM     20  O   UNL     1      -2.475  12.666  22.788  0.00  0.00    +0.000 OA
ENDBRANCH  13  16
ENDBRANCH   4   7
BRANCH   1  21
ATOM     21  S   UNL     1       4.942   4.234  16.894  0.00  0.00    +0.000 S 
ATOM     22  O   UNL     1       4.353   3.925  15.613  0.00  0.00    +0.000 OA
ATOM     23  O   UNL     1       5.176   3.203  17.896  0.00  0.00    +0.000 OA
BRANCH  21  24
ATOM     24  N   UNL     1       6.432   5.061  16.600  0.00  0.00    +0.000 NA
ATOM     25  C   UNL     1       7.075   4.738  15.306  0.00  0.00    +0.000 C 
BRANCH  24  26
ATOM     26  C   UNL     1       7.358   4.963  17.769  0.00  0.00    +0.000 C 
BRANCH  26  27
ATOM     27  C   UNL     1       7.665   6.307  18.431  0.00  0.00    +0.000 C 
BRANCH  27  29
ATOM     28  C   UNL     1       8.204   8.724  17.997  0.00  0.00    +0.000 C 
ATOM     29  C   UNL     1       7.521   7.476  17.460  0.00  0.00    +0.000 C 
ENDBRANCH  27  29
ENDBRANCH  26  27
ENDBRANCH  24  26
ENDBRANCH  21  24
ENDBRANCH   1  21
TORSDOF 7
ENDMDL
MODEL 8
REMARK VINA RESULT:      -7.4      3.092     10.330
REMARK  Name = 
REMARK  9 active torsions:
REMARK  status: ('A' for Active; 'I' for Inactive)
REMARK    1  A    between atoms: C_1  and  C_2
REMARK    2  A    between atoms: C_2  and  C_3
REMARK    3  A    between atoms: C_3  and  C_4
REMARK    4  A    between atoms: C_4  and  N_5
REMARK    5  A    between atoms: N_5  and  C_6
REMARK    6  A    between atoms: N_5  and  S_7
REMARK    7  A    between atoms: S_7  and  C_10
REMARK    8  A    between atoms: C_13  and  C_14
REMARK    9  A    between atoms: C_20  and  C_21
REMARK                            x       y       z     vdW  Elec       q    Type
REMARK                         _______ _______ _______ _____ _____    ______ ____
ROOT
ATOM      1  C   UNL     1       1.563   8.258  20.189  0.00  0.00    +0.000 A 
ATOM      2  C   UNL     1       2.012   6.963  20.445  0.00  0.00    +0.000 A 
ATOM      3  C   UNL     1       2.766   6.290  19.474  0.00  0.00    +0.000 A 
ATOM      4  C   UNL     1       3.049   6.880  18.226  0.00  0.00    +0.000 A 
ATOM      5  C   UNL     1       2.588   8.182  17.983  0.00  0.00    +0.000 A 
ATOM      6  C   UNL     1       1.845   8.866  18.960  0.00  0.00    +0.000 A 
ENDROOT
BRANCH   4   7
ATOM      7  C   UNL     1       3.813   6.054  17.221  0.00  0.00    +0.000 C 
ATOM      8  O   UNL     1       3.331   4.988  16.865  0.00  0.00    +0.000 OA
ATOM      9  N   UNL     1       5.036   6.537  16.808  0.00  0.00    +0.000 N 
ATOM     10  C   UNL     1       5.822   5.852  15.920  0.00  0.00    +0.000 A 
ATOM     11  N   UNL     1       7.114   6.022  15.742  0.00  0.00    +0.000 NA
ATOM     12  N   UNL     1       7.482   5.160  14.729  0.00  0.00    +0.000 NA
ATOM     13  C   UNL     1       6.376   4.570  14.309  0.00  0.00    +0.000 A 
ATOM     14  O   UNL     1       5.282   4.954  15.047  0.00  0.00    +0.000 OA
ATOM     15  H   UNL     1       5.502   7.297  17.272  0.00  0.00    +0.000 HD
BRANCH  13  16
ATOM     16  C   UNL     1       6.317   3.710  13.164  0.00  0.00    +0.000 A 
ATOM     17  C   UNL     1       5.194   3.124  12.597  0.00  0.00    +0.000 A 
ATOM     18  C   UNL     1       5.634   2.335  11.508  0.00  0.00    +0.000 A 
ATOM     19  C   UNL     1       6.998   2.482  11.461  0.00  0.00    +0.000 A 
ATOM     20  O   UNL     1       7.421   3.311  12.450  0.00  0.00    +0.000 OA
ENDBRANCH  13  16
ENDBRANCH   4   7
BRANCH   1  21
ATOM     21  S   UNL     1       0.670   9.165  21.458  0.00  0.00    +0.000 S 
ATOM     22  O   UNL     1       1.598   9.433  22.530  0.00  0.00    +0.000 OA
ATOM     23  O   UNL     1      -0.580   8.454  21.689  0.00  0.00    +0.000 OA
BRANCH  21  24
ATOM     24  N   UNL     1       0.309  10.670  20.687  0.00  0.00    +0.000 NA
ATOM     25  C   UNL     1       0.728  11.871  21.447  0.00  0.00    +0.000 C 
BRANCH  24  26
ATOM     26  C   UNL     1      -1.108  10.725  20.217  0.00  0.00    +0.000 C 
BRANCH  26  27
ATOM     27  C   UNL     1      -1.265  11.213  18.777  0.00  0.00    +0.000 C 
BRANCH  27  29
ATOM     28  C   UNL     1      -2.708   9.945  17.155  0.00  0.00    +0.000 C 
ATOM     29  C   UNL     1      -1.326  10.060  17.779  0.00  0.00    +0.000 C 
ENDBRANCH  27  29
ENDBRANCH  26  27
ENDBRANCH  24  26
ENDBRANCH  21  24
ENDBRANCH   1  21
TORSDOF 7
ENDMDL
MODEL 9
REMARK VINA RESULT:      -7.4      2.169      3.337
REMARK  Name = 
REMARK  9 active torsions:
REMARK  status: ('A' for Active; 'I' for Inactive)
REMARK    1  A    between atoms: C_1  and  C_2
REMARK    2  A    between atoms: C_2  and  C_3
REMARK    3  A    between atoms: C_3  and  C_4
REMARK    4  A    between atoms: C_4  and  N_5
REMARK    5  A    between atoms: N_5  and  C_6
REMARK    6  A    between atoms: N_5  and  S_7
REMARK    7  A    between atoms: S_7  and  C_10
REMARK    8  A    between atoms: C_13  and  C_14
REMARK    9  A    between atoms: C_20  and  C_21
REMARK                            x       y       z     vdW  Elec       q    Type
REMARK                         _______ _______ _______ _____ _____    ______ ____
ROOT
ATOM      1  C   UNL     1       3.241   5.840  18.681  0.00  0.00    +0.000 A 
ATOM      2  C   UNL     1       2.989   6.958  17.887  0.00  0.00    +0.000 A 
ATOM      3  C   UNL     1       2.282   8.041  18.427  0.00  0.00    +0.000 A 
ATOM      4  C   UNL     1       1.786   8.010  19.745  0.00  0.00    +0.000 A 
ATOM      5  C   UNL     1       2.046   6.877  20.530  0.00  0.00    +0.000 A 
ATOM      6  C   UNL     1       2.768   5.795  19.998  0.00  0.00    +0.000 A 
ENDROOT
BRANCH   4   7
ATOM      7  C   UNL     1       0.982   9.197  20.216  0.00  0.00    +0.000 C 
ATOM      8  O   UNL     1       0.833  10.135  19.446  0.00  0.00    +0.000 OA
ATOM      9  N   UNL     1       0.508   9.163  21.511  0.00  0.00    +0.000 N 
ATOM     10  C   UNL     1      -0.208  10.200  22.046  0.00  0.00    +0.000 A 
ATOM     11  N   UNL     1      -0.388  10.433  23.327  0.00  0.00    +0.000 NA
ATOM     12  N   UNL     1      -1.202  11.545  23.408  0.00  0.00    +0.000 NA
ATOM     13  C   UNL     1      -1.521  11.876  22.168  0.00  0.00    +0.000 A 
ATOM     14  O   UNL     1      -0.899  11.065  21.249  0.00  0.00    +0.000 OA
ATOM     15  H   UNL     1       0.823   8.486  22.184  0.00  0.00    +0.000 HD
BRANCH  13  16
ATOM     16  C   UNL     1      -2.475  12.892  21.835  0.00  0.00    +0.000 A 
ATOM     17  C   UNL     1      -3.726  13.102  22.395  0.00  0.00    +0.000 A 
ATOM     18  C   UNL     1      -4.314  14.198  21.720  0.00  0.00    +0.000 A 
ATOM     19  C   UNL     1      -3.392  14.604  20.787  0.00  0.00    +0.000 A 
ATOM     20  O   UNL     1      -2.279  13.829  20.849  0.00  0.00    +0.000 OA
ENDBRANCH  13  16
ENDBRANCH   4   7
BRANCH   1  21
ATOM     21  S   UNL     1       4.221   4.481  18.030  0.00  0.00    +0.000 S 
ATOM     22  O   UNL     1       5.472   4.470  18.749  0.00  0.00    +0.000 OA
ATOM     23  O   UNL     1       4.174   4.579  16.578  0.00  0.00    +0.000 OA
BRANCH  21  24
ATOM     24  N   UNL     1       3.326   3.082  18.514  0.00  0.00    +0.000 NA
ATOM     25  C   UNL     1       4.007   1.792  18.259  0.00  0.00    +0.000 C 
BRANCH  24  26
ATOM     26  C   UNL     1       1.919   3.125  18.010  0.00  0.00    +0.000 C 
BRANCH  26  27
ATOM     27  C   UNL     1       0.906   2.469  18.948  0.00  0.00    +0.000 C 
BRANCH  27  29
ATOM     28  C   UNL     1       1.390   2.664  21.407  0.00  0.00    +0.000 C 
ATOM     29  C   UNL     1       0.678   3.286  20.217  0.00  0.00    +0.000 C 
ENDBRANCH  27  29
ENDBRANCH  26  27
ENDBRANCH  24  26
ENDBRANCH  21  24
ENDBRANCH   1  21
TORSDOF 7
ENDMDL
