MODEL 1
REMARK VINA RESULT:      -9.4      0.000      0.000
REMARK  Name = 
REMARK  7 active torsions:
REMARK  status: ('A' for Active; 'I' for Inactive)
REMARK    1  A    between atoms: C_1  and  S_2
REMARK    2  A    between atoms: S_2  and  C_5
REMARK    3  A    between atoms: C_8  and  C_9
REMARK    4  A    between atoms: C_11  and  C_12
REMARK    5  A    between atoms: C_12  and  O_14
REMARK    6  A    between atoms: C_19  and  C_20
REMARK    7  A    between atoms: C_20  and  C_22
REMARK                            x       y       z     vdW  Elec       q    Type
REMARK                         _______ _______ _______ _____ _____    ______ ____
ROOT
ATOM      1  C   UNL     1       2.084   6.460  19.874  0.00  0.00    +0.000 A 
ATOM      2  C   UNL     1       1.352   5.406  20.371  0.00  0.00    +0.000 A 
ATOM      3  C   UNL     1       1.863   4.141  20.224  0.00  0.00    +0.000 A 
ATOM      4  C   UNL     1       2.762   3.858  19.211  0.00  0.00    +0.000 A 
ATOM      5  C   UNL     1       2.863   2.534  18.729  0.00  0.00    +0.000 A 
ATOM      6  C   UNL     1       3.701   2.218  17.683  0.00  0.00    +0.000 A 
ATOM      7  C   UNL     1       4.498   3.218  17.168  0.00  0.00    +0.000 A 
ATOM      8  C   UNL     1       4.402   4.553  17.642  0.00  0.00    +0.000 A 
ATOM      9  C   UNL     1       3.466   4.942  18.640  0.00  0.00    +0.000 A 
ATOM     10  N   UNL     1       3.168   6.233  19.063  0.00  0.00    +0.000 NA
ENDROOT
BRANCH   1  14
ATOM     11  C   UNL     1       0.527  10.311  21.052  0.00  0.00    +0.000 A 
ATOM     12  C   UNL     1       0.823   9.366  22.025  0.00  0.00    +0.000 A 
ATOM     13  C   UNL     1       1.417   8.167  21.633  0.00  0.00    +0.000 A 
ATOM     14  C   UNL     1       1.685   7.843  20.272  0.00  0.00    +0.000 A 
ATOM     15  C   UNL     1       1.463   8.860  19.337  0.00  0.00    +0.000 A 
ATOM     16  C   UNL     1       0.875  10.079  19.716  0.00  0.00    +0.000 A 
BRANCH  11  18
ATOM     17  C   UNL     1      -1.250  11.256  22.997  0.00  0.00    +0.000 C 
ATOM     18  S   UNL     1      -0.440  11.737  21.499  0.00  0.00    +0.000 S 
ATOM     19  O   UNL     1      -1.451  11.912  20.480  0.00  0.00    +0.000 OA
ATOM     20  O   UNL     1       0.495  12.803  21.811  0.00  0.00    +0.000 OA
ENDBRANCH  11  18
ENDBRANCH   1  14
BRANCH   3  21
ATOM     21  C   UNL     1       1.679   3.233  21.379  0.00  0.00    +0.000 C 
ATOM     22  O   UNL     1       2.443   3.100  22.316  0.00  0.00    +0.000 OA
BRANCH  21  23
ATOM     23  O   UNL     1       0.472   2.612  21.307  0.00  0.00    +0.000 OA
ATOM     24  H   UNL     1       0.078   2.338  22.160  0.00  0.00    +0.000 HD
ENDBRANCH  21  23
ENDBRANCH   3  21
BRANCH   8  25
ATOM     25  C   UNL     1       5.235   5.488  16.857  0.00  0.00    +0.000 C 
ATOM     26  O   UNL     1       5.033   5.516  15.638  0.00  0.00    +0.000 OA
BRANCH  25  27
ATOM     27  C   UNL     1       6.366   6.288  17.382  0.00  0.00    +0.000 A 
ATOM     28  C   UNL     1       7.101   5.718  18.436  0.00  0.00    +0.000 A 
ATOM     29  C   UNL     1       8.142   6.415  19.042  0.00  0.00    +0.000 A 
ATOM     30  C   UNL     1       8.449   7.701  18.611  0.00  0.00    +0.000 A 
ATOM     31  C   UNL     1       7.703   8.291  17.587  0.00  0.00    +0.000 A 
ATOM     32  C   UNL     1       6.657   7.590  16.971  0.00  0.00    +0.000 A 
ENDBRANCH  25  27
ENDBRANCH   8  25
TORSDOF 6
ENDMDL
MODEL 2
REMARK VINA RESULT:      -9.0      0.653      1.246
REMARK  Name = 
REMARK  7 active torsions:
REMARK  status: ('A' for Active; 'I' for Inactive)
REMARK    1  A    between atoms: C_1  and  S_2
REMARK    2  A    between atoms: S_2  and  C_5
REMARK    3  A    between atoms: C_8  and  C_9
REMARK    4  A    between atoms: C_11  and  C_12
REMARK    5  A    between atoms: C_12  and  O_14
REMARK    6  A    between atoms: C_19  and  C_20
REMARK    7  A    between atoms: C_20  and  C_22
REMARK                            x       y       z     vdW  Elec       q    Type
REMARK                         _______ _______ _______ _____ _____    ______ ____
ROOT
ATOM      1  C   UNL     1       2.089   6.514  19.955  0.00  0.00    +0.000 A 
ATOM      2  C   UNL     1       1.342   5.453  20.410  0.00  0.00    +0.000 A 
ATOM      3  C   UNL     1       1.851   4.189  20.249  0.00  0.00    +0.000 A 
ATOM      4  C   UNL     1       2.775   3.924  19.253  0.00  0.00    +0.000 A 
ATOM      5  C   UNL     1       2.884   2.611  18.745  0.00  0.00    +0.000 A 
ATOM      6  C   UNL     1       3.747   2.314  17.715  0.00  0.00    +0.000 A 
ATOM      7  C   UNL     1       4.561   3.321  17.242  0.00  0.00    +0.000 A 
ATOM      8  C   UNL     1       4.458   4.646  17.742  0.00  0.00    +0.000 A 
ATOM      9  C   UNL     1       3.498   5.018  18.724  0.00  0.00    +0.000 A 
ATOM     10  N   UNL     1       3.193   6.300  19.167  0.00  0.00    +0.000 NA
ENDROOT
BRANCH   1  14
ATOM     11  C   UNL     1       0.519  10.341  21.190  0.00  0.00    +0.000 A 
ATOM     12  C   UNL     1       0.823   9.386  22.149  0.00  0.00    +0.000 A 
ATOM     13  C   UNL     1       1.421   8.194  21.739  0.00  0.00    +0.000 A 
ATOM     14  C   UNL     1       1.686   7.890  20.373  0.00  0.00    +0.000 A 
ATOM     15  C   UNL     1       1.456   8.918  19.452  0.00  0.00    +0.000 A 
ATOM     16  C   UNL     1       0.863  10.129  19.850  0.00  0.00    +0.000 A 
BRANCH  11  18
ATOM     17  C   UNL     1       0.576  13.139  21.255  0.00  0.00    +0.000 C 
ATOM     18  S   UNL     1      -0.453  11.757  21.659  0.00  0.00    +0.000 S 
ATOM     19  O   UNL     1      -0.609  11.720  23.095  0.00  0.00    +0.000 OA
ATOM     20  O   UNL     1      -1.612  11.784  20.785  0.00  0.00    +0.000 OA
ENDBRANCH  11  18
ENDBRANCH   1  14
BRANCH   3  21
ATOM     21  C   UNL     1       1.634   3.257  21.379  0.00  0.00    +0.000 C 
ATOM     22  O   UNL     1       2.342   3.143  22.361  0.00  0.00    +0.000 OA
BRANCH  21  23
ATOM     23  O   UNL     1       0.463   2.585  21.221  0.00  0.00    +0.000 OA
ATOM     24  H   UNL     1       0.507   1.760  20.696  0.00  0.00    +0.000 HD
ENDBRANCH  21  23
ENDBRANCH   3  21
BRANCH   8  25
ATOM     25  C   UNL     1       5.314   5.595  17.000  0.00  0.00    +0.000 C 
ATOM     26  O   UNL     1       5.183   5.610  15.771  0.00  0.00    +0.000 OA
BRANCH  25  27
ATOM     27  C   UNL     1       6.395   6.423  17.584  0.00  0.00    +0.000 A 
ATOM     28  C   UNL     1       6.552   7.715  17.052  0.00  0.00    +0.000 A 
ATOM     29  C   UNL     1       7.579   8.548  17.487  0.00  0.00    +0.000 A 
ATOM     30  C   UNL     1       8.473   8.090  18.449  0.00  0.00    +0.000 A 
ATOM     31  C   UNL     1       8.347   6.796  18.960  0.00  0.00    +0.000 A 
ATOM     32  C   UNL     1       7.311   5.955  18.528  0.00  0.00    +0.000 A 
ENDBRANCH  25  27
ENDBRANCH   8  25
TORSDOF 6
ENDMDL
MODEL 3
REMARK VINA RESULT:      -8.8      0.779      1.029
REMARK  Name = 
REMARK  7 active torsions:
REMARK  status: ('A' for Active; 'I' for Inactive)
REMARK    1  A    between atoms: C_1  and  S_2
REMARK    2  A    between atoms: S_2  and  C_5
REMARK    3  A    between atoms: C_8  and  C_9
REMARK    4  A    between atoms: C_11  and  C_12
REMARK    5  A    between atoms: C_12  and  O_14
REMARK    6  A    between atoms: C_19  and  C_20
REMARK    7  A    between atoms: C_20  and  C_22
REMARK                            x       y       z     vdW  Elec       q    Type
REMARK                         _______ _______ _______ _____ _____    ______ ____
ROOT
ATOM      1  C   UNL     1       2.134   6.221  19.894  0.00  0.00    +0.000 A 
ATOM      2  C   UNL     1       1.372   5.224  20.455  0.00  0.00    +0.000 A 
ATOM      3  C   UNL     1       1.828   3.933  20.360  0.00  0.00    +0.000 A 
ATOM      4  C   UNL     1       2.693   3.565  19.345  0.00  0.00    +0.000 A 
ATOM      5  C   UNL     1       2.731   2.216  18.926  0.00  0.00    +0.000 A 
ATOM      6  C   UNL     1       3.534   1.817  17.881  0.00  0.00    +0.000 A 
ATOM      7  C   UNL     1       4.359   2.757  17.303  0.00  0.00    +0.000 A 
ATOM      8  C   UNL     1       4.327   4.116  17.713  0.00  0.00    +0.000 A 
ATOM      9  C   UNL     1       3.429   4.591  18.709  0.00  0.00    +0.000 A 
ATOM     10  N   UNL     1       3.191   5.912  19.074  0.00  0.00    +0.000 NA
ENDROOT
BRANCH   1  14
ATOM     11  C   UNL     1       0.755  10.191  20.881  0.00  0.00    +0.000 A 
ATOM     12  C   UNL     1       0.945   9.262  21.894  0.00  0.00    +0.000 A 
ATOM     13  C   UNL     1       1.485   8.018  21.567  0.00  0.00    +0.000 A 
ATOM     14  C   UNL     1       1.800   7.638  20.232  0.00  0.00    +0.000 A 
ATOM     15  C   UNL     1       1.687   8.636  19.258  0.00  0.00    +0.000 A 
ATOM     16  C   UNL     1       1.154   9.898  19.572  0.00  0.00    +0.000 A 
BRANCH  11  18
ATOM     17  C   UNL     1      -1.421  11.722  20.011  0.00  0.00    +0.000 C 
ATOM     18  S   UNL     1      -0.146  11.685  21.238  0.00  0.00    +0.000 S 
ATOM     19  O   UNL     1       0.744  12.797  20.991  0.00  0.00    +0.000 OA
ATOM     20  O   UNL     1      -0.771  11.505  22.535  0.00  0.00    +0.000 OA
ENDBRANCH  11  18
ENDBRANCH   1  14
BRANCH   3  21
ATOM     21  C   UNL     1       1.632   3.089  21.561  0.00  0.00    +0.000 C 
ATOM     22  O   UNL     1       0.628   2.464  21.843  0.00  0.00    +0.000 OA
BRANCH  21  23
ATOM     23  O   UNL     1       2.779   3.026  22.288  0.00  0.00    +0.000 OA
ATOM     24  H   UNL     1       3.466   3.688  22.066  0.00  0.00    +0.000 HD
ENDBRANCH  21  23
ENDBRANCH   3  21
BRANCH   8  25
ATOM     25  C   UNL     1       5.180   4.978  16.868  0.00  0.00    +0.000 C 
ATOM     26  O   UNL     1       5.047   4.857  15.646  0.00  0.00    +0.000 OA
BRANCH  25  27
ATOM     27  C   UNL     1       6.261   5.867  17.354  0.00  0.00    +0.000 A 
ATOM     28  C   UNL     1       7.027   5.392  18.432  0.00  0.00    +0.000 A 
ATOM     29  C   UNL     1       8.024   6.178  19.004  0.00  0.00    +0.000 A 
ATOM     30  C   UNL     1       8.254   7.459  18.513  0.00  0.00    +0.000 A 
ATOM     31  C   UNL     1       7.475   7.955  17.464  0.00  0.00    +0.000 A 
ATOM     32  C   UNL     1       6.474   7.164  16.882  0.00  0.00    +0.000 A 
ENDBRANCH  25  27
ENDBRANCH   8  25
TORSDOF 6
ENDMDL
MODEL 4
REMARK VINA RESULT:      -8.8      0.192      1.053
REMARK  Name = 
REMARK  7 active torsions:
REMARK  status: ('A' for Active; 'I' for Inactive)
REMARK    1  A    between atoms: C_1  and  S_2
REMARK    2  A    between atoms: S_2  and  C_5
REMARK    3  A    between atoms: C_8  and  C_9
REMARK    4  A    between atoms: C_11  and  C_12
REMARK    5  A    between atoms: C_12  and  O_14
REMARK    6  A    between atoms: C_19  and  C_20
REMARK    7  A    between atoms: C_20  and  C_22
REMARK                            x       y       z     vdW  Elec       q    Type
REMARK                         _______ _______ _______ _____ _____    ______ ____
ROOT
ATOM      1  C   UNL     1       2.035   6.373  19.979  0.00  0.00    +0.000 A 
ATOM      2  C   UNL     1       1.269   5.338  20.461  0.00  0.00    +0.000 A 
ATOM      3  C   UNL     1       1.756   4.061  20.333  0.00  0.00    +0.000 A 
ATOM      4  C   UNL     1       2.676   3.755  19.345  0.00  0.00    +0.000 A 
ATOM      5  C   UNL     1       2.763   2.427  18.872  0.00  0.00    +0.000 A 
ATOM      6  C   UNL     1       3.621   2.088  17.851  0.00  0.00    +0.000 A 
ATOM      7  C   UNL     1       4.452   3.069  17.352  0.00  0.00    +0.000 A 
ATOM      8  C   UNL     1       4.371   4.408  17.817  0.00  0.00    +0.000 A 
ATOM      9  C   UNL     1       3.418   4.822  18.788  0.00  0.00    +0.000 A 
ATOM     10  N   UNL     1       3.135   6.120  19.197  0.00  0.00    +0.000 NA
ENDROOT
BRANCH   1  14
ATOM     11  C   UNL     1       0.527  10.263  21.092  0.00  0.00    +0.000 A 
ATOM     12  C   UNL     1       0.764   9.314  22.076  0.00  0.00    +0.000 A 
ATOM     13  C   UNL     1       1.343   8.100  21.709  0.00  0.00    +0.000 A 
ATOM     14  C   UNL     1       1.654   7.767  20.360  0.00  0.00    +0.000 A 
ATOM     15  C   UNL     1       1.492   8.787  19.415  0.00  0.00    +0.000 A 
ATOM     16  C   UNL     1       0.919  10.020  19.770  0.00  0.00    +0.000 A 
BRANCH  11  18
ATOM     17  C   UNL     1      -1.268  11.268  22.989  0.00  0.00    +0.000 C 
ATOM     18  S   UNL     1      -0.422  11.713  21.500  0.00  0.00    +0.000 S 
ATOM     19  O   UNL     1      -1.410  11.891  20.460  0.00  0.00    +0.000 OA
ATOM     20  O   UNL     1       0.526  12.766  21.815  0.00  0.00    +0.000 OA
ENDBRANCH  11  18
ENDBRANCH   1  14
BRANCH   3  21
ATOM     21  C   UNL     1       1.524   3.163  21.487  0.00  0.00    +0.000 C 
ATOM     22  O   UNL     1       0.587   2.401  21.625  0.00  0.00    +0.000 OA
BRANCH  21  23
ATOM     23  O   UNL     1       2.564   3.233  22.359  0.00  0.00    +0.000 OA
ATOM     24  H   UNL     1       2.804   4.129  22.672  0.00  0.00    +0.000 HD
ENDBRANCH  21  23
ENDBRANCH   3  21
BRANCH   8  25
ATOM     25  C   UNL     1       5.244   5.322  17.051  0.00  0.00    +0.000 C 
ATOM     26  O   UNL     1       5.127   5.293  15.821  0.00  0.00    +0.000 OA
BRANCH  25  27
ATOM     27  C   UNL     1       6.324   6.163  17.616  0.00  0.00    +0.000 A 
ATOM     28  C   UNL     1       6.535   7.410  17.002  0.00  0.00    +0.000 A 
ATOM     29  C   UNL     1       7.567   8.247  17.417  0.00  0.00    +0.000 A 
ATOM     30  C   UNL     1       8.413   7.837  18.442  0.00  0.00    +0.000 A 
ATOM     31  C   UNL     1       8.234   6.585  19.036  0.00  0.00    +0.000 A 
ATOM     32  C   UNL     1       7.193   5.741  18.625  0.00  0.00    +0.000 A 
ENDBRANCH  25  27
ENDBRANCH   8  25
TORSDOF 6
ENDMDL
MODEL 5
REMARK VINA RESULT:      -8.7      0.786      1.383
REMARK  Name = 
REMARK  7 active torsions:
REMARK  status: ('A' for Active; 'I' for Inactive)
REMARK    1  A    between atoms: C_1  and  S_2
REMARK    2  A    between atoms: S_2  and  C_5
REMARK    3  A    between atoms: C_8  and  C_9
REMARK    4  A    between atoms: C_11  and  C_12
REMARK    5  A    between atoms: C_12  and  O_14
REMARK    6  A    between atoms: C_19  and  C_20
REMARK    7  A    between atoms: C_20  and  C_22
REMARK                            x       y       z     vdW  Elec       q    Type
REMARK                         _______ _______ _______ _____ _____    ______ ____
ROOT
ATOM      1  C   UNL     1       1.974   6.521  19.757  0.00  0.00    +0.000 A 
ATOM      2  C   UNL     1       1.290   5.449  20.280  0.00  0.00    +0.000 A 
ATOM      3  C   UNL     1       1.880   4.212  20.211  0.00  0.00    +0.000 A 
ATOM      4  C   UNL     1       2.829   3.938  19.241  0.00  0.00    +0.000 A 
ATOM      5  C   UNL     1       3.026   2.602  18.827  0.00  0.00    +0.000 A 
ATOM      6  C   UNL     1       3.918   2.290  17.825  0.00  0.00    +0.000 A 
ATOM      7  C   UNL     1       4.671   3.313  17.289  0.00  0.00    +0.000 A 
ATOM      8  C   UNL     1       4.479   4.660  17.694  0.00  0.00    +0.000 A 
ATOM      9  C   UNL     1       3.487   5.037  18.642  0.00  0.00    +0.000 A 
ATOM     10  N   UNL     1       3.097   6.324  18.993  0.00  0.00    +0.000 NA
ENDROOT
BRANCH   1  14
ATOM     11  C   UNL     1       0.957  10.619  20.657  0.00  0.00    +0.000 A 
ATOM     12  C   UNL     1       1.128  10.232  19.336  0.00  0.00    +0.000 A 
ATOM     13  C   UNL     1       1.358   8.884  19.059  0.00  0.00    +0.000 A 
ATOM     14  C   UNL     1       1.479   7.895  20.075  0.00  0.00    +0.000 A 
ATOM     15  C   UNL     1       1.202   8.310  21.383  0.00  0.00    +0.000 A 
ATOM     16  C   UNL     1       0.958   9.661  21.678  0.00  0.00    +0.000 A 
BRANCH  11  18
ATOM     17  C   UNL     1       0.122  13.089  19.638  0.00  0.00    +0.000 C 
ATOM     18  S   UNL     1       0.899  12.355  21.048  0.00  0.00    +0.000 S 
ATOM     19  O   UNL     1       2.262  12.832  21.107  0.00  0.00    +0.000 OA
ATOM     20  O   UNL     1       0.009  12.505  22.185  0.00  0.00    +0.000 OA
ENDBRANCH  11  18
ENDBRANCH   1  14
BRANCH   3  21
ATOM     21  C   UNL     1       1.711   3.348  21.401  0.00  0.00    +0.000 C 
ATOM     22  O   UNL     1       2.442   3.314  22.372  0.00  0.00    +0.000 OA
BRANCH  21  23
ATOM     23  O   UNL     1       0.553   2.641  21.314  0.00  0.00    +0.000 OA
ATOM     24  H   UNL     1       0.482   1.859  21.899  0.00  0.00    +0.000 HD
ENDBRANCH  21  23
ENDBRANCH   3  21
BRANCH   8  25
ATOM     25  C   UNL     1       5.281   5.608  16.893  0.00  0.00    +0.000 C 
ATOM     26  O   UNL     1       5.060   5.626  15.677  0.00  0.00    +0.000 OA
BRANCH  25  27
ATOM     27  C   UNL     1       6.404   6.431  17.397  0.00  0.00    +0.000 A 
ATOM     28  C   UNL     1       7.193   5.862  18.412  0.00  0.00    +0.000 A 
ATOM     29  C   UNL     1       8.232   6.579  18.998  0.00  0.00    +0.000 A 
ATOM     30  C   UNL     1       8.484   7.883  18.586  0.00  0.00    +0.000 A 
ATOM     31  C   UNL     1       7.686   8.471  17.601  0.00  0.00    +0.000 A 
ATOM     32  C   UNL     1       6.641   7.750  17.005  0.00  0.00    +0.000 A 
ENDBRANCH  25  27
ENDBRANCH   8  25
TORSDOF 6
ENDMDL
MODEL 6
REMARK VINA RESULT:      -8.3      1.542      2.280
REMARK  Name = 
REMARK  7 active torsions:
REMARK  status: ('A' for Active; 'I' for Inactive)
REMARK    1  A    between atoms: C_1  and  S_2
REMARK    2  A    between atoms: S_2  and  C_5
REMARK    3  A    between atoms: C_8  and  C_9
REMARK    4  A    between atoms: C_11  and  C_12
REMARK    5  A    between atoms: C_12  and  O_14
REMARK    6  A    between atoms: C_19  and  C_20
REMARK    7  A    between atoms: C_20  and  C_22
REMARK                            x       y       z     vdW  Elec       q    Type
REMARK                         _______ _______ _______ _____ _____    ______ ____
ROOT
ATOM      1  C   UNL     1       2.087   6.510  19.854  0.00  0.00    +0.000 A 
ATOM      2  C   UNL     1       1.398   5.471  20.435  0.00  0.00    +0.000 A 
ATOM      3  C   UNL     1       1.903   4.203  20.294  0.00  0.00    +0.000 A 
ATOM      4  C   UNL     1       2.730   3.890  19.229  0.00  0.00    +0.000 A 
ATOM      5  C   UNL     1       2.804   2.551  18.784  0.00  0.00    +0.000 A 
ATOM      6  C   UNL     1       3.569   2.203  17.693  0.00  0.00    +0.000 A 
ATOM      7  C   UNL     1       4.322   3.188  17.092  0.00  0.00    +0.000 A 
ATOM      8  C   UNL     1       4.253   4.538  17.527  0.00  0.00    +0.000 A 
ATOM      9  C   UNL     1       3.387   4.957  18.575  0.00  0.00    +0.000 A 
ATOM     10  N   UNL     1       3.112   6.260  18.976  0.00  0.00    +0.000 NA
ENDROOT
BRANCH   1  14
ATOM     11  C   UNL     1       0.590  10.400  20.980  0.00  0.00    +0.000 A 
ATOM     12  C   UNL     1       0.868   9.462  21.965  0.00  0.00    +0.000 A 
ATOM     13  C   UNL     1       1.443   8.248  21.590  0.00  0.00    +0.000 A 
ATOM     14  C   UNL     1       1.710   7.904  20.234  0.00  0.00    +0.000 A 
ATOM     15  C   UNL     1       1.508   8.914  19.286  0.00  0.00    +0.000 A 
ATOM     16  C   UNL     1       0.939  10.146  19.648  0.00  0.00    +0.000 A 
BRANCH  11  18
ATOM     17  C   UNL     1      -1.179  11.397  22.906  0.00  0.00    +0.000 C 
ATOM     18  S   UNL     1      -0.355  11.847  21.406  0.00  0.00    +0.000 S 
ATOM     19  O   UNL     1      -1.357  12.028  20.381  0.00  0.00    +0.000 OA
ATOM     20  O   UNL     1       0.597  12.900  21.711  0.00  0.00    +0.000 OA
ENDBRANCH  11  18
ENDBRANCH   1  14
BRANCH   3  21
ATOM     21  C   UNL     1       1.806   3.332  21.488  0.00  0.00    +0.000 C 
ATOM     22  O   UNL     1       2.600   3.284  22.407  0.00  0.00    +0.000 OA
BRANCH  21  23
ATOM     23  O   UNL     1       0.638   2.637  21.473  0.00  0.00    +0.000 OA
ATOM     24  H   UNL     1       0.718   1.662  21.484  0.00  0.00    +0.000 HD
ENDBRANCH  21  23
ENDBRANCH   3  21
BRANCH   8  25
ATOM     25  C   UNL     1       5.024   5.449  16.656  0.00  0.00    +0.000 C 
ATOM     26  O   UNL     1       5.027   6.644  16.973  0.00  0.00    +0.000 OA
BRANCH  25  27
ATOM     27  C   UNL     1       5.675   5.079  15.379  0.00  0.00    +0.000 A 
ATOM     28  C   UNL     1       4.885   4.376  14.453  0.00  0.00    +0.000 A 
ATOM     29  C   UNL     1       5.421   3.926  13.249  0.00  0.00    +0.000 A 
ATOM     30  C   UNL     1       6.763   4.159  12.966  0.00  0.00    +0.000 A 
ATOM     31  C   UNL     1       7.566   4.828  13.894  0.00  0.00    +0.000 A 
ATOM     32  C   UNL     1       7.029   5.286  15.105  0.00  0.00    +0.000 A 
ENDBRANCH  25  27
ENDBRANCH   8  25
TORSDOF 6
ENDMDL
MODEL 7
REMARK VINA RESULT:      -8.2      1.724      2.588
REMARK  Name = 
REMARK  7 active torsions:
REMARK  status: ('A' for Active; 'I' for Inactive)
REMARK    1  A    between atoms: C_1  and  S_2
REMARK    2  A    between atoms: S_2  and  C_5
REMARK    3  A    between atoms: C_8  and  C_9
REMARK    4  A    between atoms: C_11  and  C_12
REMARK    5  A    between atoms: C_12  and  O_14
REMARK    6  A    between atoms: C_19  and  C_20
REMARK    7  A    between atoms: C_20  and  C_22
REMARK                            x       y       z     vdW  Elec       q    Type
REMARK                         _______ _______ _______ _____ _____    ______ ____
ROOT
ATOM      1  C   UNL     1       2.181   6.437  19.594  0.00  0.00    +0.000 A 
ATOM      2  C   UNL     1       1.467   5.445  20.224  0.00  0.00    +0.000 A 
ATOM      3  C   UNL     1       1.956   4.163  20.169  0.00  0.00    +0.000 A 
ATOM      4  C   UNL     1       2.796   3.775  19.140  0.00  0.00    +0.000 A 
ATOM      5  C   UNL     1       2.858   2.411  18.778  0.00  0.00    +0.000 A 
ATOM      6  C   UNL     1       3.635   1.987  17.724  0.00  0.00    +0.000 A 
ATOM      7  C   UNL     1       4.413   2.924  17.077  0.00  0.00    +0.000 A 
ATOM      8  C   UNL     1       4.356   4.298  17.429  0.00  0.00    +0.000 A 
ATOM      9  C   UNL     1       3.480   4.792  18.435  0.00  0.00    +0.000 A 
ATOM     10  N   UNL     1       3.218   6.120  18.752  0.00  0.00    +0.000 NA
ENDROOT
BRANCH   1  14
ATOM     11  C   UNL     1       0.721  10.414  20.427  0.00  0.00    +0.000 A 
ATOM     12  C   UNL     1       0.883   9.513  21.469  0.00  0.00    +0.000 A 
ATOM     13  C   UNL     1       1.448   8.267  21.195  0.00  0.00    +0.000 A 
ATOM     14  C   UNL     1       1.819   7.857  19.883  0.00  0.00    +0.000 A 
ATOM     15  C   UNL     1       1.732   8.829  18.880  0.00  0.00    +0.000 A 
ATOM     16  C   UNL     1       1.174  10.092  19.142  0.00  0.00    +0.000 A 
BRANCH  11  18
ATOM     17  C   UNL     1       0.435  13.046  19.521  0.00  0.00    +0.000 C 
ATOM     18  S   UNL     1      -0.209  11.905  20.710  0.00  0.00    +0.000 S 
ATOM     19  O   UNL     1       0.137  12.389  22.028  0.00  0.00    +0.000 OA
ATOM     20  O   UNL     1      -1.588  11.618  20.362  0.00  0.00    +0.000 OA
ENDBRANCH  11  18
ENDBRANCH   1  14
BRANCH   3  21
ATOM     21  C   UNL     1       1.825   3.368  21.411  0.00  0.00    +0.000 C 
ATOM     22  O   UNL     1       2.596   3.376  22.352  0.00  0.00    +0.000 OA
BRANCH  21  23
ATOM     23  O   UNL     1       0.656   2.675  21.409  0.00  0.00    +0.000 OA
ATOM     24  H   UNL     1       0.705   1.749  21.724  0.00  0.00    +0.000 HD
ENDBRANCH  21  23
ENDBRANCH   3  21
BRANCH   8  25
ATOM     25  C   UNL     1       5.155   5.145  16.519  0.00  0.00    +0.000 C 
ATOM     26  O   UNL     1       5.281   6.332  16.837  0.00  0.00    +0.000 OA
BRANCH  25  27
ATOM     27  C   UNL     1       5.700   4.727  15.206  0.00  0.00    +0.000 A 
ATOM     28  C   UNL     1       7.007   5.149  14.907  0.00  0.00    +0.000 A 
ATOM     29  C   UNL     1       7.587   4.864  13.673  0.00  0.00    +0.000 A 
ATOM     30  C   UNL     1       6.857   4.167  12.717  0.00  0.00    +0.000 A 
ATOM     31  C   UNL     1       5.544   3.772  12.990  0.00  0.00    +0.000 A 
ATOM     32  C   UNL     1       4.959   4.054  14.233  0.00  0.00    +0.000 A 
ENDBRANCH  25  27
ENDBRANCH   8  25
TORSDOF 6
ENDMDL
MODEL 8
REMARK VINA RESULT:      -8.1      0.766      1.439
REMARK  Name = 
REMARK  7 active torsions:
REMARK  status: ('A' for Active; 'I' for Inactive)
REMARK    1  A    between atoms: C_1  and  S_2
REMARK    2  A    between atoms: S_2  and  C_5
REMARK    3  A    between atoms: C_8  and  C_9
REMARK    4  A    between atoms: C_11  and  C_12
REMARK    5  A    between atoms: C_12  and  O_14
REMARK    6  A    between atoms: C_19  and  C_20
REMARK    7  A    between atoms: C_20  and  C_22
REMARK                            x       y       z     vdW  Elec       q    Type
REMARK                         _______ _______ _______ _____ _____    ______ ____
ROOT
ATOM      1  C   UNL     1       2.027   6.547  19.729  0.00  0.00    +0.000 A 
ATOM      2  C   UNL     1       1.323   5.474  20.223  0.00  0.00    +0.000 A 
ATOM      3  C   UNL     1       1.924   4.241  20.198  0.00  0.00    +0.000 A 
ATOM      4  C   UNL     1       2.928   3.966  19.285  0.00  0.00    +0.000 A 
ATOM      5  C   UNL     1       3.157   2.628  18.894  0.00  0.00    +0.000 A 
ATOM      6  C   UNL     1       4.104   2.314  17.946  0.00  0.00    +0.000 A 
ATOM      7  C   UNL     1       4.878   3.337  17.442  0.00  0.00    +0.000 A 
ATOM      8  C   UNL     1       4.655   4.687  17.824  0.00  0.00    +0.000 A 
ATOM      9  C   UNL     1       3.610   5.064  18.712  0.00  0.00    +0.000 A 
ATOM     10  N   UNL     1       3.192   6.352  19.029  0.00  0.00    +0.000 NA
ENDROOT
BRANCH   1  14
ATOM     11  C   UNL     1       0.929  10.650  20.500  0.00  0.00    +0.000 A 
ATOM     12  C   UNL     1       1.085  10.219  19.191  0.00  0.00    +0.000 A 
ATOM     13  C   UNL     1       1.342   8.868  18.958  0.00  0.00    +0.000 A 
ATOM     14  C   UNL     1       1.506   7.919  20.007  0.00  0.00    +0.000 A 
ATOM     15  C   UNL     1       1.244   8.375  21.304  0.00  0.00    +0.000 A 
ATOM     16  C   UNL     1       0.973   9.731  21.555  0.00  0.00    +0.000 A 
BRANCH  11  18
ATOM     17  C   UNL     1      -0.363  12.530  22.123  0.00  0.00    +0.000 C 
ATOM     18  S   UNL     1       0.838  12.398  20.829  0.00  0.00    +0.000 S 
ATOM     19  O   UNL     1       0.296  13.034  19.649  0.00  0.00    +0.000 OA
ATOM     20  O   UNL     1       2.126  12.797  21.365  0.00  0.00    +0.000 OA
ENDBRANCH  11  18
ENDBRANCH   1  14
BRANCH   3  21
ATOM     21  C   UNL     1       1.696   3.386  21.386  0.00  0.00    +0.000 C 
ATOM     22  O   UNL     1       2.382   3.355  22.389  0.00  0.00    +0.000 OA
BRANCH  21  23
ATOM     23  O   UNL     1       0.541   2.684  21.249  0.00  0.00    +0.000 OA
ATOM     24  H   UNL     1       0.599   1.723  21.426  0.00  0.00    +0.000 HD
ENDBRANCH  21  23
ENDBRANCH   3  21
BRANCH   8  25
ATOM     25  C   UNL     1       5.493   5.633  17.059  0.00  0.00    +0.000 C 
ATOM     26  O   UNL     1       5.390   5.591  15.829  0.00  0.00    +0.000 OA
BRANCH  25  27
ATOM     27  C   UNL     1       6.530   6.525  17.629  0.00  0.00    +0.000 A 
ATOM     28  C   UNL     1       6.619   7.815  17.078  0.00  0.00    +0.000 A 
ATOM     29  C   UNL     1       7.601   8.707  17.499  0.00  0.00    +0.000 A 
ATOM     30  C   UNL     1       8.519   8.311  18.465  0.00  0.00    +0.000 A 
ATOM     31  C   UNL     1       8.461   7.019  18.996  0.00  0.00    +0.000 A 
ATOM     32  C   UNL     1       7.470   6.120  18.578  0.00  0.00    +0.000 A 
ENDBRANCH  25  27
ENDBRANCH   8  25
TORSDOF 6
ENDMDL
MODEL 9
REMARK VINA RESULT:      -7.6      1.953      2.996
REMARK  Name = 
REMARK  7 active torsions:
REMARK  status: ('A' for Active; 'I' for Inactive)
REMARK    1  A    between atoms: C_1  and  S_2
REMARK    2  A    between atoms: S_2  and  C_5
REMARK    3  A    between atoms: C_8  and  C_9
REMARK    4  A    between atoms: C_11  and  C_12
REMARK    5  A    between atoms: C_12  and  O_14
REMARK    6  A    between atoms: C_19  and  C_20
REMARK    7  A    between atoms: C_20  and  C_22
REMARK                            x       y       z     vdW  Elec       q    Type
REMARK                         _______ _______ _______ _____ _____    ______ ____
ROOT
ATOM      1  C   UNL     1       2.171   6.480  19.200  0.00  0.00    +0.000 A 
ATOM      2  C   UNL     1       1.478   5.501  19.873  0.00  0.00    +0.000 A 
ATOM      3  C   UNL     1       2.038   4.250  19.947  0.00  0.00    +0.000 A 
ATOM      4  C   UNL     1       2.952   3.831  18.997  0.00  0.00    +0.000 A 
ATOM      5  C   UNL     1       3.107   2.449  18.751  0.00  0.00    +0.000 A 
ATOM      6  C   UNL     1       3.962   1.989  17.775  0.00  0.00    +0.000 A 
ATOM      7  C   UNL     1       4.722   2.915  17.093  0.00  0.00    +0.000 A 
ATOM      8  C   UNL     1       4.572   4.307  17.328  0.00  0.00    +0.000 A 
ATOM      9  C   UNL     1       3.617   4.827  18.245  0.00  0.00    +0.000 A 
ATOM     10  N   UNL     1       3.267   6.159  18.438  0.00  0.00    +0.000 NA
ENDROOT
BRANCH   1  14
ATOM     11  C   UNL     1       1.276  10.678  19.667  0.00  0.00    +0.000 A 
ATOM     12  C   UNL     1       1.592  10.182  18.410  0.00  0.00    +0.000 A 
ATOM     13  C   UNL     1       1.780   8.808  18.261  0.00  0.00    +0.000 A 
ATOM     14  C   UNL     1       1.717   7.895  19.353  0.00  0.00    +0.000 A 
ATOM     15  C   UNL     1       1.299   8.422  20.580  0.00  0.00    +0.000 A 
ATOM     16  C   UNL     1       1.095   9.803  20.744  0.00  0.00    +0.000 A 
BRANCH  11  18
ATOM     17  C   UNL     1       2.333  13.065  18.658  0.00  0.00    +0.000 C 
ATOM     18  S   UNL     1       1.265  12.440  19.923  0.00  0.00    +0.000 S 
ATOM     19  O   UNL     1       1.888  12.696  21.202  0.00  0.00    +0.000 OA
ATOM     20  O   UNL     1      -0.083  12.901  19.646  0.00  0.00    +0.000 OA
ENDBRANCH  11  18
ENDBRANCH   1  14
BRANCH   3  21
ATOM     21  C   UNL     1       1.884   3.550  21.243  0.00  0.00    +0.000 C 
ATOM     22  O   UNL     1       2.628   3.640  22.200  0.00  0.00    +0.000 OA
BRANCH  21  23
ATOM     23  O   UNL     1       0.724   2.842  21.263  0.00  0.00    +0.000 OA
ATOM     24  H   UNL     1      -0.006   3.227  21.791  0.00  0.00    +0.000 HD
ENDBRANCH  21  23
ENDBRANCH   3  21
BRANCH   8  25
ATOM     25  C   UNL     1       5.373   5.124  16.392  0.00  0.00    +0.000 C 
ATOM     26  O   UNL     1       5.574   6.299  16.718  0.00  0.00    +0.000 OA
BRANCH  25  27
ATOM     27  C   UNL     1       5.835   4.698  15.051  0.00  0.00    +0.000 A 
ATOM     28  C   UNL     1       7.095   5.169  14.643  0.00  0.00    +0.000 A 
ATOM     29  C   UNL     1       7.592   4.878  13.375  0.00  0.00    +0.000 A 
ATOM     30  C   UNL     1       6.825   4.125  12.493  0.00  0.00    +0.000 A 
ATOM     31  C   UNL     1       5.557   3.679  12.876  0.00  0.00    +0.000 A 
ATOM     32  C   UNL     1       5.054   3.966  14.153  0.00  0.00    +0.000 A 
ENDBRANCH  25  27
ENDBRANCH   8  25
TORSDOF 6
ENDMDL
