MODEL 1
REMARK VINA RESULT:      -9.3      0.000      0.000
REMARK  Name = 
REMARK  9 active torsions:
REMARK  status: ('A' for Active; 'I' for Inactive)
REMARK    1  A    between atoms: C_1  and  C_2
REMARK    2  A    between atoms: C_2  and  C_3
REMARK    3  A    between atoms: C_6  and  N_7
REMARK    4  A    between atoms: N_16  and  C_17
REMARK    5  A    between atoms: C_17  and  C_18
REMARK    6  A    between atoms: N_20  and  C_21
REMARK    7  A    between atoms: N_20  and  C_23
REMARK    8  A    between atoms: C_21  and  C_22
REMARK    9  A    between atoms: C_27  and  C_28
REMARK                            x       y       z     vdW  Elec       q    Type
REMARK                         _______ _______ _______ _____ _____    ______ ____
ROOT
ATOM      1  N   UNL     1       2.527   5.956  18.973  0.00  0.00    +0.000 N 
ATOM      2  C   UNL     1       1.809   4.912  19.558  0.00  0.00    +0.000 A 
ATOM      3  O   UNL     1       0.843   4.915  20.302  0.00  0.00    +0.000 OA
ATOM      4  C   UNL     1       2.406   3.688  19.053  0.00  0.00    +0.000 A 
ATOM      5  C   UNL     1       2.089   2.367  19.304  0.00  0.00    +0.000 A 
ATOM      6  C   UNL     1       2.915   1.418  18.721  0.00  0.00    +0.000 A 
ATOM      7  C   UNL     1       3.988   1.857  17.938  0.00  0.00    +0.000 A 
ATOM      8  N   UNL     1       4.273   3.161  17.661  0.00  0.00    +0.000 NA
ATOM      9  C   UNL     1       3.447   4.066  18.215  0.00  0.00    +0.000 A 
ATOM     10  N   UNL     1       3.443   5.472  17.993  0.00  0.00    +0.000 N 
ENDROOT
BRANCH   1  14
ATOM     11  C   UNL     1       1.347   9.992  19.135  0.00  0.00    +0.000 A 
ATOM     12  C   UNL     1       1.737   9.406  17.926  0.00  0.00    +0.000 A 
ATOM     13  C   UNL     1       2.155   8.080  17.903  0.00  0.00    +0.000 A 
ATOM     14  C   UNL     1       2.135   7.302  19.062  0.00  0.00    +0.000 A 
ATOM     15  C   UNL     1       1.723   7.873  20.267  0.00  0.00    +0.000 A 
ATOM     16  C   UNL     1       1.349   9.218  20.304  0.00  0.00    +0.000 A 
BRANCH  11  18
ATOM     17  C   UNL     1      -0.414  11.598  19.922  0.00  0.00    +0.000 C 
ATOM     18  C   UNL     1       0.890  11.427  19.156  0.00  0.00    +0.000 C 
ENDBRANCH  11  18
ENDBRANCH   1  14
BRANCH  10  19
ATOM     19  C   UNL     1       4.765   6.093  17.761  0.00  0.00    +0.000 C 
BRANCH  19  20
ATOM     20  C   UNL     1       5.330   6.076  16.323  0.00  0.00    +0.000 C 
ATOM     21  O   UNL     1       4.868   6.792  15.430  0.00  0.00    +0.000 OA
ATOM     22  N   UNL     1       6.368   5.159  16.046  0.00  0.00    +0.000 N 
BRANCH  22  23
ATOM     23  C   UNL     1       6.675   4.863  14.680  0.00  0.00    +0.000 A 
ATOM     24  C   UNL     1       7.717   5.533  14.028  0.00  0.00    +0.000 A 
ATOM     25  C   UNL     1       7.970   5.293  12.675  0.00  0.00    +0.000 A 
ATOM     26  C   UNL     1       7.209   4.356  11.973  0.00  0.00    +0.000 A 
ATOM     27  C   UNL     1       6.183   3.659  12.617  0.00  0.00    +0.000 A 
ATOM     28  C   UNL     1       5.401   2.597  11.901  0.00  0.00    +0.000 C 
ATOM     29  C   UNL     1       5.912   3.933  13.966  0.00  0.00    +0.000 A 
ENDBRANCH  22  23
BRANCH  22  30
ATOM     30  C   UNL     1       7.213   4.488  17.050  0.00  0.00    +0.000 C 
ATOM     31  C   UNL     1       7.721   5.443  18.123  0.00  0.00    +0.000 C 
ENDBRANCH  22  30
ENDBRANCH  19  20
ENDBRANCH  10  19
TORSDOF 6
ENDMDL
MODEL 2
REMARK VINA RESULT:      -8.4      0.474      1.364
REMARK  Name = 
REMARK  9 active torsions:
REMARK  status: ('A' for Active; 'I' for Inactive)
REMARK    1  A    between atoms: C_1  and  C_2
REMARK    2  A    between atoms: C_2  and  C_3
REMARK    3  A    between atoms: C_6  and  N_7
REMARK    4  A    between atoms: N_16  and  C_17
REMARK    5  A    between atoms: C_17  and  C_18
REMARK    6  A    between atoms: N_20  and  C_21
REMARK    7  A    between atoms: N_20  and  C_23
REMARK    8  A    between atoms: C_21  and  C_22
REMARK    9  A    between atoms: C_27  and  C_28
REMARK                            x       y       z     vdW  Elec       q    Type
REMARK                         _______ _______ _______ _____ _____    ______ ____
ROOT
ATOM      1  N   UNL     1       2.381   5.958  19.199  0.00  0.00    +0.000 N 
ATOM      2  C   UNL     1       1.624   4.953  19.803  0.00  0.00    +0.000 A 
ATOM      3  O   UNL     1       0.651   5.006  20.535  0.00  0.00    +0.000 OA
ATOM      4  C   UNL     1       2.187   3.698  19.336  0.00  0.00    +0.000 A 
ATOM      5  C   UNL     1       1.826   2.395  19.618  0.00  0.00    +0.000 A 
ATOM      6  C   UNL     1       2.627   1.405  19.068  0.00  0.00    +0.000 A 
ATOM      7  C   UNL     1       3.722   1.789  18.287  0.00  0.00    +0.000 A 
ATOM      8  N   UNL     1       4.051   3.076  17.979  0.00  0.00    +0.000 NA
ATOM      9  C   UNL     1       3.248   4.020  18.500  0.00  0.00    +0.000 A 
ATOM     10  N   UNL     1       3.292   5.420  18.242  0.00  0.00    +0.000 N 
ENDROOT
BRANCH   1  14
ATOM     11  C   UNL     1       1.330  10.032  19.244  0.00  0.00    +0.000 A 
ATOM     12  C   UNL     1       1.719   9.404  18.056  0.00  0.00    +0.000 A 
ATOM     13  C   UNL     1       2.095   8.065  18.072  0.00  0.00    +0.000 A 
ATOM     14  C   UNL     1       2.032   7.318  19.249  0.00  0.00    +0.000 A 
ATOM     15  C   UNL     1       1.619   7.931  20.432  0.00  0.00    +0.000 A 
ATOM     16  C   UNL     1       1.288   9.287  20.431  0.00  0.00    +0.000 A 
BRANCH  11  18
ATOM     17  C   UNL     1       1.962  12.358  18.544  0.00  0.00    +0.000 C 
ATOM     18  C   UNL     1       0.919  11.482  19.222  0.00  0.00    +0.000 C 
ENDBRANCH  11  18
ENDBRANCH   1  14
BRANCH  10  19
ATOM     19  C   UNL     1       4.635   5.992  18.008  0.00  0.00    +0.000 C 
BRANCH  19  20
ATOM     20  C   UNL     1       5.174   6.008  16.561  0.00  0.00    +0.000 C 
ATOM     21  O   UNL     1       4.705   6.754  15.696  0.00  0.00    +0.000 OA
ATOM     22  N   UNL     1       6.194   5.086  16.240  0.00  0.00    +0.000 N 
BRANCH  22  23
ATOM     23  C   UNL     1       6.472   4.824  14.861  0.00  0.00    +0.000 A 
ATOM     24  C   UNL     1       5.806   3.793  14.189  0.00  0.00    +0.000 A 
ATOM     25  C   UNL     1       6.129   3.494  12.862  0.00  0.00    +0.000 A 
ATOM     26  C   UNL     1       7.093   4.245  12.187  0.00  0.00    +0.000 A 
ATOM     27  C   UNL     1       7.747   5.296  12.835  0.00  0.00    +0.000 A 
ATOM     28  C   UNL     1       8.733   6.161  12.107  0.00  0.00    +0.000 C 
ATOM     29  C   UNL     1       7.443   5.565  14.178  0.00  0.00    +0.000 A 
ENDBRANCH  22  23
BRANCH  22  30
ATOM     30  C   UNL     1       7.049   4.377  17.210  0.00  0.00    +0.000 C 
ATOM     31  C   UNL     1       7.803   5.326  18.132  0.00  0.00    +0.000 C 
ENDBRANCH  22  30
ENDBRANCH  19  20
ENDBRANCH  10  19
TORSDOF 6
ENDMDL
MODEL 3
REMARK VINA RESULT:      -8.2      0.444      1.548
REMARK  Name = 
REMARK  9 active torsions:
REMARK  status: ('A' for Active; 'I' for Inactive)
REMARK    1  A    between atoms: C_1  and  C_2
REMARK    2  A    between atoms: C_2  and  C_3
REMARK    3  A    between atoms: C_6  and  N_7
REMARK    4  A    between atoms: N_16  and  C_17
REMARK    5  A    between atoms: C_17  and  C_18
REMARK    6  A    between atoms: N_20  and  C_21
REMARK    7  A    between atoms: N_20  and  C_23
REMARK    8  A    between atoms: C_21  and  C_22
REMARK    9  A    between atoms: C_27  and  C_28
REMARK                            x       y       z     vdW  Elec       q    Type
REMARK                         _______ _______ _______ _____ _____    ______ ____
ROOT
ATOM      1  N   UNL     1       2.364   5.935  19.191  0.00  0.00    +0.000 N 
ATOM      2  C   UNL     1       1.614   4.920  19.788  0.00  0.00    +0.000 A 
ATOM      3  O   UNL     1       0.642   4.961  20.522  0.00  0.00    +0.000 OA
ATOM      4  C   UNL     1       2.184   3.672  19.309  0.00  0.00    +0.000 A 
ATOM      5  C   UNL     1       1.830   2.365  19.581  0.00  0.00    +0.000 A 
ATOM      6  C   UNL     1       2.636   1.384  19.022  0.00  0.00    +0.000 A 
ATOM      7  C   UNL     1       3.728   1.782  18.242  0.00  0.00    +0.000 A 
ATOM      8  N   UNL     1       4.049   3.073  17.945  0.00  0.00    +0.000 NA
ATOM      9  C   UNL     1       3.242   4.009  18.475  0.00  0.00    +0.000 A 
ATOM     10  N   UNL     1       3.276   5.410  18.229  0.00  0.00    +0.000 N 
ENDROOT
BRANCH   1  14
ATOM     11  C   UNL     1       1.299   9.995  19.482  0.00  0.00    +0.000 A 
ATOM     12  C   UNL     1       1.308   9.173  20.613  0.00  0.00    +0.000 A 
ATOM     13  C   UNL     1       1.631   7.826  20.487  0.00  0.00    +0.000 A 
ATOM     14  C   UNL     1       2.006   7.292  19.253  0.00  0.00    +0.000 A 
ATOM     15  C   UNL     1       2.024   8.112  18.125  0.00  0.00    +0.000 A 
ATOM     16  C   UNL     1       1.653   9.454  18.238  0.00  0.00    +0.000 A 
BRANCH  11  18
ATOM     17  C   UNL     1       0.043  11.711  20.815  0.00  0.00    +0.000 C 
ATOM     18  C   UNL     1       0.953  11.455  19.623  0.00  0.00    +0.000 C 
ENDBRANCH  11  18
ENDBRANCH   1  14
BRANCH  10  19
ATOM     19  C   UNL     1       4.616   5.992  17.998  0.00  0.00    +0.000 C 
BRANCH  19  20
ATOM     20  C   UNL     1       5.160   6.010  16.552  0.00  0.00    +0.000 C 
ATOM     21  O   UNL     1       4.696   6.759  15.688  0.00  0.00    +0.000 OA
ATOM     22  N   UNL     1       6.178   5.084  16.233  0.00  0.00    +0.000 N 
BRANCH  22  23
ATOM     23  C   UNL     1       6.459   4.824  14.855  0.00  0.00    +0.000 A 
ATOM     24  C   UNL     1       5.788   3.800  14.177  0.00  0.00    +0.000 A 
ATOM     25  C   UNL     1       6.114   3.502  12.851  0.00  0.00    +0.000 A 
ATOM     26  C   UNL     1       7.086   4.248  12.181  0.00  0.00    +0.000 A 
ATOM     27  C   UNL     1       7.745   5.292  12.835  0.00  0.00    +0.000 A 
ATOM     28  C   UNL     1       8.740   6.152  12.113  0.00  0.00    +0.000 C 
ATOM     29  C   UNL     1       7.437   5.560  14.177  0.00  0.00    +0.000 A 
ENDBRANCH  22  23
BRANCH  22  30
ATOM     30  C   UNL     1       7.026   4.370  17.204  0.00  0.00    +0.000 C 
ATOM     31  C   UNL     1       7.783   5.315  18.128  0.00  0.00    +0.000 C 
ENDBRANCH  22  30
ENDBRANCH  19  20
ENDBRANCH  10  19
TORSDOF 6
ENDMDL
MODEL 4
REMARK VINA RESULT:      -7.6      8.007     12.426
REMARK  Name = 
REMARK  9 active torsions:
REMARK  status: ('A' for Active; 'I' for Inactive)
REMARK    1  A    between atoms: C_1  and  C_2
REMARK    2  A    between atoms: C_2  and  C_3
REMARK    3  A    between atoms: C_6  and  N_7
REMARK    4  A    between atoms: N_16  and  C_17
REMARK    5  A    between atoms: C_17  and  C_18
REMARK    6  A    between atoms: N_20  and  C_21
REMARK    7  A    between atoms: N_20  and  C_23
REMARK    8  A    between atoms: C_21  and  C_22
REMARK    9  A    between atoms: C_27  and  C_28
REMARK                            x       y       z     vdW  Elec       q    Type
REMARK                         _______ _______ _______ _____ _____    ______ ____
ROOT
ATOM      1  N   UNL     1       9.648  14.175  18.330  0.00  0.00    +0.000 N 
ATOM      2  C   UNL     1      10.849  14.702  17.851  0.00  0.00    +0.000 A 
ATOM      3  O   UNL     1      11.887  14.162  17.508  0.00  0.00    +0.000 OA
ATOM      4  C   UNL     1      10.641  16.136  17.754  0.00  0.00    +0.000 A 
ATOM      5  C   UNL     1      11.496  17.138  17.339  0.00  0.00    +0.000 A 
ATOM      6  C   UNL     1      11.014  18.435  17.442  0.00  0.00    +0.000 A 
ATOM      7  C   UNL     1       9.726  18.631  17.951  0.00  0.00    +0.000 A 
ATOM      8  N   UNL     1       8.871  17.635  18.321  0.00  0.00    +0.000 NA
ATOM      9  C   UNL     1       9.346  16.384  18.191  0.00  0.00    +0.000 A 
ATOM     10  N   UNL     1       8.629  15.170  18.389  0.00  0.00    +0.000 N 
ENDROOT
BRANCH   1  14
ATOM     11  C   UNL     1       8.899  10.041  18.580  0.00  0.00    +0.000 A 
ATOM     12  C   UNL     1       9.795  10.663  19.456  0.00  0.00    +0.000 A 
ATOM     13  C   UNL     1      10.053  12.024  19.332  0.00  0.00    +0.000 A 
ATOM     14  C   UNL     1       9.382  12.796  18.383  0.00  0.00    +0.000 A 
ATOM     15  C   UNL     1       8.467  12.188  17.522  0.00  0.00    +0.000 A 
ATOM     16  C   UNL     1       8.242  10.812  17.610  0.00  0.00    +0.000 A 
BRANCH  11  18
ATOM     17  C   UNL     1       7.751   8.044  17.585  0.00  0.00    +0.000 C 
ATOM     18  C   UNL     1       8.620   8.567  18.719  0.00  0.00    +0.000 C 
ENDBRANCH  11  18
ENDBRANCH   1  14
BRANCH  10  19
ATOM     19  C   UNL     1       7.597  15.195  19.447  0.00  0.00    +0.000 C 
BRANCH  19  20
ATOM     20  C   UNL     1       6.134  14.908  19.040  0.00  0.00    +0.000 C 
ATOM     21  O   UNL     1       5.826  14.595  17.886  0.00  0.00    +0.000 OA
ATOM     22  N   UNL     1       5.142  15.077  20.030  0.00  0.00    +0.000 N 
BRANCH  22  23
ATOM     23  C   UNL     1       3.774  15.166  19.622  0.00  0.00    +0.000 A 
ATOM     24  C   UNL     1       2.889  14.113  19.881  0.00  0.00    +0.000 A 
ATOM     25  C   UNL     1       1.571  14.172  19.420  0.00  0.00    +0.000 A 
ATOM     26  C   UNL     1       1.117  15.298  18.729  0.00  0.00    +0.000 A 
ATOM     27  C   UNL     1       1.981  16.369  18.486  0.00  0.00    +0.000 A 
ATOM     28  C   UNL     1       1.496  17.617  17.810  0.00  0.00    +0.000 C 
ATOM     29  C   UNL     1       3.312  16.285  18.921  0.00  0.00    +0.000 A 
ENDBRANCH  22  23
BRANCH  22  30
ATOM     30  C   UNL     1       5.379  15.134  21.484  0.00  0.00    +0.000 C 
ATOM     31  C   UNL     1       4.958  16.465  22.095  0.00  0.00    +0.000 C 
ENDBRANCH  22  30
ENDBRANCH  19  20
ENDBRANCH  10  19
TORSDOF 6
ENDMDL
MODEL 5
REMARK VINA RESULT:      -7.5      2.931      7.017
REMARK  Name = 
REMARK  9 active torsions:
REMARK  status: ('A' for Active; 'I' for Inactive)
REMARK    1  A    between atoms: C_1  and  C_2
REMARK    2  A    between atoms: C_2  and  C_3
REMARK    3  A    between atoms: C_6  and  N_7
REMARK    4  A    between atoms: N_16  and  C_17
REMARK    5  A    between atoms: C_17  and  C_18
REMARK    6  A    between atoms: N_20  and  C_21
REMARK    7  A    between atoms: N_20  and  C_23
REMARK    8  A    between atoms: C_21  and  C_22
REMARK    9  A    between atoms: C_27  and  C_28
REMARK                            x       y       z     vdW  Elec       q    Type
REMARK                         _______ _______ _______ _____ _____    ______ ____
ROOT
ATOM      1  N   UNL     1       4.019   5.255  18.466  0.00  0.00    +0.000 N 
ATOM      2  C   UNL     1       3.645   4.162  17.681  0.00  0.00    +0.000 A 
ATOM      3  O   UNL     1       4.121   3.704  16.657  0.00  0.00    +0.000 OA
ATOM      4  C   UNL     1       2.520   3.549  18.366  0.00  0.00    +0.000 A 
ATOM      5  C   UNL     1       1.765   2.442  18.032  0.00  0.00    +0.000 A 
ATOM      6  C   UNL     1       0.692   2.159  18.866  0.00  0.00    +0.000 A 
ATOM      7  C   UNL     1       0.456   2.999  19.959  0.00  0.00    +0.000 A 
ATOM      8  N   UNL     1       1.229   4.067  20.306  0.00  0.00    +0.000 NA
ATOM      9  C   UNL     1       2.278   4.311  19.501  0.00  0.00    +0.000 A 
ATOM     10  N   UNL     1       3.304   5.278  19.699  0.00  0.00    +0.000 N 
ENDROOT
BRANCH   1  14
ATOM     11  C   UNL     1       7.472   7.549  17.747  0.00  0.00    +0.000 A 
ATOM     12  C   UNL     1       6.253   7.877  17.143  0.00  0.00    +0.000 A 
ATOM     13  C   UNL     1       5.134   7.084  17.369  0.00  0.00    +0.000 A 
ATOM     14  C   UNL     1       5.191   5.996  18.241  0.00  0.00    +0.000 A 
ATOM     15  C   UNL     1       6.397   5.678  18.867  0.00  0.00    +0.000 A 
ATOM     16  C   UNL     1       7.536   6.442  18.605  0.00  0.00    +0.000 A 
BRANCH  11  18
ATOM     17  C   UNL     1       8.629   9.705  18.306  0.00  0.00    +0.000 C 
ATOM     18  C   UNL     1       8.682   8.414  17.504  0.00  0.00    +0.000 C 
ENDBRANCH  11  18
ENDBRANCH   1  14
BRANCH  10  19
ATOM     19  C   UNL     1       2.887   6.536  20.356  0.00  0.00    +0.000 C 
BRANCH  19  20
ATOM     20  C   UNL     1       1.999   7.513  19.554  0.00  0.00    +0.000 C 
ATOM     21  O   UNL     1       1.917   7.463  18.323  0.00  0.00    +0.000 OA
ATOM     22  N   UNL     1       1.321   8.516  20.281  0.00  0.00    +0.000 N 
BRANCH  22  23
ATOM     23  C   UNL     1       0.783   9.633  19.567  0.00  0.00    +0.000 A 
ATOM     24  C   UNL     1       1.380  10.895  19.674  0.00  0.00    +0.000 A 
ATOM     25  C   UNL     1       0.812  11.999  19.032  0.00  0.00    +0.000 A 
ATOM     26  C   UNL     1      -0.334  11.845  18.249  0.00  0.00    +0.000 A 
ATOM     27  C   UNL     1      -0.926  10.586  18.110  0.00  0.00    +0.000 A 
ATOM     28  C   UNL     1      -2.114  10.385  17.217  0.00  0.00    +0.000 C 
ATOM     29  C   UNL     1      -0.370   9.491  18.788  0.00  0.00    +0.000 A 
ENDBRANCH  22  23
BRANCH  22  30
ATOM     30  C   UNL     1       1.075   8.508  21.734  0.00  0.00    +0.000 C 
ATOM     31  C   UNL     1      -0.398   8.689  22.080  0.00  0.00    +0.000 C 
ENDBRANCH  22  30
ENDBRANCH  19  20
ENDBRANCH  10  19
TORSDOF 6
ENDMDL
MODEL 6
REMARK VINA RESULT:      -7.3      2.923      7.051
REMARK  Name = 
REMARK  9 active torsions:
REMARK  status: ('A' for Active; 'I' for Inactive)
REMARK    1  A    between atoms: C_1  and  C_2
REMARK    2  A    between atoms: C_2  and  C_3
REMARK    3  A    between atoms: C_6  and  N_7
REMARK    4  A    between atoms: N_16  and  C_17
REMARK    5  A    between atoms: C_17  and  C_18
REMARK    6  A    between atoms: N_20  and  C_21
REMARK    7  A    between atoms: N_20  and  C_23
REMARK    8  A    between atoms: C_21  and  C_22
REMARK    9  A    between atoms: C_27  and  C_28
REMARK                            x       y       z     vdW  Elec       q    Type
REMARK                         _______ _______ _______ _____ _____    ______ ____
ROOT
ATOM      1  N   UNL     1       3.995   5.263  18.423  0.00  0.00    +0.000 N 
ATOM      2  C   UNL     1       3.616   4.190  17.614  0.00  0.00    +0.000 A 
ATOM      3  O   UNL     1       4.090   3.753  16.579  0.00  0.00    +0.000 OA
ATOM      4  C   UNL     1       2.490   3.565  18.287  0.00  0.00    +0.000 A 
ATOM      5  C   UNL     1       1.731   2.468  17.930  0.00  0.00    +0.000 A 
ATOM      6  C   UNL     1       0.659   2.170  18.758  0.00  0.00    +0.000 A 
ATOM      7  C   UNL     1       0.428   2.985  19.870  0.00  0.00    +0.000 A 
ATOM      8  N   UNL     1       1.204   4.043  20.241  0.00  0.00    +0.000 NA
ATOM      9  C   UNL     1       2.253   4.302  19.440  0.00  0.00    +0.000 A 
ATOM     10  N   UNL     1       3.282   5.261  19.658  0.00  0.00    +0.000 N 
ENDROOT
BRANCH   1  14
ATOM     11  C   UNL     1       7.455   7.560  17.746  0.00  0.00    +0.000 A 
ATOM     12  C   UNL     1       6.251   7.868  17.103  0.00  0.00    +0.000 A 
ATOM     13  C   UNL     1       5.130   7.074  17.316  0.00  0.00    +0.000 A 
ATOM     14  C   UNL     1       5.169   6.005  18.213  0.00  0.00    +0.000 A 
ATOM     15  C   UNL     1       6.360   5.707  18.878  0.00  0.00    +0.000 A 
ATOM     16  C   UNL     1       7.502   6.472  18.629  0.00  0.00    +0.000 A 
BRANCH  11  18
ATOM     17  C   UNL     1       8.670   9.651  18.417  0.00  0.00    +0.000 C 
ATOM     18  C   UNL     1       8.667   8.425  17.516  0.00  0.00    +0.000 C 
ENDBRANCH  11  18
ENDBRANCH   1  14
BRANCH  10  19
ATOM     19  C   UNL     1       2.871   6.505  20.344  0.00  0.00    +0.000 C 
BRANCH  19  20
ATOM     20  C   UNL     1       2.049   7.537  19.540  0.00  0.00    +0.000 C 
ATOM     21  O   UNL     1       2.131   7.625  18.312  0.00  0.00    +0.000 OA
ATOM     22  N   UNL     1       1.236   8.429  20.274  0.00  0.00    +0.000 N 
BRANCH  22  23
ATOM     23  C   UNL     1       0.743   9.602  19.620  0.00  0.00    +0.000 A 
ATOM     24  C   UNL     1      -0.613   9.711  19.290  0.00  0.00    +0.000 A 
ATOM     25  C   UNL     1      -1.080  10.827  18.590  0.00  0.00    +0.000 A 
ATOM     26  C   UNL     1      -0.204  11.859  18.247  0.00  0.00    +0.000 A 
ATOM     27  C   UNL     1       1.147  11.778  18.595  0.00  0.00    +0.000 A 
ATOM     28  C   UNL     1       2.091  12.907  18.300  0.00  0.00    +0.000 C 
ATOM     29  C   UNL     1       1.614  10.638  19.265  0.00  0.00    +0.000 A 
ENDBRANCH  22  23
BRANCH  22  30
ATOM     30  C   UNL     1       0.802   8.246  21.671  0.00  0.00    +0.000 C 
ATOM     31  C   UNL     1       1.346   9.325  22.599  0.00  0.00    +0.000 C 
ENDBRANCH  22  30
ENDBRANCH  19  20
ENDBRANCH  10  19
TORSDOF 6
ENDMDL
MODEL 7
REMARK VINA RESULT:      -7.3      7.846     11.219
REMARK  Name = 
REMARK  9 active torsions:
REMARK  status: ('A' for Active; 'I' for Inactive)
REMARK    1  A    between atoms: C_1  and  C_2
REMARK    2  A    between atoms: C_2  and  C_3
REMARK    3  A    between atoms: C_6  and  N_7
REMARK    4  A    between atoms: N_16  and  C_17
REMARK    5  A    between atoms: C_17  and  C_18
REMARK    6  A    between atoms: N_20  and  C_21
REMARK    7  A    between atoms: N_20  and  C_23
REMARK    8  A    between atoms: C_21  and  C_22
REMARK    9  A    between atoms: C_27  and  C_28
REMARK                            x       y       z     vdW  Elec       q    Type
REMARK                         _______ _______ _______ _____ _____    ______ ____
ROOT
ATOM      1  N   UNL     1      -1.086  15.043  20.973  0.00  0.00    +0.000 N 
ATOM      2  C   UNL     1      -1.318  16.355  20.555  0.00  0.00    +0.000 A 
ATOM      3  O   UNL     1      -2.264  17.103  20.734  0.00  0.00    +0.000 OA
ATOM      4  C   UNL     1      -0.116  16.765  19.850  0.00  0.00    +0.000 A 
ATOM      5  C   UNL     1       0.196  17.960  19.233  0.00  0.00    +0.000 A 
ATOM      6  C   UNL     1       1.413  18.007  18.569  0.00  0.00    +0.000 A 
ATOM      7  C   UNL     1       2.218  16.863  18.569  0.00  0.00    +0.000 A 
ATOM      8  N   UNL     1       1.923  15.698  19.213  0.00  0.00    +0.000 NA
ATOM      9  C   UNL     1       0.751  15.680  19.872  0.00  0.00    +0.000 A 
ATOM     10  N   UNL     1       0.260  14.646  20.719  0.00  0.00    +0.000 N 
ENDROOT
BRANCH   1  14
ATOM     11  C   UNL     1      -3.601  13.041  23.688  0.00  0.00    +0.000 A 
ATOM     12  C   UNL     1      -2.553  13.849  24.142  0.00  0.00    +0.000 A 
ATOM     13  C   UNL     1      -1.714  14.474  23.225  0.00  0.00    +0.000 A 
ATOM     14  C   UNL     1      -1.939  14.356  21.853  0.00  0.00    +0.000 A 
ATOM     15  C   UNL     1      -2.998  13.572  21.393  0.00  0.00    +0.000 A 
ATOM     16  C   UNL     1      -3.813  12.903  22.309  0.00  0.00    +0.000 A 
BRANCH  11  18
ATOM     17  C   UNL     1      -5.977  12.530  24.313  0.00  0.00    +0.000 C 
ATOM     18  C   UNL     1      -4.511  12.369  24.684  0.00  0.00    +0.000 C 
ENDBRANCH  11  18
ENDBRANCH   1  14
BRANCH  10  19
ATOM     19  C   UNL     1       0.626  13.267  20.333  0.00  0.00    +0.000 C 
BRANCH  19  20
ATOM     20  C   UNL     1      -0.106  12.633  19.129  0.00  0.00    +0.000 C 
ATOM     21  O   UNL     1      -0.068  13.136  18.002  0.00  0.00    +0.000 OA
ATOM     22  N   UNL     1      -0.879  11.478  19.377  0.00  0.00    +0.000 N 
BRANCH  22  23
ATOM     23  C   UNL     1      -1.836  11.070  18.394  0.00  0.00    +0.000 A 
ATOM     24  C   UNL     1      -1.508  10.086  17.454  0.00  0.00    +0.000 A 
ATOM     25  C   UNL     1      -2.418   9.739  16.452  0.00  0.00    +0.000 A 
ATOM     26  C   UNL     1      -3.676  10.344  16.404  0.00  0.00    +0.000 A 
ATOM     27  C   UNL     1      -4.029  11.308  17.352  0.00  0.00    +0.000 A 
ATOM     28  C   UNL     1      -5.399  11.918  17.362  0.00  0.00    +0.000 C 
ATOM     29  C   UNL     1      -3.095  11.677  18.332  0.00  0.00    +0.000 A 
ENDBRANCH  22  23
BRANCH  22  30
ATOM     30  C   UNL     1      -0.770  10.608  20.561  0.00  0.00    +0.000 C 
ATOM     31  C   UNL     1       0.344   9.576  20.430  0.00  0.00    +0.000 C 
ENDBRANCH  22  30
ENDBRANCH  19  20
ENDBRANCH  10  19
TORSDOF 6
ENDMDL
MODEL 8
REMARK VINA RESULT:      -7.3      4.829     10.336
REMARK  Name = 
REMARK  9 active torsions:
REMARK  status: ('A' for Active; 'I' for Inactive)
REMARK    1  A    between atoms: C_1  and  C_2
REMARK    2  A    between atoms: C_2  and  C_3
REMARK    3  A    between atoms: C_6  and  N_7
REMARK    4  A    between atoms: N_16  and  C_17
REMARK    5  A    between atoms: C_17  and  C_18
REMARK    6  A    between atoms: N_20  and  C_21
REMARK    7  A    between atoms: N_20  and  C_23
REMARK    8  A    between atoms: C_21  and  C_22
REMARK    9  A    between atoms: C_27  and  C_28
REMARK                            x       y       z     vdW  Elec       q    Type
REMARK                         _______ _______ _______ _____ _____    ______ ____
ROOT
ATOM      1  N   UNL     1       1.007  10.285  19.326  0.00  0.00    +0.000 N 
ATOM      2  C   UNL     1       1.821   9.570  18.445  0.00  0.00    +0.000 A 
ATOM      3  O   UNL     1       2.358   9.895  17.400  0.00  0.00    +0.000 OA
ATOM      4  C   UNL     1       2.000   8.260  19.046  0.00  0.00    +0.000 A 
ATOM      5  C   UNL     1       2.711   7.162  18.602  0.00  0.00    +0.000 A 
ATOM      6  C   UNL     1       2.616   6.017  19.380  0.00  0.00    +0.000 A 
ATOM      7  C   UNL     1       1.823   6.055  20.531  0.00  0.00    +0.000 A 
ATOM      8  N   UNL     1       1.155   7.154  20.986  0.00  0.00    +0.000 NA
ATOM      9  C   UNL     1       1.279   8.261  20.232  0.00  0.00    +0.000 A 
ATOM     10  N   UNL     1       0.792   9.564  20.537  0.00  0.00    +0.000 N 
ENDROOT
BRANCH   1  14
ATOM     11  C   UNL     1       0.174  14.385  18.874  0.00  0.00    +0.000 A 
ATOM     12  C   UNL     1      -0.475  13.429  18.085  0.00  0.00    +0.000 A 
ATOM     13  C   UNL     1      -0.158  12.082  18.229  0.00  0.00    +0.000 A 
ATOM     14  C   UNL     1       0.757  11.661  19.194  0.00  0.00    +0.000 A 
ATOM     15  C   UNL     1       1.390  12.607  20.003  0.00  0.00    +0.000 A 
ATOM     16  C   UNL     1       1.112  13.964  19.828  0.00  0.00    +0.000 A 
BRANCH  11  18
ATOM     17  C   UNL     1      -1.094  16.328  19.828  0.00  0.00    +0.000 C 
ATOM     18  C   UNL     1      -0.174  15.843  18.718  0.00  0.00    +0.000 C 
ENDBRANCH  11  18
ENDBRANCH   1  14
BRANCH  10  19
ATOM     19  C   UNL     1      -0.484   9.618  21.283  0.00  0.00    +0.000 C 
BRANCH  19  20
ATOM     20  C   UNL     1      -0.681  10.767  22.297  0.00  0.00    +0.000 C 
ATOM     21  O   UNL     1      -0.048  10.822  23.355  0.00  0.00    +0.000 OA
ATOM     22  N   UNL     1      -1.667  11.732  21.996  0.00  0.00    +0.000 N 
BRANCH  22  23
ATOM     23  C   UNL     1      -2.124  12.594  23.043  0.00  0.00    +0.000 A 
ATOM     24  C   UNL     1      -3.303  12.300  23.737  0.00  0.00    +0.000 A 
ATOM     25  C   UNL     1      -3.784  13.179  24.711  0.00  0.00    +0.000 A 
ATOM     26  C   UNL     1      -3.072  14.339  25.025  0.00  0.00    +0.000 A 
ATOM     27  C   UNL     1      -1.878  14.632  24.361  0.00  0.00    +0.000 A 
ATOM     28  C   UNL     1      -1.062  15.835  24.732  0.00  0.00    +0.000 C 
ATOM     29  C   UNL     1      -1.422  13.763  23.359  0.00  0.00    +0.000 A 
ENDBRANCH  22  23
BRANCH  22  30
ATOM     30  C   UNL     1      -2.260  11.971  20.668  0.00  0.00    +0.000 C 
ATOM     31  C   UNL     1      -3.171  13.192  20.643  0.00  0.00    +0.000 C 
ENDBRANCH  22  30
ENDBRANCH  19  20
ENDBRANCH  10  19
TORSDOF 6
ENDMDL
MODEL 9
REMARK VINA RESULT:      -7.3      7.742     11.893
REMARK  Name = 
REMARK  9 active torsions:
REMARK  status: ('A' for Active; 'I' for Inactive)
REMARK    1  A    between atoms: C_1  and  C_2
REMARK    2  A    between atoms: C_2  and  C_3
REMARK    3  A    between atoms: C_6  and  N_7
REMARK    4  A    between atoms: N_16  and  C_17
REMARK    5  A    between atoms: C_17  and  C_18
REMARK    6  A    between atoms: N_20  and  C_21
REMARK    7  A    between atoms: N_20  and  C_23
REMARK    8  A    between atoms: C_21  and  C_22
REMARK    9  A    between atoms: C_27  and  C_28
REMARK                            x       y       z     vdW  Elec       q    Type
REMARK                         _______ _______ _______ _____ _____    ______ ____
ROOT
ATOM      1  N   UNL     1       1.056  12.705  19.547  0.00  0.00    +0.000 N 
ATOM      2  C   UNL     1       2.166  13.281  18.926  0.00  0.00    +0.000 A 
ATOM      3  O   UNL     1       2.607  13.167  17.795  0.00  0.00    +0.000 OA
ATOM      4  C   UNL     1       2.750  14.176  19.910  0.00  0.00    +0.000 A 
ATOM      5  C   UNL     1       3.860  14.993  19.827  0.00  0.00    +0.000 A 
ATOM      6  C   UNL     1       4.207  15.673  20.986  0.00  0.00    +0.000 A 
ATOM      7  C   UNL     1       3.426  15.482  22.131  0.00  0.00    +0.000 A 
ATOM      8  N   UNL     1       2.309  14.704  22.196  0.00  0.00    +0.000 NA
ATOM      9  C   UNL     1       1.974  14.073  21.056  0.00  0.00    +0.000 A 
ATOM     10  N   UNL     1       0.800  13.305  20.815  0.00  0.00    +0.000 N 
ENDROOT
BRANCH   1  14
ATOM     11  C   UNL     1      -1.817  10.450  17.458  0.00  0.00    +0.000 A 
ATOM     12  C   UNL     1      -1.989  11.824  17.657  0.00  0.00    +0.000 A 
ATOM     13  C   UNL     1      -1.042  12.542  18.380  0.00  0.00    +0.000 A 
ATOM     14  C   UNL     1       0.112  11.923  18.860  0.00  0.00    +0.000 A 
ATOM     15  C   UNL     1       0.303  10.557  18.643  0.00  0.00    +0.000 A 
ATOM     16  C   UNL     1      -0.669   9.822  17.961  0.00  0.00    +0.000 A 
BRANCH  11  18
ATOM     17  C   UNL     1      -2.929  10.151  15.227  0.00  0.00    +0.000 C 
ATOM     18  C   UNL     1      -2.842   9.676  16.670  0.00  0.00    +0.000 C 
ENDBRANCH  11  18
ENDBRANCH   1  14
BRANCH  10  19
ATOM     19  C   UNL     1       0.280  12.540  21.969  0.00  0.00    +0.000 C 
BRANCH  19  20
ATOM     20  C   UNL     1      -1.238  12.260  22.028  0.00  0.00    +0.000 C 
ATOM     21  O   UNL     1      -1.701  11.126  21.876  0.00  0.00    +0.000 OA
ATOM     22  N   UNL     1      -2.094  13.369  22.204  0.00  0.00    +0.000 N 
BRANCH  22  23
ATOM     23  C   UNL     1      -3.487  13.212  21.917  0.00  0.00    +0.000 A 
ATOM     24  C   UNL     1      -3.944  13.239  20.595  0.00  0.00    +0.000 A 
ATOM     25  C   UNL     1      -5.312  13.155  20.321  0.00  0.00    +0.000 A 
ATOM     26  C   UNL     1      -6.230  13.006  21.363  0.00  0.00    +0.000 A 
ATOM     27  C   UNL     1      -5.787  12.949  22.687  0.00  0.00    +0.000 A 
ATOM     28  C   UNL     1      -6.748  12.718  23.816  0.00  0.00    +0.000 C 
ATOM     29  C   UNL     1      -4.415  13.071  22.955  0.00  0.00    +0.000 A 
ENDBRANCH  22  23
BRANCH  22  30
ATOM     30  C   UNL     1      -1.691  14.697  22.703  0.00  0.00    +0.000 C 
ATOM     31  C   UNL     1      -1.405  14.699  24.199  0.00  0.00    +0.000 C 
ENDBRANCH  22  30
ENDBRANCH  19  20
ENDBRANCH  10  19
TORSDOF 6
ENDMDL
