MODEL 1
REMARK VINA RESULT:      -7.2      0.000      0.000
REMARK  Name = 
REMARK  6 active torsions:
REMARK  status: ('A' for Active; 'I' for Inactive)
REMARK    1  A    between atoms: C_1  and  C_2
REMARK    2  A    between atoms: C_2  and  N_3
REMARK    3  A    between atoms: N_3  and  C_4
REMARK    4  A    between atoms: C_4  and  C_5
REMARK    5  A    between atoms: C_6  and  C_8
REMARK    6  A    between atoms: N_12  and  C_13
REMARK                            x       y       z     vdW  Elec       q    Type
REMARK                         _______ _______ _______ _____ _____    ______ ____
ROOT
ATOM      1  C   UNL     1       0.294  10.308  20.166  0.00  0.00    +0.000 A 
ATOM      2  C   UNL     1      -0.466  10.183  21.315  0.00  0.00    +0.000 A 
ATOM      3  S   UNL     1       0.017   8.792  22.206  0.00  0.00    +0.000 S 
ATOM      4  C   UNL     1       1.125   8.375  20.956  0.00  0.00    +0.000 A 
ATOM      5  N   UNL     1       1.868   7.243  20.991  0.00  0.00    +0.000 N 
ATOM      6  N   UNL     1       1.181   9.258  19.989  0.00  0.00    +0.000 NA
ATOM      7  H   UNL     1       1.790   6.644  21.805  0.00  0.00    +0.000 HD
ENDROOT
BRANCH   5   8
ATOM      8  C   UNL     1       2.298   6.538  19.831  0.00  0.00    +0.000 A 
ATOM      9  C   UNL     1       3.112   7.171  18.872  0.00  0.00    +0.000 A 
ATOM     10  C   UNL     1       3.561   6.509  17.737  0.00  0.00    +0.000 A 
ATOM     11  C   UNL     1       3.198   5.187  17.525  0.00  0.00    +0.000 A 
ATOM     12  C   UNL     1       2.396   4.509  18.452  0.00  0.00    +0.000 A 
ATOM     13  C   UNL     1       2.056   3.169  18.217  0.00  0.00    +0.000 A 
ATOM     14  C   UNL     1       1.284   2.454  19.128  0.00  0.00    +0.000 A 
ATOM     15  C   UNL     1       0.844   3.073  20.291  0.00  0.00    +0.000 A 
ATOM     16  C   UNL     1       1.171   4.412  20.540  0.00  0.00    +0.000 A 
ATOM     17  C   UNL     1       1.939   5.169  19.626  0.00  0.00    +0.000 A 
ENDBRANCH   5   8
BRANCH   1  19
ATOM     18  N   UNL     1       0.927  12.589  19.388  0.00  0.00    +0.000 N 
ATOM     19  C   UNL     1       0.165  11.412  19.192  0.00  0.00    +0.000 C 
ATOM     20  O   UNL     1      -0.620  11.301  18.247  0.00  0.00    +0.000 OA
BRANCH  18  22
ATOM     21  C   UNL     1      -0.207  14.750  18.862  0.00  0.00    +0.000 C 
ATOM     22  C   UNL     1       0.766  13.669  18.413  0.00  0.00    +0.000 C 
ENDBRANCH  18  22
BRANCH  18  23
ATOM     23  C   UNL     1       1.808  12.756  20.556  0.00  0.00    +0.000 C 
ATOM     24  C   UNL     1       2.918  13.792  20.509  0.00  0.00    +0.000 C 
ENDBRANCH  18  23
ENDBRANCH   1  19
TORSDOF 4
ENDMDL
MODEL 2
REMARK VINA RESULT:      -6.8      3.189      5.045
REMARK  Name = 
REMARK  6 active torsions:
REMARK  status: ('A' for Active; 'I' for Inactive)
REMARK    1  A    between atoms: C_1  and  C_2
REMARK    2  A    between atoms: C_2  and  N_3
REMARK    3  A    between atoms: N_3  and  C_4
REMARK    4  A    between atoms: C_4  and  C_5
REMARK    5  A    between atoms: C_6  and  C_8
REMARK    6  A    between atoms: N_12  and  C_13
REMARK                            x       y       z     vdW  Elec       q    Type
REMARK                         _______ _______ _______ _____ _____    ______ ____
ROOT
ATOM      1  C   UNL     1       2.005   6.205  20.268  0.00  0.00    +0.000 A 
ATOM      2  C   UNL     1       1.175   5.099  20.247  0.00  0.00    +0.000 A 
ATOM      3  S   UNL     1       2.090   3.668  19.973  0.00  0.00    +0.000 S 
ATOM      4  C   UNL     1       3.516   4.615  19.782  0.00  0.00    +0.000 A 
ATOM      5  N   UNL     1       4.713   4.069  19.459  0.00  0.00    +0.000 N 
ATOM      6  N   UNL     1       3.326   5.895  19.990  0.00  0.00    +0.000 NA
ATOM      7  H   UNL     1       4.770   3.061  19.364  0.00  0.00    +0.000 HD
ENDROOT
BRANCH   5   8
ATOM      8  C   UNL     1       5.721   4.747  18.716  0.00  0.00    +0.000 A 
ATOM      9  C   UNL     1       6.687   5.532  19.376  0.00  0.00    +0.000 A 
ATOM     10  C   UNL     1       7.691   6.196  18.685  0.00  0.00    +0.000 A 
ATOM     11  C   UNL     1       7.753   6.098  17.303  0.00  0.00    +0.000 A 
ATOM     12  C   UNL     1       6.822   5.324  16.599  0.00  0.00    +0.000 A 
ATOM     13  C   UNL     1       6.917   5.233  15.202  0.00  0.00    +0.000 A 
ATOM     14  C   UNL     1       6.026   4.453  14.471  0.00  0.00    +0.000 A 
ATOM     15  C   UNL     1       5.028   3.748  15.132  0.00  0.00    +0.000 A 
ATOM     16  C   UNL     1       4.915   3.830  16.525  0.00  0.00    +0.000 A 
ATOM     17  C   UNL     1       5.794   4.628  17.293  0.00  0.00    +0.000 A 
ENDBRANCH   5   8
BRANCH   1  19
ATOM     18  N   UNL     1       1.437   8.479  19.419  0.00  0.00    +0.000 N 
ATOM     19  C   UNL     1       1.549   7.590  20.515  0.00  0.00    +0.000 C 
ATOM     20  O   UNL     1       1.302   7.951  21.668  0.00  0.00    +0.000 OA
BRANCH  18  22
ATOM     21  C   UNL     1      -0.319  10.208  19.024  0.00  0.00    +0.000 C 
ATOM     22  C   UNL     1       0.996   9.846  19.700  0.00  0.00    +0.000 C 
ENDBRANCH  18  22
BRANCH  18  23
ATOM     23  C   UNL     1       1.803   8.072  18.052  0.00  0.00    +0.000 C 
ATOM     24  C   UNL     1       3.236   8.254  17.581  0.00  0.00    +0.000 C 
ENDBRANCH  18  23
ENDBRANCH   1  19
TORSDOF 4
ENDMDL
MODEL 3
REMARK VINA RESULT:      -6.7      1.114      1.752
REMARK  Name = 
REMARK  6 active torsions:
REMARK  status: ('A' for Active; 'I' for Inactive)
REMARK    1  A    between atoms: C_1  and  C_2
REMARK    2  A    between atoms: C_2  and  N_3
REMARK    3  A    between atoms: N_3  and  C_4
REMARK    4  A    between atoms: C_4  and  C_5
REMARK    5  A    between atoms: C_6  and  C_8
REMARK    6  A    between atoms: N_12  and  C_13
REMARK                            x       y       z     vdW  Elec       q    Type
REMARK                         _______ _______ _______ _____ _____    ______ ____
ROOT
ATOM      1  C   UNL     1       0.607  10.461  20.816  0.00  0.00    +0.000 A 
ATOM      2  C   UNL     1      -0.377  10.272  21.770  0.00  0.00    +0.000 A 
ATOM      3  S   UNL     1      -0.307   8.670  22.394  0.00  0.00    +0.000 S 
ATOM      4  C   UNL     1       0.948   8.289  21.279  0.00  0.00    +0.000 A 
ATOM      5  N   UNL     1       1.481   7.047  21.180  0.00  0.00    +0.000 N 
ATOM      6  N   UNL     1       1.334   9.312  20.555  0.00  0.00    +0.000 NA
ATOM      7  H   UNL     1       1.149   6.332  21.817  0.00  0.00    +0.000 HD
ENDROOT
BRANCH   5   8
ATOM      8  C   UNL     1       2.017   6.505  19.978  0.00  0.00    +0.000 A 
ATOM      9  C   UNL     1       2.782   7.310  19.110  0.00  0.00    +0.000 A 
ATOM     10  C   UNL     1       3.330   6.810  17.938  0.00  0.00    +0.000 A 
ATOM     11  C   UNL     1       3.121   5.483  17.593  0.00  0.00    +0.000 A 
ATOM     12  C   UNL     1       2.374   4.638  18.424  0.00  0.00    +0.000 A 
ATOM     13  C   UNL     1       2.190   3.297  18.056  0.00  0.00    +0.000 A 
ATOM     14  C   UNL     1       1.477   2.421  18.869  0.00  0.00    +0.000 A 
ATOM     15  C   UNL     1       0.941   2.877  20.067  0.00  0.00    +0.000 A 
ATOM     16  C   UNL     1       1.112   4.214  20.448  0.00  0.00    +0.000 A 
ATOM     17  C   UNL     1       1.816   5.131  19.635  0.00  0.00    +0.000 A 
ENDBRANCH   5   8
BRANCH   1  19
ATOM     18  N   UNL     1       0.126  12.004  18.918  0.00  0.00    +0.000 N 
ATOM     19  C   UNL     1       0.850  11.734  20.105  0.00  0.00    +0.000 C 
ATOM     20  O   UNL     1       1.694  12.522  20.539  0.00  0.00    +0.000 OA
BRANCH  18  22
ATOM     21  C   UNL     1      -0.286  14.465  18.871  0.00  0.00    +0.000 C 
ATOM     22  C   UNL     1       0.399  13.266  18.231  0.00  0.00    +0.000 C 
ENDBRANCH  18  22
BRANCH  18  23
ATOM     23  C   UNL     1      -0.827  11.032  18.356  0.00  0.00    +0.000 C 
ATOM     24  C   UNL     1      -2.162  11.523  17.822  0.00  0.00    +0.000 C 
ENDBRANCH  18  23
ENDBRANCH   1  19
TORSDOF 4
ENDMDL
MODEL 4
REMARK VINA RESULT:      -6.6      1.864      2.686
REMARK  Name = 
REMARK  6 active torsions:
REMARK  status: ('A' for Active; 'I' for Inactive)
REMARK    1  A    between atoms: C_1  and  C_2
REMARK    2  A    between atoms: C_2  and  N_3
REMARK    3  A    between atoms: N_3  and  C_4
REMARK    4  A    between atoms: C_4  and  C_5
REMARK    5  A    between atoms: C_6  and  C_8
REMARK    6  A    between atoms: N_12  and  C_13
REMARK                            x       y       z     vdW  Elec       q    Type
REMARK                         _______ _______ _______ _____ _____    ______ ____
ROOT
ATOM      1  C   UNL     1      -0.046  10.214  19.746  0.00  0.00    +0.000 A 
ATOM      2  C   UNL     1      -0.590  10.194  21.018  0.00  0.00    +0.000 A 
ATOM      3  S   UNL     1       0.236   9.052  22.005  0.00  0.00    +0.000 S 
ATOM      4  C   UNL     1       1.188   8.571  20.654  0.00  0.00    +0.000 A 
ATOM      5  N   UNL     1       2.095   7.567  20.725  0.00  0.00    +0.000 N 
ATOM      6  N   UNL     1       0.955   9.273  19.572  0.00  0.00    +0.000 NA
ATOM      7  H   UNL     1       2.239   7.113  21.619  0.00  0.00    +0.000 HD
ENDROOT
BRANCH   5   8
ATOM      8  C   UNL     1       2.445   6.733  19.625  0.00  0.00    +0.000 A 
ATOM      9  C   UNL     1       3.244   7.231  18.577  0.00  0.00    +0.000 A 
ATOM     10  C   UNL     1       3.615   6.442  17.497  0.00  0.00    +0.000 A 
ATOM     11  C   UNL     1       3.188   5.124  17.431  0.00  0.00    +0.000 A 
ATOM     12  C   UNL     1       2.398   4.577  18.451  0.00  0.00    +0.000 A 
ATOM     13  C   UNL     1       1.991   3.237  18.364  0.00  0.00    +0.000 A 
ATOM     14  C   UNL     1       1.228   2.652  19.369  0.00  0.00    +0.000 A 
ATOM     15  C   UNL     1       0.866   3.402  20.481  0.00  0.00    +0.000 A 
ATOM     16  C   UNL     1       1.259   4.741  20.584  0.00  0.00    +0.000 A 
ATOM     17  C   UNL     1       2.019   5.369  19.570  0.00  0.00    +0.000 A 
ENDBRANCH   5   8
BRANCH   1  19
ATOM     18  N   UNL     1      -1.643  10.748  17.908  0.00  0.00    +0.000 N 
ATOM     19  C   UNL     1      -0.496  11.107  18.657  0.00  0.00    +0.000 C 
ATOM     20  O   UNL     1       0.147  12.128  18.403  0.00  0.00    +0.000 OA
BRANCH  18  22
ATOM     21  C   UNL     1      -2.649  10.920  15.631  0.00  0.00    +0.000 C 
ATOM     22  C   UNL     1      -2.054  11.646  16.829  0.00  0.00    +0.000 C 
ENDBRANCH  18  22
BRANCH  18  23
ATOM     23  C   UNL     1      -2.369   9.492  18.159  0.00  0.00    +0.000 C 
ATOM     24  C   UNL     1      -3.889   9.498  18.156  0.00  0.00    +0.000 C 
ENDBRANCH  18  23
ENDBRANCH   1  19
TORSDOF 4
ENDMDL
MODEL 5
REMARK VINA RESULT:      -6.5      3.207      7.284
REMARK  Name = 
REMARK  6 active torsions:
REMARK  status: ('A' for Active; 'I' for Inactive)
REMARK    1  A    between atoms: C_1  and  C_2
REMARK    2  A    between atoms: C_2  and  N_3
REMARK    3  A    between atoms: N_3  and  C_4
REMARK    4  A    between atoms: C_4  and  C_5
REMARK    5  A    between atoms: C_6  and  C_8
REMARK    6  A    between atoms: N_12  and  C_13
REMARK                            x       y       z     vdW  Elec       q    Type
REMARK                         _______ _______ _______ _____ _____    ______ ____
ROOT
ATOM      1  C   UNL     1       3.253   4.245  18.830  0.00  0.00    +0.000 A 
ATOM      2  C   UNL     1       3.505   3.556  20.003  0.00  0.00    +0.000 A 
ATOM      3  S   UNL     1       2.664   4.283  21.317  0.00  0.00    +0.000 S 
ATOM      4  C   UNL     1       2.111   5.535  20.272  0.00  0.00    +0.000 A 
ATOM      5  N   UNL     1       1.371   6.579  20.718  0.00  0.00    +0.000 N 
ATOM      6  N   UNL     1       2.466   5.369  19.022  0.00  0.00    +0.000 NA
ATOM      7  H   UNL     1       1.106   6.596  21.696  0.00  0.00    +0.000 HD
ENDROOT
BRANCH   5   8
ATOM      8  C   UNL     1       1.396   7.878  20.134  0.00  0.00    +0.000 A 
ATOM      9  C   UNL     1       1.989   8.082  18.873  0.00  0.00    +0.000 A 
ATOM     10  C   UNL     1       2.019   9.332  18.269  0.00  0.00    +0.000 A 
ATOM     11  C   UNL     1       1.460  10.422  18.920  0.00  0.00    +0.000 A 
ATOM     12  C   UNL     1       0.852  10.271  20.173  0.00  0.00    +0.000 A 
ATOM     13  C   UNL     1       0.284  11.389  20.801  0.00  0.00    +0.000 A 
ATOM     14  C   UNL     1      -0.351  11.274  22.034  0.00  0.00    +0.000 A 
ATOM     15  C   UNL     1      -0.430  10.033  22.653  0.00  0.00    +0.000 A 
ATOM     16  C   UNL     1       0.135   8.907  22.042  0.00  0.00    +0.000 A 
ATOM     17  C   UNL     1       0.802   8.996  20.799  0.00  0.00    +0.000 A 
ENDBRANCH   5   8
BRANCH   1  19
ATOM     18  N   UNL     1       5.118   4.232  17.176  0.00  0.00    +0.000 N 
ATOM     19  C   UNL     1       3.790   3.867  17.505  0.00  0.00    +0.000 C 
ATOM     20  O   UNL     1       3.067   3.269  16.705  0.00  0.00    +0.000 OA
BRANCH  18  22
ATOM     21  C   UNL     1       5.618   5.006  14.857  0.00  0.00    +0.000 C 
ATOM     22  C   UNL     1       5.614   3.854  15.852  0.00  0.00    +0.000 C 
ENDBRANCH  18  22
BRANCH  18  23
ATOM     23  C   UNL     1       5.958   5.012  18.100  0.00  0.00    +0.000 C 
ATOM     24  C   UNL     1       7.469   4.883  18.020  0.00  0.00    +0.000 C 
ENDBRANCH  18  23
ENDBRANCH   1  19
TORSDOF 4
ENDMDL
MODEL 6
REMARK VINA RESULT:      -6.4      3.080      4.573
REMARK  Name = 
REMARK  6 active torsions:
REMARK  status: ('A' for Active; 'I' for Inactive)
REMARK    1  A    between atoms: C_1  and  C_2
REMARK    2  A    between atoms: C_2  and  N_3
REMARK    3  A    between atoms: N_3  and  C_4
REMARK    4  A    between atoms: C_4  and  C_5
REMARK    5  A    between atoms: C_6  and  C_8
REMARK    6  A    between atoms: N_12  and  C_13
REMARK                            x       y       z     vdW  Elec       q    Type
REMARK                         _______ _______ _______ _____ _____    ______ ____
ROOT
ATOM      1  C   UNL     1      -1.313  11.851  18.506  0.00  0.00    +0.000 A 
ATOM      2  C   UNL     1      -0.645  13.062  18.485  0.00  0.00    +0.000 A 
ATOM      3  S   UNL     1       1.057  12.807  18.449  0.00  0.00    +0.000 S 
ATOM      4  C   UNL     1       0.806  11.109  18.581  0.00  0.00    +0.000 A 
ATOM      5  N   UNL     1       1.831  10.228  18.675  0.00  0.00    +0.000 N 
ATOM      6  N   UNL     1      -0.458  10.763  18.571  0.00  0.00    +0.000 NA
ATOM      7  H   UNL     1       2.778  10.587  18.628  0.00  0.00    +0.000 HD
ENDROOT
BRANCH   5   8
ATOM      8  C   UNL     1       1.751   8.986  19.367  0.00  0.00    +0.000 A 
ATOM      9  C   UNL     1       0.996   8.875  20.551  0.00  0.00    +0.000 A 
ATOM     10  C   UNL     1       0.885   7.677  21.242  0.00  0.00    +0.000 A 
ATOM     11  C   UNL     1       1.539   6.549  20.770  0.00  0.00    +0.000 A 
ATOM     12  C   UNL     1       2.298   6.603  19.594  0.00  0.00    +0.000 A 
ATOM     13  C   UNL     1       2.938   5.443  19.133  0.00  0.00    +0.000 A 
ATOM     14  C   UNL     1       3.678   5.452  17.955  0.00  0.00    +0.000 A 
ATOM     15  C   UNL     1       3.784   6.624  17.218  0.00  0.00    +0.000 A 
ATOM     16  C   UNL     1       3.155   7.793  17.665  0.00  0.00    +0.000 A 
ATOM     17  C   UNL     1       2.411   7.820  18.867  0.00  0.00    +0.000 A 
ENDBRANCH   5   8
BRANCH   1  19
ATOM     18  N   UNL     1      -3.427  11.273  17.319  0.00  0.00    +0.000 N 
ATOM     19  C   UNL     1      -2.784  11.707  18.504  0.00  0.00    +0.000 C 
ATOM     20  O   UNL     1      -3.425  11.991  19.519  0.00  0.00    +0.000 OA
BRANCH  18  22
ATOM     21  C   UNL     1      -5.605  12.431  16.939  0.00  0.00    +0.000 C 
ATOM     22  C   UNL     1      -4.885  11.153  17.346  0.00  0.00    +0.000 C 
ENDBRANCH  18  22
BRANCH  18  23
ATOM     23  C   UNL     1      -2.673  11.006  16.083  0.00  0.00    +0.000 C 
ATOM     24  C   UNL     1      -3.350  10.262  14.945  0.00  0.00    +0.000 C 
ENDBRANCH  18  23
ENDBRANCH   1  19
TORSDOF 4
ENDMDL
MODEL 7
REMARK VINA RESULT:      -6.4      4.139      6.313
REMARK  Name = 
REMARK  6 active torsions:
REMARK  status: ('A' for Active; 'I' for Inactive)
REMARK    1  A    between atoms: C_1  and  C_2
REMARK    2  A    between atoms: C_2  and  N_3
REMARK    3  A    between atoms: N_3  and  C_4
REMARK    4  A    between atoms: C_4  and  C_5
REMARK    5  A    between atoms: C_6  and  C_8
REMARK    6  A    between atoms: N_12  and  C_13
REMARK                            x       y       z     vdW  Elec       q    Type
REMARK                         _______ _______ _______ _____ _____    ______ ____
ROOT
ATOM      1  C   UNL     1      -3.658  13.076  20.910  0.00  0.00    +0.000 A 
ATOM      2  C   UNL     1      -3.355  14.424  20.957  0.00  0.00    +0.000 A 
ATOM      3  S   UNL     1      -1.689  14.676  20.611  0.00  0.00    +0.000 S 
ATOM      4  C   UNL     1      -1.446  12.973  20.534  0.00  0.00    +0.000 A 
ATOM      5  N   UNL     1      -0.225  12.421  20.333  0.00  0.00    +0.000 N 
ATOM      6  N   UNL     1      -2.549  12.280  20.678  0.00  0.00    +0.000 NA
ATOM      7  H   UNL     1       0.563  13.042  20.186  0.00  0.00    +0.000 HD
ENDROOT
BRANCH   5   8
ATOM      8  C   UNL     1       0.166  11.150  20.842  0.00  0.00    +0.000 A 
ATOM      9  C   UNL     1      -0.085  10.810  22.186  0.00  0.00    +0.000 A 
ATOM     10  C   UNL     1       0.270   9.575  22.710  0.00  0.00    +0.000 A 
ATOM     11  C   UNL     1       0.900   8.641  21.901  0.00  0.00    +0.000 A 
ATOM     12  C   UNL     1       1.166   8.926  20.555  0.00  0.00    +0.000 A 
ATOM     13  C   UNL     1       1.792   7.957  19.757  0.00  0.00    +0.000 A 
ATOM     14  C   UNL     1       2.049   8.194  18.410  0.00  0.00    +0.000 A 
ATOM     15  C   UNL     1       1.678   9.406  17.842  0.00  0.00    +0.000 A 
ATOM     16  C   UNL     1       1.055  10.386  18.624  0.00  0.00    +0.000 A 
ATOM     17  C   UNL     1       0.797  10.182  19.999  0.00  0.00    +0.000 A 
ENDBRANCH   5   8
BRANCH   1  19
ATOM     18  N   UNL     1      -5.733  12.028  20.008  0.00  0.00    +0.000 N 
ATOM     19  C   UNL     1      -5.009  12.513  21.124  0.00  0.00    +0.000 C 
ATOM     20  O   UNL     1      -5.490  12.501  22.260  0.00  0.00    +0.000 OA
BRANCH  18  22
ATOM     21  C   UNL     1      -7.224  10.034  19.835  0.00  0.00    +0.000 C 
ATOM     22  C   UNL     1      -7.072  11.490  20.251  0.00  0.00    +0.000 C 
ENDBRANCH  18  22
BRANCH  18  23
ATOM     23  C   UNL     1      -5.193  12.110  18.640  0.00  0.00    +0.000 C 
ATOM     24  C   UNL     1      -6.034  12.744  17.545  0.00  0.00    +0.000 C 
ENDBRANCH  18  23
ENDBRANCH   1  19
TORSDOF 4
ENDMDL
MODEL 8
REMARK VINA RESULT:      -6.3      1.562      1.920
REMARK  Name = 
REMARK  6 active torsions:
REMARK  status: ('A' for Active; 'I' for Inactive)
REMARK    1  A    between atoms: C_1  and  C_2
REMARK    2  A    between atoms: C_2  and  N_3
REMARK    3  A    between atoms: N_3  and  C_4
REMARK    4  A    between atoms: C_4  and  C_5
REMARK    5  A    between atoms: C_6  and  C_8
REMARK    6  A    between atoms: N_12  and  C_13
REMARK                            x       y       z     vdW  Elec       q    Type
REMARK                         _______ _______ _______ _____ _____    ______ ____
ROOT
ATOM      1  C   UNL     1       0.077   9.469  19.571  0.00  0.00    +0.000 A 
ATOM      2  C   UNL     1      -0.155   9.585  20.930  0.00  0.00    +0.000 A 
ATOM      3  S   UNL     1       1.016   8.687  21.816  0.00  0.00    +0.000 S 
ATOM      4  C   UNL     1       1.689   8.106  20.341  0.00  0.00    +0.000 A 
ATOM      5  N   UNL     1       2.710   7.217  20.309  0.00  0.00    +0.000 N 
ATOM      6  N   UNL     1       1.125   8.614  19.272  0.00  0.00    +0.000 NA
ATOM      7  H   UNL     1       3.112   6.916  21.190  0.00  0.00    +0.000 HD
ENDROOT
BRANCH   5   8
ATOM      8  C   UNL     1       2.905   6.267  19.266  0.00  0.00    +0.000 A 
ATOM      9  C   UNL     1       3.794   6.541  18.208  0.00  0.00    +0.000 A 
ATOM     10  C   UNL     1       4.018   5.632  17.183  0.00  0.00    +0.000 A 
ATOM     11  C   UNL     1       3.347   4.418  17.183  0.00  0.00    +0.000 A 
ATOM     12  C   UNL     1       2.458   4.093  18.216  0.00  0.00    +0.000 A 
ATOM     13  C   UNL     1       1.804   2.853  18.196  0.00  0.00    +0.000 A 
ATOM     14  C   UNL     1       0.934   2.484  19.218  0.00  0.00    +0.000 A 
ATOM     15  C   UNL     1       0.710   3.354  20.278  0.00  0.00    +0.000 A 
ATOM     16  C   UNL     1       1.351   4.598  20.312  0.00  0.00    +0.000 A 
ATOM     17  C   UNL     1       2.227   5.008  19.280  0.00  0.00    +0.000 A 
ENDBRANCH   5   8
BRANCH   1  19
ATOM     18  N   UNL     1      -1.405  11.340  18.851  0.00  0.00    +0.000 N 
ATOM     19  C   UNL     1      -0.721  10.143  18.525  0.00  0.00    +0.000 C 
ATOM     20  O   UNL     1      -0.800   9.640  17.402  0.00  0.00    +0.000 OA
BRANCH  18  22
ATOM     21  C   UNL     1      -3.650  11.525  17.779  0.00  0.00    +0.000 C 
ATOM     22  C   UNL     1      -2.197  11.975  17.797  0.00  0.00    +0.000 C 
ENDBRANCH  18  22
BRANCH  18  23
ATOM     23  C   UNL     1      -1.375  11.902  20.212  0.00  0.00    +0.000 C 
ATOM     24  C   UNL     1      -0.785  13.285  20.433  0.00  0.00    +0.000 C 
ENDBRANCH  18  23
ENDBRANCH   1  19
TORSDOF 4
ENDMDL
MODEL 9
REMARK VINA RESULT:      -6.3      1.805      2.958
REMARK  Name = 
REMARK  6 active torsions:
REMARK  status: ('A' for Active; 'I' for Inactive)
REMARK    1  A    between atoms: C_1  and  C_2
REMARK    2  A    between atoms: C_2  and  N_3
REMARK    3  A    between atoms: N_3  and  C_4
REMARK    4  A    between atoms: C_4  and  C_5
REMARK    5  A    between atoms: C_6  and  C_8
REMARK    6  A    between atoms: N_12  and  C_13
REMARK                            x       y       z     vdW  Elec       q    Type
REMARK                         _______ _______ _______ _____ _____    ______ ____
ROOT
ATOM      1  C   UNL     1       0.357   9.562  19.798  0.00  0.00    +0.000 A 
ATOM      2  C   UNL     1       0.328  10.043  21.095  0.00  0.00    +0.000 A 
ATOM      3  S   UNL     1       1.285   9.050  22.124  0.00  0.00    +0.000 S 
ATOM      4  C   UNL     1       1.587   7.977  20.812  0.00  0.00    +0.000 A 
ATOM      5  N   UNL     1       2.298   6.834  20.957  0.00  0.00    +0.000 N 
ATOM      6  N   UNL     1       1.073   8.382  19.675  0.00  0.00    +0.000 NA
ATOM      7  H   UNL     1       2.696   6.629  21.866  0.00  0.00    +0.000 HD
ENDROOT
BRANCH   5   8
ATOM      8  C   UNL     1       2.089   5.663  20.173  0.00  0.00    +0.000 A 
ATOM      9  C   UNL     1       1.074   4.748  20.513  0.00  0.00    +0.000 A 
ATOM     10  C   UNL     1       0.834   3.605  19.764  0.00  0.00    +0.000 A 
ATOM     11  C   UNL     1       1.615   3.338  18.650  0.00  0.00    +0.000 A 
ATOM     12  C   UNL     1       2.634   4.219  18.264  0.00  0.00    +0.000 A 
ATOM     13  C   UNL     1       3.399   3.929  17.125  0.00  0.00    +0.000 A 
ATOM     14  C   UNL     1       4.402   4.793  16.696  0.00  0.00    +0.000 A 
ATOM     15  C   UNL     1       4.649   5.965  17.401  0.00  0.00    +0.000 A 
ATOM     16  C   UNL     1       3.897   6.268  18.543  0.00  0.00    +0.000 A 
ATOM     17  C   UNL     1       2.884   5.401  19.014  0.00  0.00    +0.000 A 
ENDBRANCH   5   8
BRANCH   1  19
ATOM     18  N   UNL     1      -1.212  11.277  18.900  0.00  0.00    +0.000 N 
ATOM     19  C   UNL     1      -0.329  10.198  18.653  0.00  0.00    +0.000 C 
ATOM     20  O   UNL     1      -0.144   9.762  17.515  0.00  0.00    +0.000 OA
BRANCH  18  22
ATOM     21  C   UNL     1      -3.262  11.284  17.476  0.00  0.00    +0.000 C 
ATOM     22  C   UNL     1      -1.886  11.876  17.747  0.00  0.00    +0.000 C 
ENDBRANCH  18  22
BRANCH  18  23
ATOM     23  C   UNL     1      -1.495  11.751  20.265  0.00  0.00    +0.000 C 
ATOM     24  C   UNL     1      -2.128  13.117  20.462  0.00  0.00    +0.000 C 
ENDBRANCH  18  23
ENDBRANCH   1  19
TORSDOF 4
ENDMDL
