MODEL 1
REMARK VINA RESULT:      -7.4      0.000      0.000
REMARK  Name = 
REMARK  9 active torsions:
REMARK  status: ('A' for Active; 'I' for Inactive)
REMARK    1  A    between atoms: C_1  and  C_2
REMARK    2  A    between atoms: C_2  and  C_3
REMARK    3  A    between atoms: C_5  and  C_6
REMARK    4  A    between atoms: C_6  and  C_7
REMARK    5  A    between atoms: N_8  and  C_9
REMARK    6  A    between atoms: C_9  and  C_10
REMARK    7  A    between atoms: N_12  and  C_13
REMARK    8  A    between atoms: C_16  and  C_17
REMARK    9  A    between atoms: C_17  and  C_18
REMARK                            x       y       z     vdW  Elec       q    Type
REMARK                         _______ _______ _______ _____ _____    ______ ____
ROOT
ATOM      1  C   UNL     1       3.684   4.740  17.821  0.00  0.00    +0.000 C 
ATOM      2  O   UNL     1       2.553   4.511  17.385  0.00  0.00    +0.000 OA
ATOM      3  N   UNL     1       4.052   5.921  18.439  0.00  0.00    +0.000 N 
ATOM      4  H   UNL     1       5.038   6.161  18.454  0.00  0.00    +0.000 HD
ENDROOT
BRANCH   3   5
ATOM      5  C   UNL     1       3.142   6.968  18.673  0.00  0.00    +0.000 A 
ATOM      6  C   UNL     1       2.393   7.049  19.849  0.00  0.00    +0.000 A 
ATOM      7  C   UNL     1       1.493   8.102  20.051  0.00  0.00    +0.000 A 
ATOM      8  C   UNL     1       1.312   9.072  19.060  0.00  0.00    +0.000 A 
ATOM      9  C   UNL     1       2.064   8.976  17.878  0.00  0.00    +0.000 A 
ATOM     10  C   UNL     1       2.996   7.950  17.697  0.00  0.00    +0.000 A 
BRANCH   8  11
ATOM     11  C   UNL     1       0.360  10.218  19.183  0.00  0.00    +0.000 C 
ATOM     12  C   UNL     1      -0.853  10.331  18.297  0.00  0.00    +0.000 C 
ATOM     13  O   UNL     1       0.571  11.078  20.041  0.00  0.00    +0.000 OA
ENDBRANCH   8  11
ENDBRANCH   3   5
BRANCH   1  14
ATOM     14  C   UNL     1       4.797   3.741  17.639  0.00  0.00    +0.000 C 
BRANCH  14  18
ATOM     15  C   UNL     1       6.572   4.404  14.747  0.00  0.00    +0.000 A 
ATOM     16  N   UNL     1       7.561   4.818  15.599  0.00  0.00    +0.000 NA
ATOM     17  C   UNL     1       7.030   4.656  16.800  0.00  0.00    +0.000 A 
ATOM     18  N   UNL     1       5.754   4.174  16.646  0.00  0.00    +0.000 N 
ATOM     19  N   UNL     1       5.447   4.011  15.346  0.00  0.00    +0.000 NA
BRANCH  15  21
ATOM     20  C   UNL     1       5.834   3.361  12.605  0.00  0.00    +0.000 C 
ATOM     21  C   UNL     1       6.734   4.390  13.272  0.00  0.00    +0.000 C 
ENDBRANCH  15  21
BRANCH  17  22
ATOM     22  C   UNL     1       7.665   4.986  18.112  0.00  0.00    +0.000 C 
ATOM     23  C   UNL     1       7.699   6.474  18.414  0.00  0.00    +0.000 C 
ENDBRANCH  17  22
ENDBRANCH  14  18
ENDBRANCH   1  14
TORSDOF 6
ENDMDL
MODEL 2
REMARK VINA RESULT:      -7.2      0.620      1.263
REMARK  Name = 
REMARK  9 active torsions:
REMARK  status: ('A' for Active; 'I' for Inactive)
REMARK    1  A    between atoms: C_1  and  C_2
REMARK    2  A    between atoms: C_2  and  C_3
REMARK    3  A    between atoms: C_5  and  C_6
REMARK    4  A    between atoms: C_6  and  C_7
REMARK    5  A    between atoms: N_8  and  C_9
REMARK    6  A    between atoms: C_9  and  C_10
REMARK    7  A    between atoms: N_12  and  C_13
REMARK    8  A    between atoms: C_16  and  C_17
REMARK    9  A    between atoms: C_17  and  C_18
REMARK                            x       y       z     vdW  Elec       q    Type
REMARK                         _______ _______ _______ _____ _____    ______ ____
ROOT
ATOM      1  C   UNL     1       3.553   4.928  18.021  0.00  0.00    +0.000 C 
ATOM      2  O   UNL     1       2.453   4.701  17.511  0.00  0.00    +0.000 OA
ATOM      3  N   UNL     1       3.890   6.116  18.642  0.00  0.00    +0.000 N 
ATOM      4  H   UNL     1       4.874   6.347  18.722  0.00  0.00    +0.000 HD
ENDROOT
BRANCH   3   5
ATOM      5  C   UNL     1       2.977   7.176  18.794  0.00  0.00    +0.000 A 
ATOM      6  C   UNL     1       2.807   8.153  17.810  0.00  0.00    +0.000 A 
ATOM      7  C   UNL     1       1.893   9.197  17.991  0.00  0.00    +0.000 A 
ATOM      8  C   UNL     1       1.159   9.291  19.179  0.00  0.00    +0.000 A 
ATOM      9  C   UNL     1       1.345   8.309  20.165  0.00  0.00    +0.000 A 
ATOM     10  C   UNL     1       2.224   7.241  19.962  0.00  0.00    +0.000 A 
BRANCH   8  11
ATOM     11  C   UNL     1       0.177  10.381  19.465  0.00  0.00    +0.000 C 
ATOM     12  C   UNL     1      -0.359  10.611  20.854  0.00  0.00    +0.000 C 
ATOM     13  O   UNL     1      -0.186  11.114  18.542  0.00  0.00    +0.000 OA
ENDBRANCH   8  11
ENDBRANCH   3   5
BRANCH   1  14
ATOM     14  C   UNL     1       4.666   3.916  17.934  0.00  0.00    +0.000 C 
BRANCH  14  18
ATOM     15  C   UNL     1       6.493   4.316  15.027  0.00  0.00    +0.000 A 
ATOM     16  N   UNL     1       7.454   4.838  15.852  0.00  0.00    +0.000 NA
ATOM     17  C   UNL     1       6.899   4.789  17.051  0.00  0.00    +0.000 A 
ATOM     18  N   UNL     1       5.636   4.265  16.922  0.00  0.00    +0.000 N 
ATOM     19  N   UNL     1       5.363   3.961  15.640  0.00  0.00    +0.000 NA
BRANCH  15  21
ATOM     20  C   UNL     1       5.453   3.594  12.878  0.00  0.00    +0.000 C 
ATOM     21  C   UNL     1       6.689   4.152  13.565  0.00  0.00    +0.000 C 
ENDBRANCH  15  21
BRANCH  17  22
ATOM     22  C   UNL     1       7.496   5.268  18.335  0.00  0.00    +0.000 C 
ATOM     23  C   UNL     1       7.809   6.755  18.343  0.00  0.00    +0.000 C 
ENDBRANCH  17  22
ENDBRANCH  14  18
ENDBRANCH   1  14
TORSDOF 6
ENDMDL
MODEL 3
REMARK VINA RESULT:      -7.1      1.015      1.032
REMARK  Name = 
REMARK  9 active torsions:
REMARK  status: ('A' for Active; 'I' for Inactive)
REMARK    1  A    between atoms: C_1  and  C_2
REMARK    2  A    between atoms: C_2  and  C_3
REMARK    3  A    between atoms: C_5  and  C_6
REMARK    4  A    between atoms: C_6  and  C_7
REMARK    5  A    between atoms: N_8  and  C_9
REMARK    6  A    between atoms: C_9  and  C_10
REMARK    7  A    between atoms: N_12  and  C_13
REMARK    8  A    between atoms: C_16  and  C_17
REMARK    9  A    between atoms: C_17  and  C_18
REMARK                            x       y       z     vdW  Elec       q    Type
REMARK                         _______ _______ _______ _____ _____    ______ ____
ROOT
ATOM      1  C   UNL     1       4.414   5.187  18.490  0.00  0.00    +0.000 C 
ATOM      2  O   UNL     1       4.818   5.409  19.635  0.00  0.00    +0.000 OA
ATOM      3  N   UNL     1       3.374   5.871  17.890  0.00  0.00    +0.000 N 
ATOM      4  H   UNL     1       2.892   5.421  17.119  0.00  0.00    +0.000 HD
ENDROOT
BRANCH   3   5
ATOM      5  C   UNL     1       2.699   6.932  18.523  0.00  0.00    +0.000 A 
ATOM      6  C   UNL     1       2.266   6.847  19.849  0.00  0.00    +0.000 A 
ATOM      7  C   UNL     1       1.595   7.919  20.450  0.00  0.00    +0.000 A 
ATOM      8  C   UNL     1       1.323   9.079  19.717  0.00  0.00    +0.000 A 
ATOM      9  C   UNL     1       1.756   9.150  18.382  0.00  0.00    +0.000 A 
ATOM     10  C   UNL     1       2.467   8.097  17.798  0.00  0.00    +0.000 A 
BRANCH   8  11
ATOM     11  C   UNL     1       0.597  10.262  20.272  0.00  0.00    +0.000 C 
ATOM     12  C   UNL     1      -0.666  10.778  19.634  0.00  0.00    +0.000 C 
ATOM     13  O   UNL     1       1.039  10.811  21.283  0.00  0.00    +0.000 OA
ENDBRANCH   8  11
ENDBRANCH   3   5
BRANCH   1  14
ATOM     14  C   UNL     1       5.001   4.070  17.668  0.00  0.00    +0.000 C 
BRANCH  14  18
ATOM     15  C   UNL     1       6.572   4.727  14.659  0.00  0.00    +0.000 A 
ATOM     16  N   UNL     1       7.454   5.446  15.421  0.00  0.00    +0.000 NA
ATOM     17  C   UNL     1       6.979   5.327  16.650  0.00  0.00    +0.000 A 
ATOM     18  N   UNL     1       5.835   4.568  16.598  0.00  0.00    +0.000 N 
ATOM     19  N   UNL     1       5.562   4.182  15.339  0.00  0.00    +0.000 NA
BRANCH  15  21
ATOM     20  C   UNL     1       5.920   3.386  12.660  0.00  0.00    +0.000 C 
ATOM     21  C   UNL     1       6.723   4.562  13.192  0.00  0.00    +0.000 C 
ENDBRANCH  15  21
BRANCH  17  22
ATOM     22  C   UNL     1       7.536   5.947  17.890  0.00  0.00    +0.000 C 
ATOM     23  C   UNL     1       7.715   7.452  17.790  0.00  0.00    +0.000 C 
ENDBRANCH  17  22
ENDBRANCH  14  18
ENDBRANCH   1  14
TORSDOF 6
ENDMDL
MODEL 4
REMARK VINA RESULT:      -7.0      1.150      2.998
REMARK  Name = 
REMARK  9 active torsions:
REMARK  status: ('A' for Active; 'I' for Inactive)
REMARK    1  A    between atoms: C_1  and  C_2
REMARK    2  A    between atoms: C_2  and  C_3
REMARK    3  A    between atoms: C_5  and  C_6
REMARK    4  A    between atoms: C_6  and  C_7
REMARK    5  A    between atoms: N_8  and  C_9
REMARK    6  A    between atoms: C_9  and  C_10
REMARK    7  A    between atoms: N_12  and  C_13
REMARK    8  A    between atoms: C_16  and  C_17
REMARK    9  A    between atoms: C_17  and  C_18
REMARK                            x       y       z     vdW  Elec       q    Type
REMARK                         _______ _______ _______ _____ _____    ______ ____
ROOT
ATOM      1  C   UNL     1       2.695   4.852  17.828  0.00  0.00    +0.000 C 
ATOM      2  O   UNL     1       1.508   4.587  18.037  0.00  0.00    +0.000 OA
ATOM      3  N   UNL     1       3.255   6.101  18.022  0.00  0.00    +0.000 N 
ATOM      4  H   UNL     1       4.110   6.320  17.521  0.00  0.00    +0.000 HD
ENDROOT
BRANCH   3   5
ATOM      5  C   UNL     1       2.521   7.190  18.528  0.00  0.00    +0.000 A 
ATOM      6  C   UNL     1       2.126   8.257  17.716  0.00  0.00    +0.000 A 
ATOM      7  C   UNL     1       1.400   9.328  18.250  0.00  0.00    +0.000 A 
ATOM      8  C   UNL     1       1.087   9.356  19.613  0.00  0.00    +0.000 A 
ATOM      9  C   UNL     1       1.497   8.283  20.421  0.00  0.00    +0.000 A 
ATOM     10  C   UNL     1       2.182   7.192  19.877  0.00  0.00    +0.000 A 
BRANCH   8  11
ATOM     11  C   UNL     1       0.332  10.467  20.269  0.00  0.00    +0.000 C 
ATOM     12  C   UNL     1       0.185  11.814  19.609  0.00  0.00    +0.000 C 
ATOM     13  O   UNL     1      -0.192  10.265  21.366  0.00  0.00    +0.000 OA
ENDBRANCH   8  11
ENDBRANCH   3   5
BRANCH   1  14
ATOM     14  C   UNL     1       3.628   3.815  17.262  0.00  0.00    +0.000 C 
BRANCH  14  18
ATOM     15  C   UNL     1       6.782   5.092  17.873  0.00  0.00    +0.000 A 
ATOM     16  N   UNL     1       6.894   5.129  16.508  0.00  0.00    +0.000 NA
ATOM     17  C   UNL     1       5.744   4.632  16.085  0.00  0.00    +0.000 A 
ATOM     18  N   UNL     1       4.988   4.298  17.182  0.00  0.00    +0.000 N 
ATOM     19  N   UNL     1       5.636   4.582  18.326  0.00  0.00    +0.000 NA
BRANCH  15  21
ATOM     20  C   UNL     1       8.121   7.066  18.602  0.00  0.00    +0.000 C 
ATOM     21  C   UNL     1       7.849   5.581  18.782  0.00  0.00    +0.000 C 
ENDBRANCH  15  21
BRANCH  17  22
ATOM     22  C   UNL     1       5.333   4.407  14.666  0.00  0.00    +0.000 C 
ATOM     23  C   UNL     1       6.489   4.049  13.747  0.00  0.00    +0.000 C 
ENDBRANCH  17  22
ENDBRANCH  14  18
ENDBRANCH   1  14
TORSDOF 6
ENDMDL
MODEL 5
REMARK VINA RESULT:      -6.9      1.222      2.838
REMARK  Name = 
REMARK  9 active torsions:
REMARK  status: ('A' for Active; 'I' for Inactive)
REMARK    1  A    between atoms: C_1  and  C_2
REMARK    2  A    between atoms: C_2  and  C_3
REMARK    3  A    between atoms: C_5  and  C_6
REMARK    4  A    between atoms: C_6  and  C_7
REMARK    5  A    between atoms: N_8  and  C_9
REMARK    6  A    between atoms: C_9  and  C_10
REMARK    7  A    between atoms: N_12  and  C_13
REMARK    8  A    between atoms: C_16  and  C_17
REMARK    9  A    between atoms: C_17  and  C_18
REMARK                            x       y       z     vdW  Elec       q    Type
REMARK                         _______ _______ _______ _____ _____    ______ ____
ROOT
ATOM      1  C   UNL     1       3.454   5.080  18.904  0.00  0.00    +0.000 C 
ATOM      2  O   UNL     1       2.697   4.730  19.812  0.00  0.00    +0.000 OA
ATOM      3  N   UNL     1       3.441   6.335  18.324  0.00  0.00    +0.000 N 
ATOM      4  H   UNL     1       3.833   6.432  17.394  0.00  0.00    +0.000 HD
ENDROOT
BRANCH   3   5
ATOM      5  C   UNL     1       2.577   7.359  18.756  0.00  0.00    +0.000 A 
ATOM      6  C   UNL     1       2.113   7.430  20.071  0.00  0.00    +0.000 A 
ATOM      7  C   UNL     1       1.252   8.459  20.470  0.00  0.00    +0.000 A 
ATOM      8  C   UNL     1       0.822   9.414  19.543  0.00  0.00    +0.000 A 
ATOM      9  C   UNL     1       1.288   9.329  18.221  0.00  0.00    +0.000 A 
ATOM     10  C   UNL     1       2.184   8.327  17.836  0.00  0.00    +0.000 A 
BRANCH   8  11
ATOM     11  C   UNL     1      -0.110  10.535  19.876  0.00  0.00    +0.000 C 
ATOM     12  C   UNL     1      -1.098  11.061  18.867  0.00  0.00    +0.000 C 
ATOM     13  O   UNL     1      -0.074  11.024  21.007  0.00  0.00    +0.000 OA
ENDBRANCH   8  11
ENDBRANCH   3   5
BRANCH   1  14
ATOM     14  C   UNL     1       4.432   4.108  18.297  0.00  0.00    +0.000 C 
BRANCH  14  18
ATOM     15  C   UNL     1       7.235   6.108  17.986  0.00  0.00    +0.000 A 
ATOM     16  N   UNL     1       7.337   5.553  16.738  0.00  0.00    +0.000 NA
ATOM     17  C   UNL     1       6.322   4.707  16.685  0.00  0.00    +0.000 A 
ATOM     18  N   UNL     1       5.655   4.758  17.885  0.00  0.00    +0.000 N 
ATOM     19  N   UNL     1       6.225   5.642  18.723  0.00  0.00    +0.000 NA
BRANCH  15  21
ATOM     20  C   UNL     1       7.967   8.484  17.789  0.00  0.00    +0.000 C 
ATOM     21  C   UNL     1       8.170   7.147  18.485  0.00  0.00    +0.000 C 
ENDBRANCH  15  21
BRANCH  17  22
ATOM     22  C   UNL     1       5.971   3.798  15.553  0.00  0.00    +0.000 C 
ATOM     23  C   UNL     1       6.453   4.296  14.201  0.00  0.00    +0.000 C 
ENDBRANCH  17  22
ENDBRANCH  14  18
ENDBRANCH   1  14
TORSDOF 6
ENDMDL
MODEL 6
REMARK VINA RESULT:      -6.9      2.260      3.289
REMARK  Name = 
REMARK  9 active torsions:
REMARK  status: ('A' for Active; 'I' for Inactive)
REMARK    1  A    between atoms: C_1  and  C_2
REMARK    2  A    between atoms: C_2  and  C_3
REMARK    3  A    between atoms: C_5  and  C_6
REMARK    4  A    between atoms: C_6  and  C_7
REMARK    5  A    between atoms: N_8  and  C_9
REMARK    6  A    between atoms: C_9  and  C_10
REMARK    7  A    between atoms: N_12  and  C_13
REMARK    8  A    between atoms: C_16  and  C_17
REMARK    9  A    between atoms: C_17  and  C_18
REMARK                            x       y       z     vdW  Elec       q    Type
REMARK                         _______ _______ _______ _____ _____    ______ ____
ROOT
ATOM      1  C   UNL     1       2.443   5.406  20.141  0.00  0.00    +0.000 C 
ATOM      2  O   UNL     1       1.249   5.189  20.365  0.00  0.00    +0.000 OA
ATOM      3  N   UNL     1       2.940   6.618  19.699  0.00  0.00    +0.000 N 
ATOM      4  H   UNL     1       3.836   6.619  19.224  0.00  0.00    +0.000 HD
ENDROOT
BRANCH   3   5
ATOM      5  C   UNL     1       2.122   7.748  19.508  0.00  0.00    +0.000 A 
ATOM      6  C   UNL     1       1.431   8.349  20.563  0.00  0.00    +0.000 A 
ATOM      7  C   UNL     1       0.622   9.469  20.339  0.00  0.00    +0.000 A 
ATOM      8  C   UNL     1       0.472   9.982  19.047  0.00  0.00    +0.000 A 
ATOM      9  C   UNL     1       1.164   9.364  17.992  0.00  0.00    +0.000 A 
ATOM     10  C   UNL     1       2.008   8.274  18.225  0.00  0.00    +0.000 A 
BRANCH   8  11
ATOM     11  C   UNL     1      -0.384  11.161  18.715  0.00  0.00    +0.000 C 
ATOM     12  C   UNL     1      -1.766  10.991  18.138  0.00  0.00    +0.000 C 
ATOM     13  O   UNL     1       0.049  12.294  18.935  0.00  0.00    +0.000 OA
ENDBRANCH   8  11
ENDBRANCH   3   5
BRANCH   1  14
ATOM     14  C   UNL     1       3.464   4.307  20.269  0.00  0.00    +0.000 C 
BRANCH  14  18
ATOM     15  C   UNL     1       6.322   5.218  18.550  0.00  0.00    +0.000 A 
ATOM     16  N   UNL     1       5.776   4.504  17.516  0.00  0.00    +0.000 NA
ATOM     17  C   UNL     1       4.644   4.039  18.019  0.00  0.00    +0.000 A 
ATOM     18  N   UNL     1       4.545   4.460  19.322  0.00  0.00    +0.000 N 
ATOM     19  N   UNL     1       5.606   5.209  19.675  0.00  0.00    +0.000 NA
BRANCH  15  21
ATOM     20  C   UNL     1       7.510   7.141  17.497  0.00  0.00    +0.000 C 
ATOM     21  C   UNL     1       7.610   5.948  18.434  0.00  0.00    +0.000 C 
ENDBRANCH  15  21
BRANCH  17  22
ATOM     22  C   UNL     1       3.654   3.157  17.329  0.00  0.00    +0.000 C 
ATOM     23  C   UNL     1       3.488   1.798  17.987  0.00  0.00    +0.000 C 
ENDBRANCH  17  22
ENDBRANCH  14  18
ENDBRANCH   1  14
TORSDOF 6
ENDMDL
MODEL 7
REMARK VINA RESULT:      -6.9      1.346      3.137
REMARK  Name = 
REMARK  9 active torsions:
REMARK  status: ('A' for Active; 'I' for Inactive)
REMARK    1  A    between atoms: C_1  and  C_2
REMARK    2  A    between atoms: C_2  and  C_3
REMARK    3  A    between atoms: C_5  and  C_6
REMARK    4  A    between atoms: C_6  and  C_7
REMARK    5  A    between atoms: N_8  and  C_9
REMARK    6  A    between atoms: C_9  and  C_10
REMARK    7  A    between atoms: N_12  and  C_13
REMARK    8  A    between atoms: C_16  and  C_17
REMARK    9  A    between atoms: C_17  and  C_18
REMARK                            x       y       z     vdW  Elec       q    Type
REMARK                         _______ _______ _______ _____ _____    ______ ____
ROOT
ATOM      1  C   UNL     1       3.022   5.249  18.649  0.00  0.00    +0.000 C 
ATOM      2  O   UNL     1       1.997   5.071  17.986  0.00  0.00    +0.000 OA
ATOM      3  N   UNL     1       3.286   6.396  19.376  0.00  0.00    +0.000 N 
ATOM      4  H   UNL     1       4.253   6.604  19.598  0.00  0.00    +0.000 HD
ENDROOT
BRANCH   3   5
ATOM      5  C   UNL     1       2.372   7.463  19.464  0.00  0.00    +0.000 A 
ATOM      6  C   UNL     1       2.139   8.328  18.392  0.00  0.00    +0.000 A 
ATOM      7  C   UNL     1       1.226   9.383  18.512  0.00  0.00    +0.000 A 
ATOM      8  C   UNL     1       0.559   9.601  19.722  0.00  0.00    +0.000 A 
ATOM      9  C   UNL     1       0.807   8.730  20.795  0.00  0.00    +0.000 A 
ATOM     10  C   UNL     1       1.684   7.649  20.659  0.00  0.00    +0.000 A 
BRANCH   8  11
ATOM     11  C   UNL     1      -0.417  10.711  19.944  0.00  0.00    +0.000 C 
ATOM     12  C   UNL     1      -0.728  11.218  21.329  0.00  0.00    +0.000 C 
ATOM     13  O   UNL     1      -0.963  11.230  18.968  0.00  0.00    +0.000 OA
ENDBRANCH   8  11
ENDBRANCH   3   5
BRANCH   1  14
ATOM     14  C   UNL     1       4.125   4.223  18.654  0.00  0.00    +0.000 C 
BRANCH  14  18
ATOM     15  C   UNL     1       7.054   5.989  18.153  0.00  0.00    +0.000 A 
ATOM     16  N   UNL     1       7.046   5.405  16.914  0.00  0.00    +0.000 NA
ATOM     17  C   UNL     1       5.967   4.641  16.934  0.00  0.00    +0.000 A 
ATOM     18  N   UNL     1       5.371   4.767  18.164  0.00  0.00    +0.000 N 
ATOM     19  N   UNL     1       6.052   5.619  18.952  0.00  0.00    +0.000 NA
BRANCH  15  21
ATOM     20  C   UNL     1       8.013   8.264  17.799  0.00  0.00    +0.000 C 
ATOM     21  C   UNL     1       8.093   6.961  18.578  0.00  0.00    +0.000 C 
ENDBRANCH  15  21
BRANCH  17  22
ATOM     22  C   UNL     1       5.486   3.741  15.842  0.00  0.00    +0.000 C 
ATOM     23  C   UNL     1       6.038   4.098  14.472  0.00  0.00    +0.000 C 
ENDBRANCH  17  22
ENDBRANCH  14  18
ENDBRANCH   1  14
TORSDOF 6
ENDMDL
MODEL 8
REMARK VINA RESULT:      -6.9      1.141      1.595
REMARK  Name = 
REMARK  9 active torsions:
REMARK  status: ('A' for Active; 'I' for Inactive)
REMARK    1  A    between atoms: C_1  and  C_2
REMARK    2  A    between atoms: C_2  and  C_3
REMARK    3  A    between atoms: C_5  and  C_6
REMARK    4  A    between atoms: C_6  and  C_7
REMARK    5  A    between atoms: N_8  and  C_9
REMARK    6  A    between atoms: C_9  and  C_10
REMARK    7  A    between atoms: N_12  and  C_13
REMARK    8  A    between atoms: C_16  and  C_17
REMARK    9  A    between atoms: C_17  and  C_18
REMARK                            x       y       z     vdW  Elec       q    Type
REMARK                         _______ _______ _______ _____ _____    ______ ____
ROOT
ATOM      1  C   UNL     1       3.997   6.054  17.563  0.00  0.00    +0.000 C 
ATOM      2  O   UNL     1       4.583   7.063  17.161  0.00  0.00    +0.000 OA
ATOM      3  N   UNL     1       2.872   6.080  18.366  0.00  0.00    +0.000 N 
ATOM      4  H   UNL     1       2.664   5.254  18.917  0.00  0.00    +0.000 HD
ENDROOT
BRANCH   3   5
ATOM      5  C   UNL     1       2.256   7.280  18.768  0.00  0.00    +0.000 A 
ATOM      6  C   UNL     1       1.954   8.297  17.860  0.00  0.00    +0.000 A 
ATOM      7  C   UNL     1       1.344   9.481  18.291  0.00  0.00    +0.000 A 
ATOM      8  C   UNL     1       1.058   9.671  19.647  0.00  0.00    +0.000 A 
ATOM      9  C   UNL     1       1.374   8.645  20.553  0.00  0.00    +0.000 A 
ATOM     10  C   UNL     1       1.941   7.445  20.113  0.00  0.00    +0.000 A 
BRANCH   8  11
ATOM     11  C   UNL     1       0.426  10.909  20.197  0.00  0.00    +0.000 C 
ATOM     12  C   UNL     1      -0.537  10.851  21.355  0.00  0.00    +0.000 C 
ATOM     13  O   UNL     1       0.714  11.998  19.697  0.00  0.00    +0.000 OA
ENDBRANCH   8  11
ENDBRANCH   3   5
BRANCH   1  14
ATOM     14  C   UNL     1       4.527   4.679  17.251  0.00  0.00    +0.000 C 
BRANCH  14  18
ATOM     15  C   UNL     1       6.716   4.605  14.577  0.00  0.00    +0.000 A 
ATOM     16  N   UNL     1       7.692   4.684  15.535  0.00  0.00    +0.000 NA
ATOM     17  C   UNL     1       7.014   4.751  16.669  0.00  0.00    +0.000 A 
ATOM     18  N   UNL     1       5.673   4.728  16.372  0.00  0.00    +0.000 N 
ATOM     19  N   UNL     1       5.468   4.638  15.046  0.00  0.00    +0.000 NA
BRANCH  15  21
ATOM     20  C   UNL     1       6.157   3.441  12.443  0.00  0.00    +0.000 C 
ATOM     21  C   UNL     1       7.019   4.490  13.128  0.00  0.00    +0.000 C 
ENDBRANCH  15  21
BRANCH  17  22
ATOM     22  C   UNL     1       7.580   4.886  18.045  0.00  0.00    +0.000 C 
ATOM     23  C   UNL     1       7.738   6.327  18.499  0.00  0.00    +0.000 C 
ENDBRANCH  17  22
ENDBRANCH  14  18
ENDBRANCH   1  14
TORSDOF 6
ENDMDL
MODEL 9
REMARK VINA RESULT:      -6.9      1.127      1.636
REMARK  Name = 
REMARK  9 active torsions:
REMARK  status: ('A' for Active; 'I' for Inactive)
REMARK    1  A    between atoms: C_1  and  C_2
REMARK    2  A    between atoms: C_2  and  C_3
REMARK    3  A    between atoms: C_5  and  C_6
REMARK    4  A    between atoms: C_6  and  C_7
REMARK    5  A    between atoms: N_8  and  C_9
REMARK    6  A    between atoms: C_9  and  C_10
REMARK    7  A    between atoms: N_12  and  C_13
REMARK    8  A    between atoms: C_16  and  C_17
REMARK    9  A    between atoms: C_17  and  C_18
REMARK                            x       y       z     vdW  Elec       q    Type
REMARK                         _______ _______ _______ _____ _____    ______ ____
ROOT
ATOM      1  C   UNL     1       4.294   5.173  18.748  0.00  0.00    +0.000 C 
ATOM      2  O   UNL     1       4.836   5.627  19.759  0.00  0.00    +0.000 OA
ATOM      3  N   UNL     1       3.152   5.704  18.176  0.00  0.00    +0.000 N 
ATOM      4  H   UNL     1       2.593   5.100  17.584  0.00  0.00    +0.000 HD
ENDROOT
BRANCH   3   5
ATOM      5  C   UNL     1       2.522   6.859  18.677  0.00  0.00    +0.000 A 
ATOM      6  C   UNL     1       2.314   7.991  17.885  0.00  0.00    +0.000 A 
ATOM      7  C   UNL     1       1.687   9.125  18.414  0.00  0.00    +0.000 A 
ATOM      8  C   UNL     1       1.287   9.148  19.754  0.00  0.00    +0.000 A 
ATOM      9  C   UNL     1       1.509   8.007  20.543  0.00  0.00    +0.000 A 
ATOM     10  C   UNL     1       2.093   6.859  20.001  0.00  0.00    +0.000 A 
BRANCH   8  11
ATOM     11  C   UNL     1       0.628  10.321  20.405  0.00  0.00    +0.000 C 
ATOM     12  C   UNL     1      -0.293  10.149  21.585  0.00  0.00    +0.000 C 
ATOM     13  O   UNL     1       0.859  11.451  19.971  0.00  0.00    +0.000 OA
ENDBRANCH   8  11
ENDBRANCH   3   5
BRANCH   1  14
ATOM     14  C   UNL     1       4.816   3.924  18.087  0.00  0.00    +0.000 C 
BRANCH  14  18
ATOM     15  C   UNL     1       6.372   4.246  15.016  0.00  0.00    +0.000 A 
ATOM     16  N   UNL     1       7.437   4.705  15.745  0.00  0.00    +0.000 NA
ATOM     17  C   UNL     1       6.999   4.677  16.993  0.00  0.00    +0.000 A 
ATOM     18  N   UNL     1       5.702   4.227  16.985  0.00  0.00    +0.000 N 
ATOM     19  N   UNL     1       5.288   3.951  15.735  0.00  0.00    +0.000 NA
BRANCH  15  21
ATOM     20  C   UNL     1       7.474   4.967  12.898  0.00  0.00    +0.000 C 
ATOM     21  C   UNL     1       6.415   4.085  13.541  0.00  0.00    +0.000 C 
ENDBRANCH  15  21
BRANCH  17  22
ATOM     22  C   UNL     1       7.745   5.109  18.214  0.00  0.00    +0.000 C 
ATOM     23  C   UNL     1       7.823   6.617  18.377  0.00  0.00    +0.000 C 
ENDBRANCH  17  22
ENDBRANCH  14  18
ENDBRANCH   1  14
TORSDOF 6
ENDMDL
