MODEL 1
REMARK VINA RESULT:      -9.2      0.000      0.000
REMARK  Name = 
REMARK  10 active torsions:
REMARK  status: ('A' for Active; 'I' for Inactive)
REMARK    1  A    between atoms: C_1  and  C_2
REMARK    2  A    between atoms: C_2  and  C_3
REMARK    3  A    between atoms: C_3  and  C_4
REMARK    4  A    between atoms: C_4  and  C_5
REMARK    5  A    between atoms: C_11  and  C_12
REMARK    6  A    between atoms: C_14  and  O_15
REMARK    7  A    between atoms: N_19  and  C_20
REMARK    8  A    between atoms: C_20  and  C_21
REMARK    9  A    between atoms: C_23  and  C_24
REMARK   10  A    between atoms: C_27  and  C_28
REMARK                            x       y       z     vdW  Elec       q    Type
REMARK                         _______ _______ _______ _____ _____    ______ ____
ROOT
ATOM      1  C   UNL     1       3.995   3.863  17.534  0.00  0.00    +0.000 A 
ATOM      2  N   UNL     1       3.249   2.729  17.592  0.00  0.00    +0.000 NA
ATOM      3  C   UNL     1       2.194   2.710  18.422  0.00  0.00    +0.000 A 
ATOM      4  C   UNL     1       1.871   3.815  19.191  0.00  0.00    +0.000 A 
ATOM      5  N   UNL     1       0.889   4.079  20.101  0.00  0.00    +0.000 NA
ATOM      6  N   UNL     1       1.085   5.307  20.561  0.00  0.00    +0.000 NA
ATOM      7  N   UNL     1       2.165   5.825  19.926  0.00  0.00    +0.000 N 
ATOM      8  C   UNL     1       2.707   4.912  19.050  0.00  0.00    +0.000 A 
ATOM      9  N   UNL     1       3.792   5.004  18.248  0.00  0.00    +0.000 NA
ENDROOT
BRANCH   1  16
ATOM     10  C   UNL     1       5.916   3.792  13.011  0.00  0.00    +0.000 C 
ATOM     11  O   UNL     1       6.958   3.710  12.358  0.00  0.00    +0.000 OA
ATOM     12  N   UNL     1       5.877   4.413  14.256  0.00  0.00    +0.000 N 
ATOM     13  C   UNL     1       7.080   5.084  14.741  0.00  0.00    +0.000 C 
ATOM     14  C   UNL     1       7.544   4.466  16.057  0.00  0.00    +0.000 C 
ATOM     15  C   UNL     1       6.421   4.474  17.097  0.00  0.00    +0.000 C 
ATOM     16  C   UNL     1       5.146   3.816  16.544  0.00  0.00    +0.000 C 
ATOM     17  C   UNL     1       4.741   4.421  15.190  0.00  0.00    +0.000 C 
BRANCH  10  18
ATOM     18  C   UNL     1       4.608   3.236  12.468  0.00  0.00    +0.000 C 
BRANCH  18  19
ATOM     19  C   UNL     1       4.555   3.299  10.938  0.00  0.00    +0.000 C 
BRANCH  19  21
ATOM     20  C   UNL     1       2.835   4.409   9.468  0.00  0.00    +0.000 C 
ATOM     21  C   UNL     1       3.117   3.256  10.419  0.00  0.00    +0.000 C 
ENDBRANCH  19  21
ENDBRANCH  18  19
ENDBRANCH  10  18
ENDBRANCH   1  16
BRANCH   3  22
ATOM     22  O   UNL     1       1.492   1.539  18.441  0.00  0.00    +0.000 OA
ATOM     23  H   UNL     1       1.991   1.027  19.101  0.00  0.00    +0.000 HD
ENDBRANCH   3  22
BRANCH   7  24
ATOM     24  C   UNL     1       2.680   7.114  20.349  0.00  0.00    +0.000 C 
BRANCH  24  25
ATOM     25  C   UNL     1       1.623   8.202  20.346  0.00  0.00    +0.000 A 
ATOM     26  C   UNL     1       0.973   8.497  21.563  0.00  0.00    +0.000 A 
ATOM     27  C   UNL     1      -0.001   9.499  21.642  0.00  0.00    +0.000 A 
ATOM     28  C   UNL     1      -0.704   9.801  22.933  0.00  0.00    +0.000 C 
ATOM     29  C   UNL     1      -0.312  10.236  20.497  0.00  0.00    +0.000 A 
ATOM     30  C   UNL     1       0.303   9.946  19.283  0.00  0.00    +0.000 A 
ATOM     31  C   UNL     1       1.260   8.923  19.185  0.00  0.00    +0.000 A 
ATOM     32  C   UNL     1       1.829   8.618  17.824  0.00  0.00    +0.000 C 
ENDBRANCH  24  25
ENDBRANCH   7  24
TORSDOF 7
ENDMDL
MODEL 2
REMARK VINA RESULT:      -8.1      4.271      7.379
REMARK  Name = 
REMARK  10 active torsions:
REMARK  status: ('A' for Active; 'I' for Inactive)
REMARK    1  A    between atoms: C_1  and  C_2
REMARK    2  A    between atoms: C_2  and  C_3
REMARK    3  A    between atoms: C_3  and  C_4
REMARK    4  A    between atoms: C_4  and  C_5
REMARK    5  A    between atoms: C_11  and  C_12
REMARK    6  A    between atoms: C_14  and  O_15
REMARK    7  A    between atoms: N_19  and  C_20
REMARK    8  A    between atoms: C_20  and  C_21
REMARK    9  A    between atoms: C_23  and  C_24
REMARK   10  A    between atoms: C_27  and  C_28
REMARK                            x       y       z     vdW  Elec       q    Type
REMARK                         _______ _______ _______ _____ _____    ______ ____
ROOT
ATOM      1  C   UNL     1       0.997   9.089  20.919  0.00  0.00    +0.000 A 
ATOM      2  N   UNL     1       1.025   8.855  22.257  0.00  0.00    +0.000 NA
ATOM      3  C   UNL     1       0.205   9.575  23.040  0.00  0.00    +0.000 A 
ATOM      4  C   UNL     1      -0.647  10.524  22.500  0.00  0.00    +0.000 A 
ATOM      5  N   UNL     1      -1.562  11.384  23.032  0.00  0.00    +0.000 NA
ATOM      6  N   UNL     1      -2.071  12.099  22.037  0.00  0.00    +0.000 NA
ATOM      7  N   UNL     1      -1.504  11.671  20.883  0.00  0.00    +0.000 N 
ATOM      8  C   UNL     1      -0.584  10.676  21.124  0.00  0.00    +0.000 A 
ATOM      9  N   UNL     1       0.220  10.000  20.272  0.00  0.00    +0.000 NA
ENDROOT
BRANCH   1  16
ATOM     10  C   UNL     1       3.138   4.817  19.770  0.00  0.00    +0.000 C 
ATOM     11  O   UNL     1       3.958   4.265  19.034  0.00  0.00    +0.000 OA
ATOM     12  N   UNL     1       2.373   5.896  19.337  0.00  0.00    +0.000 N 
ATOM     13  C   UNL     1       2.467   6.304  17.938  0.00  0.00    +0.000 C 
ATOM     14  C   UNL     1       2.948   7.747  17.831  0.00  0.00    +0.000 C 
ATOM     15  C   UNL     1       2.057   8.688  18.646  0.00  0.00    +0.000 C 
ATOM     16  C   UNL     1       1.924   8.207  20.101  0.00  0.00    +0.000 C 
ATOM     17  C   UNL     1       1.496   6.732  20.171  0.00  0.00    +0.000 C 
BRANCH  10  18
ATOM     18  C   UNL     1       2.905   4.322  21.190  0.00  0.00    +0.000 C 
BRANCH  18  19
ATOM     19  C   UNL     1       2.299   2.915  21.210  0.00  0.00    +0.000 C 
BRANCH  19  21
ATOM     20  C   UNL     1       0.839   2.457  19.208  0.00  0.00    +0.000 C 
ATOM     21  C   UNL     1       0.871   2.905  20.661  0.00  0.00    +0.000 C 
ENDBRANCH  19  21
ENDBRANCH  18  19
ENDBRANCH  10  18
ENDBRANCH   1  16
BRANCH   3  22
ATOM     22  O   UNL     1       0.288   9.300  24.374  0.00  0.00    +0.000 OA
ATOM     23  H   UNL     1       1.093   9.789  24.622  0.00  0.00    +0.000 HD
ENDBRANCH   3  22
BRANCH   7  24
ATOM     24  C   UNL     1      -1.786  12.387  19.652  0.00  0.00    +0.000 C 
BRANCH  24  25
ATOM     25  C   UNL     1      -3.055  11.913  18.972  0.00  0.00    +0.000 A 
ATOM     26  C   UNL     1      -4.287  12.415  19.443  0.00  0.00    +0.000 A 
ATOM     27  C   UNL     1      -5.499  12.036  18.854  0.00  0.00    +0.000 A 
ATOM     28  C   UNL     1      -6.810  12.558  19.367  0.00  0.00    +0.000 C 
ATOM     29  C   UNL     1      -5.482  11.165  17.762  0.00  0.00    +0.000 A 
ATOM     30  C   UNL     1      -4.279  10.643  17.296  0.00  0.00    +0.000 A 
ATOM     31  C   UNL     1      -3.059  10.992  17.899  0.00  0.00    +0.000 A 
ATOM     32  C   UNL     1      -1.806  10.331  17.386  0.00  0.00    +0.000 C 
ENDBRANCH  24  25
ENDBRANCH   7  24
TORSDOF 7
ENDMDL
MODEL 3
REMARK VINA RESULT:      -8.0      0.878      1.286
REMARK  Name = 
REMARK  10 active torsions:
REMARK  status: ('A' for Active; 'I' for Inactive)
REMARK    1  A    between atoms: C_1  and  C_2
REMARK    2  A    between atoms: C_2  and  C_3
REMARK    3  A    between atoms: C_3  and  C_4
REMARK    4  A    between atoms: C_4  and  C_5
REMARK    5  A    between atoms: C_11  and  C_12
REMARK    6  A    between atoms: C_14  and  O_15
REMARK    7  A    between atoms: N_19  and  C_20
REMARK    8  A    between atoms: C_20  and  C_21
REMARK    9  A    between atoms: C_23  and  C_24
REMARK   10  A    between atoms: C_27  and  C_28
REMARK                            x       y       z     vdW  Elec       q    Type
REMARK                         _______ _______ _______ _____ _____    ______ ____
ROOT
ATOM      1  C   UNL     1       4.082   3.927  17.423  0.00  0.00    +0.000 A 
ATOM      2  N   UNL     1       3.331   2.795  17.400  0.00  0.00    +0.000 NA
ATOM      3  C   UNL     1       2.252   2.738  18.198  0.00  0.00    +0.000 A 
ATOM      4  C   UNL     1       1.911   3.802  19.014  0.00  0.00    +0.000 A 
ATOM      5  N   UNL     1       0.904   4.023  19.908  0.00  0.00    +0.000 NA
ATOM      6  N   UNL     1       1.091   5.225  20.438  0.00  0.00    +0.000 NA
ATOM      7  N   UNL     1       2.190   5.770  19.861  0.00  0.00    +0.000 N 
ATOM      8  C   UNL     1       2.754   4.901  18.955  0.00  0.00    +0.000 A 
ATOM      9  N   UNL     1       3.862   5.030  18.190  0.00  0.00    +0.000 NA
ENDROOT
BRANCH   1  16
ATOM     10  C   UNL     1       6.131   3.745  12.960  0.00  0.00    +0.000 C 
ATOM     11  O   UNL     1       7.196   3.721  12.338  0.00  0.00    +0.000 OA
ATOM     12  N   UNL     1       5.998   4.440  14.159  0.00  0.00    +0.000 N 
ATOM     13  C   UNL     1       7.118   5.253  14.624  0.00  0.00    +0.000 C 
ATOM     14  C   UNL     1       7.599   4.770  15.989  0.00  0.00    +0.000 C 
ATOM     15  C   UNL     1       6.451   4.739  17.001  0.00  0.00    +0.000 C 
ATOM     16  C   UNL     1       5.260   3.926  16.465  0.00  0.00    +0.000 C 
ATOM     17  C   UNL     1       4.839   4.399  15.063  0.00  0.00    +0.000 C 
BRANCH  10  18
ATOM     18  C   UNL     1       4.899   3.031  12.426  0.00  0.00    +0.000 C 
BRANCH  18  19
ATOM     19  C   UNL     1       5.202   2.256  11.140  0.00  0.00    +0.000 C 
BRANCH  19  21
ATOM     20  C   UNL     1       5.951  -0.148  11.211  0.00  0.00    +0.000 C 
ATOM     21  C   UNL     1       6.386   1.305  11.316  0.00  0.00    +0.000 C 
ENDBRANCH  19  21
ENDBRANCH  18  19
ENDBRANCH  10  18
ENDBRANCH   1  16
BRANCH   3  22
ATOM     22  O   UNL     1       1.546   1.571  18.136  0.00  0.00    +0.000 OA
ATOM     23  H   UNL     1       2.256   0.925  17.972  0.00  0.00    +0.000 HD
ENDBRANCH   3  22
BRANCH   7  24
ATOM     24  C   UNL     1       2.697   7.033  20.365  0.00  0.00    +0.000 C 
BRANCH  24  25
ATOM     25  C   UNL     1       1.658   8.137  20.344  0.00  0.00    +0.000 A 
ATOM     26  C   UNL     1       0.996   8.448  21.551  0.00  0.00    +0.000 A 
ATOM     27  C   UNL     1       0.037   9.465  21.613  0.00  0.00    +0.000 A 
ATOM     28  C   UNL     1      -0.678   9.784  22.893  0.00  0.00    +0.000 C 
ATOM     29  C   UNL     1      -0.247  10.202  20.461  0.00  0.00    +0.000 A 
ATOM     30  C   UNL     1       0.380   9.898  19.256  0.00  0.00    +0.000 A 
ATOM     31  C   UNL     1       1.322   8.858  19.176  0.00  0.00    +0.000 A 
ATOM     32  C   UNL     1       1.904   8.539  17.823  0.00  0.00    +0.000 C 
ENDBRANCH  24  25
ENDBRANCH   7  24
TORSDOF 7
ENDMDL
MODEL 4
REMARK VINA RESULT:      -7.9      0.704      1.641
REMARK  Name = 
REMARK  10 active torsions:
REMARK  status: ('A' for Active; 'I' for Inactive)
REMARK    1  A    between atoms: C_1  and  C_2
REMARK    2  A    between atoms: C_2  and  C_3
REMARK    3  A    between atoms: C_3  and  C_4
REMARK    4  A    between atoms: C_4  and  C_5
REMARK    5  A    between atoms: C_11  and  C_12
REMARK    6  A    between atoms: C_14  and  O_15
REMARK    7  A    between atoms: N_19  and  C_20
REMARK    8  A    between atoms: C_20  and  C_21
REMARK    9  A    between atoms: C_23  and  C_24
REMARK   10  A    between atoms: C_27  and  C_28
REMARK                            x       y       z     vdW  Elec       q    Type
REMARK                         _______ _______ _______ _____ _____    ______ ____
ROOT
ATOM      1  C   UNL     1       4.046   4.107  17.830  0.00  0.00    +0.000 A 
ATOM      2  N   UNL     1       3.382   2.949  18.081  0.00  0.00    +0.000 NA
ATOM      3  C   UNL     1       2.317   2.996  18.897  0.00  0.00    +0.000 A 
ATOM      4  C   UNL     1       1.903   4.190  19.461  0.00  0.00    +0.000 A 
ATOM      5  N   UNL     1       0.888   4.535  20.307  0.00  0.00    +0.000 NA
ATOM      6  N   UNL     1       0.989   5.835  20.548  0.00  0.00    +0.000 NA
ATOM      7  N   UNL     1       2.039   6.313  19.837  0.00  0.00    +0.000 N 
ATOM      8  C   UNL     1       2.660   5.304  19.135  0.00  0.00    +0.000 A 
ATOM      9  N   UNL     1       3.749   5.336  18.334  0.00  0.00    +0.000 NA
ENDROOT
BRANCH   1  16
ATOM     10  C   UNL     1       6.059   3.834  13.355  0.00  0.00    +0.000 C 
ATOM     11  O   UNL     1       7.109   3.679  12.729  0.00  0.00    +0.000 OA
ATOM     12  N   UNL     1       6.028   4.482  14.587  0.00  0.00    +0.000 N 
ATOM     13  C   UNL     1       7.257   5.093  15.087  0.00  0.00    +0.000 C 
ATOM     14  C   UNL     1       7.655   4.477  16.424  0.00  0.00    +0.000 C 
ATOM     15  C   UNL     1       6.512   4.570  17.438  0.00  0.00    +0.000 C 
ATOM     16  C   UNL     1       5.214   3.975  16.868  0.00  0.00    +0.000 C 
ATOM     17  C   UNL     1       4.874   4.573  15.493  0.00  0.00    +0.000 C 
BRANCH  10  18
ATOM     18  C   UNL     1       4.734   3.342  12.793  0.00  0.00    +0.000 C 
BRANCH  18  19
ATOM     19  C   UNL     1       4.688   3.451  11.265  0.00  0.00    +0.000 C 
BRANCH  19  21
ATOM     20  C   UNL     1       2.924   4.176   9.619  0.00  0.00    +0.000 C 
ATOM     21  C   UNL     1       3.284   3.190  10.720  0.00  0.00    +0.000 C 
ENDBRANCH  19  21
ENDBRANCH  18  19
ENDBRANCH  10  18
ENDBRANCH   1  16
BRANCH   3  22
ATOM     22  O   UNL     1       1.701   1.797  19.116  0.00  0.00    +0.000 OA
ATOM     23  H   UNL     1       1.025   1.797  18.417  0.00  0.00    +0.000 HD
ENDBRANCH   3  22
BRANCH   7  24
ATOM     24  C   UNL     1       2.453   7.691  20.031  0.00  0.00    +0.000 C 
BRANCH  24  25
ATOM     25  C   UNL     1       1.286   8.659  20.060  0.00  0.00    +0.000 A 
ATOM     26  C   UNL     1       0.642   8.956  18.841  0.00  0.00    +0.000 A 
ATOM     27  C   UNL     1      -0.452   9.827  18.790  0.00  0.00    +0.000 A 
ATOM     28  C   UNL     1      -1.127  10.156  17.490  0.00  0.00    +0.000 C 
ATOM     29  C   UNL     1      -0.929  10.390  19.977  0.00  0.00    +0.000 A 
ATOM     30  C   UNL     1      -0.294  10.125  21.187  0.00  0.00    +0.000 A 
ATOM     31  C   UNL     1       0.824   9.276  21.245  0.00  0.00    +0.000 A 
ATOM     32  C   UNL     1       1.502   9.095  22.578  0.00  0.00    +0.000 C 
ENDBRANCH  24  25
ENDBRANCH   7  24
TORSDOF 7
ENDMDL
MODEL 5
REMARK VINA RESULT:      -7.8      1.445      2.382
REMARK  Name = 
REMARK  10 active torsions:
REMARK  status: ('A' for Active; 'I' for Inactive)
REMARK    1  A    between atoms: C_1  and  C_2
REMARK    2  A    between atoms: C_2  and  C_3
REMARK    3  A    between atoms: C_3  and  C_4
REMARK    4  A    between atoms: C_4  and  C_5
REMARK    5  A    between atoms: C_11  and  C_12
REMARK    6  A    between atoms: C_14  and  O_15
REMARK    7  A    between atoms: N_19  and  C_20
REMARK    8  A    between atoms: C_20  and  C_21
REMARK    9  A    between atoms: C_23  and  C_24
REMARK   10  A    between atoms: C_27  and  C_28
REMARK                            x       y       z     vdW  Elec       q    Type
REMARK                         _______ _______ _______ _____ _____    ______ ____
ROOT
ATOM      1  C   UNL     1       4.147   4.302  18.324  0.00  0.00    +0.000 A 
ATOM      2  N   UNL     1       3.613   3.097  17.993  0.00  0.00    +0.000 NA
ATOM      3  C   UNL     1       2.440   2.753  18.549  0.00  0.00    +0.000 A 
ATOM      4  C   UNL     1       1.791   3.604  19.428  0.00  0.00    +0.000 A 
ATOM      5  N   UNL     1       0.624   3.525  20.131  0.00  0.00    +0.000 NA
ATOM      6  N   UNL     1       0.513   4.631  20.854  0.00  0.00    +0.000 NA
ATOM      7  N   UNL     1       1.585   5.415  20.586  0.00  0.00    +0.000 N 
ATOM      8  C   UNL     1       2.433   4.803  19.692  0.00  0.00    +0.000 A 
ATOM      9  N   UNL     1       3.617   5.215  19.183  0.00  0.00    +0.000 NA
ENDROOT
BRANCH   1  16
ATOM     10  C   UNL     1       6.994   4.899  14.363  0.00  0.00    +0.000 C 
ATOM     11  O   UNL     1       8.133   5.155  13.968  0.00  0.00    +0.000 OA
ATOM     12  N   UNL     1       6.478   5.459  15.528  0.00  0.00    +0.000 N 
ATOM     13  C   UNL     1       7.270   6.464  16.231  0.00  0.00    +0.000 C 
ATOM     14  C   UNL     1       7.581   6.003  17.652  0.00  0.00    +0.000 C 
ATOM     15  C   UNL     1       6.300   5.646  18.410  0.00  0.00    +0.000 C 
ATOM     16  C   UNL     1       5.454   4.631  17.623  0.00  0.00    +0.000 C 
ATOM     17  C   UNL     1       5.210   5.098  16.179  0.00  0.00    +0.000 C 
BRANCH  10  18
ATOM     18  C   UNL     1       6.084   3.970  13.573  0.00  0.00    +0.000 C 
BRANCH  18  19
ATOM     19  C   UNL     1       6.672   3.630  12.199  0.00  0.00    +0.000 C 
BRANCH  19  21
ATOM     20  C   UNL     1       6.920   1.405  11.043  0.00  0.00    +0.000 C 
ATOM     21  C   UNL     1       5.942   2.456  11.545  0.00  0.00    +0.000 C 
ENDBRANCH  19  21
ENDBRANCH  18  19
ENDBRANCH  10  18
ENDBRANCH   1  16
BRANCH   3  22
ATOM     22  O   UNL     1       1.963   1.528  18.184  0.00  0.00    +0.000 OA
ATOM     23  H   UNL     1       1.014   1.715  18.075  0.00  0.00    +0.000 HD
ENDBRANCH   3  22
BRANCH   7  24
ATOM     24  C   UNL     1       1.779   6.631  21.355  0.00  0.00    +0.000 C 
BRANCH  24  25
ATOM     25  C   UNL     1       1.297   7.871  20.629  0.00  0.00    +0.000 A 
ATOM     26  C   UNL     1       1.928   8.216  19.415  0.00  0.00    +0.000 A 
ATOM     27  C   UNL     1       1.527   9.337  18.679  0.00  0.00    +0.000 A 
ATOM     28  C   UNL     1       2.211   9.712  17.397  0.00  0.00    +0.000 C 
ATOM     29  C   UNL     1       0.463  10.112  19.147  0.00  0.00    +0.000 A 
ATOM     30  C   UNL     1      -0.159   9.800  20.352  0.00  0.00    +0.000 A 
ATOM     31  C   UNL     1       0.255   8.695  21.114  0.00  0.00    +0.000 A 
ATOM     32  C   UNL     1      -0.416   8.464  22.443  0.00  0.00    +0.000 C 
ENDBRANCH  24  25
ENDBRANCH   7  24
TORSDOF 7
ENDMDL
MODEL 6
REMARK VINA RESULT:      -7.7      4.264      7.468
REMARK  Name = 
REMARK  10 active torsions:
REMARK  status: ('A' for Active; 'I' for Inactive)
REMARK    1  A    between atoms: C_1  and  C_2
REMARK    2  A    between atoms: C_2  and  C_3
REMARK    3  A    between atoms: C_3  and  C_4
REMARK    4  A    between atoms: C_4  and  C_5
REMARK    5  A    between atoms: C_11  and  C_12
REMARK    6  A    between atoms: C_14  and  O_15
REMARK    7  A    between atoms: N_19  and  C_20
REMARK    8  A    between atoms: C_20  and  C_21
REMARK    9  A    between atoms: C_23  and  C_24
REMARK   10  A    between atoms: C_27  and  C_28
REMARK                            x       y       z     vdW  Elec       q    Type
REMARK                         _______ _______ _______ _____ _____    ______ ____
ROOT
ATOM      1  C   UNL     1       0.907   9.230  20.925  0.00  0.00    +0.000 A 
ATOM      2  N   UNL     1       0.922   8.893  22.241  0.00  0.00    +0.000 NA
ATOM      3  C   UNL     1       0.106   9.561  23.072  0.00  0.00    +0.000 A 
ATOM      4  C   UNL     1      -0.730  10.559  22.602  0.00  0.00    +0.000 A 
ATOM      5  N   UNL     1      -1.639  11.389  23.193  0.00  0.00    +0.000 NA
ATOM      6  N   UNL     1      -2.131  12.184  22.253  0.00  0.00    +0.000 NA
ATOM      7  N   UNL     1      -1.560  11.840  21.073  0.00  0.00    +0.000 N 
ATOM      8  C   UNL     1      -0.655  10.817  21.242  0.00  0.00    +0.000 A 
ATOM      9  N   UNL     1       0.147  10.199  20.345  0.00  0.00    +0.000 NA
ENDROOT
BRANCH   1  16
ATOM     10  C   UNL     1       3.023   5.036  19.481  0.00  0.00    +0.000 C 
ATOM     11  O   UNL     1       3.840   4.532  18.708  0.00  0.00    +0.000 OA
ATOM     12  N   UNL     1       2.265   6.147  19.124  0.00  0.00    +0.000 N 
ATOM     13  C   UNL     1       2.361   6.650  17.757  0.00  0.00    +0.000 C 
ATOM     14  C   UNL     1       2.851   8.095  17.751  0.00  0.00    +0.000 C 
ATOM     15  C   UNL     1       1.965   8.982  18.630  0.00  0.00    +0.000 C 
ATOM     16  C   UNL     1       1.829   8.402  20.047  0.00  0.00    +0.000 C 
ATOM     17  C   UNL     1       1.393   6.928  20.015  0.00  0.00    +0.000 C 
BRANCH  10  18
ATOM     18  C   UNL     1       2.787   4.445  20.863  0.00  0.00    +0.000 C 
BRANCH  18  19
ATOM     19  C   UNL     1       1.410   3.781  20.971  0.00  0.00    +0.000 C 
BRANCH  19  21
ATOM     20  C   UNL     1       1.841   1.859  19.400  0.00  0.00    +0.000 C 
ATOM     21  C   UNL     1       1.004   3.101  19.662  0.00  0.00    +0.000 C 
ENDBRANCH  19  21
ENDBRANCH  18  19
ENDBRANCH  10  18
ENDBRANCH   1  16
BRANCH   3  22
ATOM     22  O   UNL     1       0.175   9.182  24.382  0.00  0.00    +0.000 OA
ATOM     23  H   UNL     1      -0.698   8.771  24.510  0.00  0.00    +0.000 HD
ENDBRANCH   3  22
BRANCH   7  24
ATOM     24  C   UNL     1      -1.825  12.652  19.899  0.00  0.00    +0.000 C 
BRANCH  24  25
ATOM     25  C   UNL     1      -2.840  12.025  18.964  0.00  0.00    +0.000 A 
ATOM     26  C   UNL     1      -2.360  11.261  17.880  0.00  0.00    +0.000 A 
ATOM     27  C   UNL     1      -3.237  10.638  16.985  0.00  0.00    +0.000 A 
ATOM     28  C   UNL     1      -2.725   9.839  15.822  0.00  0.00    +0.000 C 
ATOM     29  C   UNL     1      -4.614  10.756  17.189  0.00  0.00    +0.000 A 
ATOM     30  C   UNL     1      -5.108  11.522  18.241  0.00  0.00    +0.000 A 
ATOM     31  C   UNL     1      -4.237  12.177  19.127  0.00  0.00    +0.000 A 
ATOM     32  C   UNL     1      -4.844  13.048  20.196  0.00  0.00    +0.000 C 
ENDBRANCH  24  25
ENDBRANCH   7  24
TORSDOF 7
ENDMDL
MODEL 7
REMARK VINA RESULT:      -7.6      3.276      8.955
REMARK  Name = 
REMARK  10 active torsions:
REMARK  status: ('A' for Active; 'I' for Inactive)
REMARK    1  A    between atoms: C_1  and  C_2
REMARK    2  A    between atoms: C_2  and  C_3
REMARK    3  A    between atoms: C_3  and  C_4
REMARK    4  A    between atoms: C_4  and  C_5
REMARK    5  A    between atoms: C_11  and  C_12
REMARK    6  A    between atoms: C_14  and  O_15
REMARK    7  A    between atoms: N_19  and  C_20
REMARK    8  A    between atoms: C_20  and  C_21
REMARK    9  A    between atoms: C_23  and  C_24
REMARK   10  A    between atoms: C_27  and  C_28
REMARK                            x       y       z     vdW  Elec       q    Type
REMARK                         _______ _______ _______ _____ _____    ______ ____
ROOT
ATOM      1  C   UNL     1       1.780   7.457  20.307  0.00  0.00    +0.000 A 
ATOM      2  N   UNL     1       1.325   6.350  20.950  0.00  0.00    +0.000 NA
ATOM      3  C   UNL     1       1.730   5.150  20.504  0.00  0.00    +0.000 A 
ATOM      4  C   UNL     1       2.591   5.044  19.425  0.00  0.00    +0.000 A 
ATOM      5  N   UNL     1       3.155   3.990  18.765  0.00  0.00    +0.000 NA
ATOM      6  N   UNL     1       3.881   4.479  17.769  0.00  0.00    +0.000 NA
ATOM      7  N   UNL     1       3.801   5.831  17.818  0.00  0.00    +0.000 N 
ATOM      8  C   UNL     1       2.986   6.241  18.848  0.00  0.00    +0.000 A 
ATOM      9  N   UNL     1       2.613   7.483  19.230  0.00  0.00    +0.000 NA
ENDROOT
BRANCH   1  16
ATOM     10  C   UNL     1       0.823  12.274  20.128  0.00  0.00    +0.000 C 
ATOM     11  O   UNL     1       0.445  13.252  20.775  0.00  0.00    +0.000 OA
ATOM     12  N   UNL     1       0.340  10.994  20.384  0.00  0.00    +0.000 N 
ATOM     13  C   UNL     1      -0.728  10.832  21.367  0.00  0.00    +0.000 C 
ATOM     14  C   UNL     1      -0.275   9.923  22.506  0.00  0.00    +0.000 C 
ATOM     15  C   UNL     1       0.225   8.578  21.973  0.00  0.00    +0.000 C 
ATOM     16  C   UNL     1       1.307   8.774  20.897  0.00  0.00    +0.000 C 
ATOM     17  C   UNL     1       0.840   9.741  19.797  0.00  0.00    +0.000 C 
BRANCH  10  18
ATOM     18  C   UNL     1       1.825  12.427  18.994  0.00  0.00    +0.000 C 
BRANCH  18  19
ATOM     19  C   UNL     1       2.789  13.592  19.240  0.00  0.00    +0.000 C 
BRANCH  19  21
ATOM     20  C   UNL     1       3.700  15.351  17.682  0.00  0.00    +0.000 C 
ATOM     21  C   UNL     1       2.456  14.799  18.361  0.00  0.00    +0.000 C 
ENDBRANCH  19  21
ENDBRANCH  18  19
ENDBRANCH  10  18
ENDBRANCH   1  16
BRANCH   3  22
ATOM     22  O   UNL     1       1.229   4.079  21.185  0.00  0.00    +0.000 OA
ATOM     23  H   UNL     1       2.046   3.643  21.486  0.00  0.00    +0.000 HD
ENDBRANCH   3  22
BRANCH   7  24
ATOM     24  C   UNL     1       4.398   6.611  16.749  0.00  0.00    +0.000 C 
BRANCH  24  25
ATOM     25  C   UNL     1       5.432   5.835  15.959  0.00  0.00    +0.000 A 
ATOM     26  C   UNL     1       4.997   5.110  14.829  0.00  0.00    +0.000 A 
ATOM     27  C   UNL     1       5.897   4.384  14.040  0.00  0.00    +0.000 A 
ATOM     28  C   UNL     1       5.430   3.599  12.849  0.00  0.00    +0.000 C 
ATOM     29  C   UNL     1       7.255   4.401  14.366  0.00  0.00    +0.000 A 
ATOM     30  C   UNL     1       7.701   5.093  15.489  0.00  0.00    +0.000 A 
ATOM     31  C   UNL     1       6.803   5.801  16.305  0.00  0.00    +0.000 A 
ATOM     32  C   UNL     1       7.349   6.464  17.542  0.00  0.00    +0.000 C 
ENDBRANCH  24  25
ENDBRANCH   7  24
TORSDOF 7
ENDMDL
MODEL 8
REMARK VINA RESULT:      -7.6      7.262     12.511
REMARK  Name = 
REMARK  10 active torsions:
REMARK  status: ('A' for Active; 'I' for Inactive)
REMARK    1  A    between atoms: C_1  and  C_2
REMARK    2  A    between atoms: C_2  and  C_3
REMARK    3  A    between atoms: C_3  and  C_4
REMARK    4  A    between atoms: C_4  and  C_5
REMARK    5  A    between atoms: C_11  and  C_12
REMARK    6  A    between atoms: C_14  and  O_15
REMARK    7  A    between atoms: N_19  and  C_20
REMARK    8  A    between atoms: C_20  and  C_21
REMARK    9  A    between atoms: C_23  and  C_24
REMARK   10  A    between atoms: C_27  and  C_28
REMARK                            x       y       z     vdW  Elec       q    Type
REMARK                         _______ _______ _______ _____ _____    ______ ____
ROOT
ATOM      1  C   UNL     1      -4.419  12.686  20.113  0.00  0.00    +0.000 A 
ATOM      2  N   UNL     1      -5.435  12.367  19.269  0.00  0.00    +0.000 NA
ATOM      3  C   UNL     1      -5.132  11.712  18.136  0.00  0.00    +0.000 A 
ATOM      4  C   UNL     1      -3.825  11.366  17.840  0.00  0.00    +0.000 A 
ATOM      5  N   UNL     1      -3.232  10.721  16.793  0.00  0.00    +0.000 NA
ATOM      6  N   UNL     1      -1.925  10.698  17.022  0.00  0.00    +0.000 NA
ATOM      7  N   UNL     1      -1.699  11.296  18.217  0.00  0.00    +0.000 N 
ATOM      8  C   UNL     1      -2.874  11.746  18.774  0.00  0.00    +0.000 A 
ATOM      9  N   UNL     1      -3.097  12.416  19.927  0.00  0.00    +0.000 NA
ENDROOT
BRANCH   1  16
ATOM     10  C   UNL     1      -3.798  15.844  23.826  0.00  0.00    +0.000 C 
ATOM     11  O   UNL     1      -4.286  16.284  24.868  0.00  0.00    +0.000 OA
ATOM     12  N   UNL     1      -4.593  15.433  22.760  0.00  0.00    +0.000 N 
ATOM     13  C   UNL     1      -6.036  15.642  22.842  0.00  0.00    +0.000 C 
ATOM     14  C   UNL     1      -6.776  14.312  22.747  0.00  0.00    +0.000 C 
ATOM     15  C   UNL     1      -6.376  13.546  21.483  0.00  0.00    +0.000 C 
ATOM     16  C   UNL     1      -4.849  13.390  21.387  0.00  0.00    +0.000 C 
ATOM     17  C   UNL     1      -4.132  14.740  21.547  0.00  0.00    +0.000 C 
BRANCH  10  18
ATOM     18  C   UNL     1      -2.290  15.752  23.647  0.00  0.00    +0.000 C 
BRANCH  18  19
ATOM     19  C   UNL     1      -1.711  14.506  24.325  0.00  0.00    +0.000 C 
BRANCH  19  21
ATOM     20  C   UNL     1      -0.367  14.043  22.245  0.00  0.00    +0.000 C 
ATOM     21  C   UNL     1      -1.284  13.452  23.304  0.00  0.00    +0.000 C 
ENDBRANCH  19  21
ENDBRANCH  18  19
ENDBRANCH  10  18
ENDBRANCH   1  16
BRANCH   3  22
ATOM     22  O   UNL     1      -6.195  11.431  17.327  0.00  0.00    +0.000 OA
ATOM     23  H   UNL     1      -6.076  12.087  16.617  0.00  0.00    +0.000 HD
ENDBRANCH   3  22
BRANCH   7  24
ATOM     24  C   UNL     1      -0.330  11.526  18.641  0.00  0.00    +0.000 C 
BRANCH  24  25
ATOM     25  C   UNL     1       0.174  10.471  19.605  0.00  0.00    +0.000 A 
ATOM     26  C   UNL     1      -0.260  10.536  20.946  0.00  0.00    +0.000 A 
ATOM     27  C   UNL     1       0.150   9.588  21.890  0.00  0.00    +0.000 A 
ATOM     28  C   UNL     1      -0.299   9.668  23.320  0.00  0.00    +0.000 C 
ATOM     29  C   UNL     1       0.984   8.542  21.486  0.00  0.00    +0.000 A 
ATOM     30  C   UNL     1       1.439   8.472  20.172  0.00  0.00    +0.000 A 
ATOM     31  C   UNL     1       1.059   9.436  19.224  0.00  0.00    +0.000 A 
ATOM     32  C   UNL     1       1.650   9.335  17.842  0.00  0.00    +0.000 C 
ENDBRANCH  24  25
ENDBRANCH   7  24
TORSDOF 7
ENDMDL
MODEL 9
REMARK VINA RESULT:      -7.5      3.771      6.278
REMARK  Name = 
REMARK  10 active torsions:
REMARK  status: ('A' for Active; 'I' for Inactive)
REMARK    1  A    between atoms: C_1  and  C_2
REMARK    2  A    between atoms: C_2  and  C_3
REMARK    3  A    between atoms: C_3  and  C_4
REMARK    4  A    between atoms: C_4  and  C_5
REMARK    5  A    between atoms: C_11  and  C_12
REMARK    6  A    between atoms: C_14  and  O_15
REMARK    7  A    between atoms: N_19  and  C_20
REMARK    8  A    between atoms: C_20  and  C_21
REMARK    9  A    between atoms: C_23  and  C_24
REMARK   10  A    between atoms: C_27  and  C_28
REMARK                            x       y       z     vdW  Elec       q    Type
REMARK                         _______ _______ _______ _____ _____    ______ ____
ROOT
ATOM      1  C   UNL     1       1.449   7.986  20.340  0.00  0.00    +0.000 A 
ATOM      2  N   UNL     1       1.827   8.131  21.636  0.00  0.00    +0.000 NA
ATOM      3  C   UNL     1       1.492   9.267  22.268  0.00  0.00    +0.000 A 
ATOM      4  C   UNL     1       0.777  10.260  21.620  0.00  0.00    +0.000 A 
ATOM      5  N   UNL     1       0.312  11.487  21.994  0.00  0.00    +0.000 NA
ATOM      6  N   UNL     1      -0.285  12.030  20.941  0.00  0.00    +0.000 NA
ATOM      7  N   UNL     1      -0.223  11.141  19.921  0.00  0.00    +0.000 N 
ATOM      8  C   UNL     1       0.450  10.002  20.298  0.00  0.00    +0.000 A 
ATOM      9  N   UNL     1       0.761   8.892  19.591  0.00  0.00    +0.000 NA
ENDROOT
BRANCH   1  16
ATOM     10  C   UNL     1       4.243   5.092  17.517  0.00  0.00    +0.000 C 
ATOM     11  O   UNL     1       4.383   3.953  17.066  0.00  0.00    +0.000 OA
ATOM     12  N   UNL     1       3.692   5.320  18.775  0.00  0.00    +0.000 N 
ATOM     13  C   UNL     1       3.383   4.172  19.623  0.00  0.00    +0.000 C 
ATOM     14  C   UNL     1       1.896   4.140  19.960  0.00  0.00    +0.000 C 
ATOM     15  C   UNL     1       1.444   5.459  20.591  0.00  0.00    +0.000 C 
ATOM     16  C   UNL     1       1.832   6.659  19.710  0.00  0.00    +0.000 C 
ATOM     17  C   UNL     1       3.324   6.628  19.339  0.00  0.00    +0.000 C 
BRANCH  10  18
ATOM     18  C   UNL     1       4.693   6.308  16.722  0.00  0.00    +0.000 C 
BRANCH  18  19
ATOM     19  C   UNL     1       6.074   6.097  16.092  0.00  0.00    +0.000 C 
BRANCH  19  21
ATOM     20  C   UNL     1       7.531   7.545  17.550  0.00  0.00    +0.000 C 
ATOM     21  C   UNL     1       7.186   6.122  17.141  0.00  0.00    +0.000 C 
ENDBRANCH  19  21
ENDBRANCH  18  19
ENDBRANCH  10  18
ENDBRANCH   1  16
BRANCH   3  22
ATOM     22  O   UNL     1       1.910   9.355  23.565  0.00  0.00    +0.000 OA
ATOM     23  H   UNL     1       2.756   8.875  23.527  0.00  0.00    +0.000 HD
ENDBRANCH   3  22
BRANCH   7  24
ATOM     24  C   UNL     1      -0.684  11.546  18.605  0.00  0.00    +0.000 C 
BRANCH  24  25
ATOM     25  C   UNL     1      -2.192  11.483  18.463  0.00  0.00    +0.000 A 
ATOM     26  C   UNL     1      -2.975  12.227  19.371  0.00  0.00    +0.000 A 
ATOM     27  C   UNL     1      -4.372  12.232  19.292  0.00  0.00    +0.000 A 
ATOM     28  C   UNL     1      -5.204  13.011  20.270  0.00  0.00    +0.000 C 
ATOM     29  C   UNL     1      -4.999  11.507  18.276  0.00  0.00    +0.000 A 
ATOM     30  C   UNL     1      -4.245  10.751  17.383  0.00  0.00    +0.000 A 
ATOM     31  C   UNL     1      -2.844  10.714  17.472  0.00  0.00    +0.000 A 
ATOM     32  C   UNL     1      -2.101   9.815  16.517  0.00  0.00    +0.000 C 
ENDBRANCH  24  25
ENDBRANCH   7  24
TORSDOF 7
ENDMDL
