MODEL 1
REMARK VINA RESULT:      -5.2      0.000      0.000
REMARK  Name = 
REMARK  7 active torsions:
REMARK  status: ('A' for Active; 'I' for Inactive)
REMARK    1  A    between atoms: C_1  and  N_2
REMARK    2  A    between atoms: N_2  and  C_3
REMARK    3  A    between atoms: C_7  and  N_8
REMARK    4  A    between atoms: N_8  and  C_9
REMARK    5  A    between atoms: N_8  and  C_10
REMARK    6  A    between atoms: C_11  and  C_12
REMARK    7  A    between atoms: C_12  and  N_13
REMARK                            x       y       z     vdW  Elec       q    Type
REMARK                         _______ _______ _______ _____ _____    ______ ____
ROOT
ATOM      1  C   UNL     1       5.085   4.335  18.604  0.00  0.00    +0.000 A 
ATOM      2  C   UNL     1       4.744   5.689  18.458  0.00  0.00    +0.000 A 
ATOM      3  N   UNL     1       3.510   6.134  18.732  0.00  0.00    +0.000 NA
ATOM      4  C   UNL     1       2.532   5.327  19.171  0.00  0.00    +0.000 A 
ATOM      5  C   UNL     1       2.732   3.944  19.380  0.00  0.00    +0.000 A 
ATOM      6  C   UNL     1       4.069   3.414  19.099  0.00  0.00    +0.000 A 
ENDROOT
BRANCH   1   8
ATOM      7  C   UNL     1       7.470   4.918  17.908  0.00  0.00    +0.000 C 
ATOM      8  N   UNL     1       6.438   3.965  18.269  0.00  0.00    +0.000 N 
ATOM      9  H   UNL     1       6.764   3.005  18.279  0.00  0.00    +0.000 HD
ENDBRANCH   1   8
BRANCH   5  10
ATOM     10  N   UNL     1       1.570   3.177  19.842  0.00  0.00    +0.000 N 
ATOM     11  C   UNL     1       0.616   2.603  18.889  0.00  0.00    +0.000 C 
ATOM     12  C   UNL     1       1.178   2.907  21.224  0.00  0.00    +0.000 C 
ENDBRANCH   5  10
BRANCH   6  13
ATOM     13  C   UNL     1       4.323   1.923  19.375  0.00  0.00    +0.000 C 
BRANCH  13  14
ATOM     14  N   UNL     1       5.232   1.553  20.446  0.00  0.00    +0.000 NA
ATOM     15  H   UNL     1       5.337   0.515  20.471  0.00  0.00    +0.000 HD
ATOM     16  H   UNL     1       4.806   1.838  21.358  0.00  0.00    +0.000 HD
ENDBRANCH  13  14
ENDBRANCH   6  13
TORSDOF 4
ENDMDL
MODEL 2
REMARK VINA RESULT:      -5.1      1.662      1.854
REMARK  Name = 
REMARK  7 active torsions:
REMARK  status: ('A' for Active; 'I' for Inactive)
REMARK    1  A    between atoms: C_1  and  N_2
REMARK    2  A    between atoms: N_2  and  C_3
REMARK    3  A    between atoms: C_7  and  N_8
REMARK    4  A    between atoms: N_8  and  C_9
REMARK    5  A    between atoms: N_8  and  C_10
REMARK    6  A    between atoms: C_11  and  C_12
REMARK    7  A    between atoms: C_12  and  N_13
REMARK                            x       y       z     vdW  Elec       q    Type
REMARK                         _______ _______ _______ _____ _____    ______ ____
ROOT
ATOM      1  C   UNL     1       4.896   3.907  17.491  0.00  0.00    +0.000 A 
ATOM      2  C   UNL     1       5.361   5.180  17.858  0.00  0.00    +0.000 A 
ATOM      3  N   UNL     1       4.842   5.841  18.902  0.00  0.00    +0.000 NA
ATOM      4  C   UNL     1       3.863   5.331  19.665  0.00  0.00    +0.000 A 
ATOM      5  C   UNL     1       3.307   4.054  19.426  0.00  0.00    +0.000 A 
ATOM      6  C   UNL     1       3.849   3.293  18.297  0.00  0.00    +0.000 A 
ENDROOT
BRANCH   1   8
ATOM      7  C   UNL     1       6.200   4.035  15.301  0.00  0.00    +0.000 C 
ATOM      8  N   UNL     1       5.518   3.292  16.344  0.00  0.00    +0.000 N 
ATOM      9  H   UNL     1       5.534   2.289  16.198  0.00  0.00    +0.000 HD
ENDBRANCH   1   8
BRANCH   5  10
ATOM     10  N   UNL     1       2.228   3.632  20.325  0.00  0.00    +0.000 N 
ATOM     11  C   UNL     1       2.510   2.843  21.528  0.00  0.00    +0.000 C 
ATOM     12  C   UNL     1       0.796   3.877  20.167  0.00  0.00    +0.000 C 
ENDBRANCH   5  10
BRANCH   6  13
ATOM     13  C   UNL     1       3.297   1.878  18.055  0.00  0.00    +0.000 C 
BRANCH  13  14
ATOM     14  N   UNL     1       4.175   0.738  18.259  0.00  0.00    +0.000 NA
ATOM     15  H   UNL     1       3.697   0.036  18.864  0.00  0.00    +0.000 HD
ATOM     16  H   UNL     1       5.024   1.061  18.778  0.00  0.00    +0.000 HD
ENDBRANCH  13  14
ENDBRANCH   6  13
TORSDOF 4
ENDMDL
MODEL 3
REMARK VINA RESULT:      -5.0      0.709      1.159
REMARK  Name = 
REMARK  7 active torsions:
REMARK  status: ('A' for Active; 'I' for Inactive)
REMARK    1  A    between atoms: C_1  and  N_2
REMARK    2  A    between atoms: N_2  and  C_3
REMARK    3  A    between atoms: C_7  and  N_8
REMARK    4  A    between atoms: N_8  and  C_9
REMARK    5  A    between atoms: N_8  and  C_10
REMARK    6  A    between atoms: C_11  and  C_12
REMARK    7  A    between atoms: C_12  and  N_13
REMARK                            x       y       z     vdW  Elec       q    Type
REMARK                         _______ _______ _______ _____ _____    ______ ____
ROOT
ATOM      1  C   UNL     1       4.983   4.440  17.795  0.00  0.00    +0.000 A 
ATOM      2  C   UNL     1       4.625   5.758  17.468  0.00  0.00    +0.000 A 
ATOM      3  N   UNL     1       3.409   6.244  17.749  0.00  0.00    +0.000 NA
ATOM      4  C   UNL     1       2.465   5.515  18.366  0.00  0.00    +0.000 A 
ATOM      5  C   UNL     1       2.687   4.180  18.769  0.00  0.00    +0.000 A 
ATOM      6  C   UNL     1       4.006   3.609  18.486  0.00  0.00    +0.000 A 
ENDROOT
BRANCH   1   8
ATOM      7  C   UNL     1       7.517   4.741  17.804  0.00  0.00    +0.000 C 
ATOM      8  N   UNL     1       6.315   4.019  17.435  0.00  0.00    +0.000 N 
ATOM      9  H   UNL     1       6.501   3.172  16.909  0.00  0.00    +0.000 HD
ENDBRANCH   1   8
BRANCH   5  10
ATOM     10  N   UNL     1       1.560   3.495  19.414  0.00  0.00    +0.000 N 
ATOM     11  C   UNL     1       1.274   3.686  20.838  0.00  0.00    +0.000 C 
ATOM     12  C   UNL     1       0.627   2.553  18.799  0.00  0.00    +0.000 C 
ENDBRANCH   5  10
BRANCH   6  13
ATOM     13  C   UNL     1       4.287   2.175  18.968  0.00  0.00    +0.000 C 
BRANCH  13  14
ATOM     14  N   UNL     1       5.055   1.982  20.186  0.00  0.00    +0.000 NA
ATOM     15  H   UNL     1       4.793   1.071  20.622  0.00  0.00    +0.000 HD
ATOM     16  H   UNL     1       4.793   2.732  20.867  0.00  0.00    +0.000 HD
ENDBRANCH  13  14
ENDBRANCH   6  13
TORSDOF 4
ENDMDL
MODEL 4
REMARK VINA RESULT:      -5.0      2.386      4.060
REMARK  Name = 
REMARK  7 active torsions:
REMARK  status: ('A' for Active; 'I' for Inactive)
REMARK    1  A    between atoms: C_1  and  N_2
REMARK    2  A    between atoms: N_2  and  C_3
REMARK    3  A    between atoms: C_7  and  N_8
REMARK    4  A    between atoms: N_8  and  C_9
REMARK    5  A    between atoms: N_8  and  C_10
REMARK    6  A    between atoms: C_11  and  C_12
REMARK    7  A    between atoms: C_12  and  N_13
REMARK                            x       y       z     vdW  Elec       q    Type
REMARK                         _______ _______ _______ _____ _____    ______ ____
ROOT
ATOM      1  C   UNL     1       6.881   6.644  17.880  0.00  0.00    +0.000 A 
ATOM      2  C   UNL     1       7.521   5.999  18.950  0.00  0.00    +0.000 A 
ATOM      3  N   UNL     1       6.905   5.047  19.663  0.00  0.00    +0.000 NA
ATOM      4  C   UNL     1       5.653   4.642  19.398  0.00  0.00    +0.000 A 
ATOM      5  C   UNL     1       4.892   5.188  18.341  0.00  0.00    +0.000 A 
ATOM      6  C   UNL     1       5.528   6.230  17.530  0.00  0.00    +0.000 A 
ENDROOT
BRANCH   1   8
ATOM      7  C   UNL     1       8.110   8.880  17.817  0.00  0.00    +0.000 C 
ATOM      8  N   UNL     1       7.634   7.662  17.189  0.00  0.00    +0.000 N 
ATOM      9  H   UNL     1       7.897   7.585  16.213  0.00  0.00    +0.000 HD
ENDBRANCH   1   8
BRANCH   5  10
ATOM     10  N   UNL     1       3.530   4.667  18.178  0.00  0.00    +0.000 N 
ATOM     11  C   UNL     1       3.265   3.487  17.350  0.00  0.00    +0.000 C 
ATOM     12  C   UNL     1       2.298   5.215  18.743  0.00  0.00    +0.000 C 
ENDBRANCH   5  10
BRANCH   6  13
ATOM     13  C   UNL     1       4.737   6.797  16.340  0.00  0.00    +0.000 C 
BRANCH  13  14
ATOM     14  N   UNL     1       5.314   6.712  15.009  0.00  0.00    +0.000 NA
ATOM     15  H   UNL     1       5.004   7.531  14.443  0.00  0.00    +0.000 HD
ATOM     16  H   UNL     1       4.940   5.856  14.538  0.00  0.00    +0.000 HD
ENDBRANCH  13  14
ENDBRANCH   6  13
TORSDOF 4
ENDMDL
MODEL 5
REMARK VINA RESULT:      -4.9      1.389      1.644
REMARK  Name = 
REMARK  7 active torsions:
REMARK  status: ('A' for Active; 'I' for Inactive)
REMARK    1  A    between atoms: C_1  and  N_2
REMARK    2  A    between atoms: N_2  and  C_3
REMARK    3  A    between atoms: C_7  and  N_8
REMARK    4  A    between atoms: N_8  and  C_9
REMARK    5  A    between atoms: N_8  and  C_10
REMARK    6  A    between atoms: C_11  and  C_12
REMARK    7  A    between atoms: C_12  and  N_13
REMARK                            x       y       z     vdW  Elec       q    Type
REMARK                         _______ _______ _______ _____ _____    ______ ____
ROOT
ATOM      1  C   UNL     1       4.742   4.217  17.299  0.00  0.00    +0.000 A 
ATOM      2  C   UNL     1       4.505   5.576  17.038  0.00  0.00    +0.000 A 
ATOM      3  N   UNL     1       3.535   6.251  17.670  0.00  0.00    +0.000 NA
ATOM      4  C   UNL     1       2.742   5.683  18.592  0.00  0.00    +0.000 A 
ATOM      5  C   UNL     1       2.874   4.328  18.968  0.00  0.00    +0.000 A 
ATOM      6  C   UNL     1       3.927   3.552  18.307  0.00  0.00    +0.000 A 
ENDROOT
BRANCH   1   8
ATOM      7  C   UNL     1       6.119   3.903  15.173  0.00  0.00    +0.000 C 
ATOM      8  N   UNL     1       5.804   3.587  16.553  0.00  0.00    +0.000 N 
ATOM      9  H   UNL     1       6.417   2.885  16.954  0.00  0.00    +0.000 HD
ENDBRANCH   1   8
BRANCH   5  10
ATOM     10  N   UNL     1       1.926   3.833  19.973  0.00  0.00    +0.000 N 
ATOM     11  C   UNL     1       2.187   3.998  21.405  0.00  0.00    +0.000 C 
ATOM     12  C   UNL     1       0.675   3.115  19.732  0.00  0.00    +0.000 C 
ENDBRANCH   5  10
BRANCH   6  13
ATOM     13  C   UNL     1       4.124   2.091  18.745  0.00  0.00    +0.000 C 
BRANCH  13  14
ATOM     14  N   UNL     1       4.955   1.812  19.903  0.00  0.00    +0.000 NA
ATOM     15  H   UNL     1       5.953   2.001  19.669  0.00  0.00    +0.000 HD
ATOM     16  H   UNL     1       4.882   0.792  20.127  0.00  0.00    +0.000 HD
ENDBRANCH  13  14
ENDBRANCH   6  13
TORSDOF 4
ENDMDL
MODEL 6
REMARK VINA RESULT:      -4.9      1.781      4.429
REMARK  Name = 
REMARK  7 active torsions:
REMARK  status: ('A' for Active; 'I' for Inactive)
REMARK    1  A    between atoms: C_1  and  N_2
REMARK    2  A    between atoms: N_2  and  C_3
REMARK    3  A    between atoms: C_7  and  N_8
REMARK    4  A    between atoms: N_8  and  C_9
REMARK    5  A    between atoms: N_8  and  C_10
REMARK    6  A    between atoms: C_11  and  C_12
REMARK    7  A    between atoms: C_12  and  N_13
REMARK                            x       y       z     vdW  Elec       q    Type
REMARK                         _______ _______ _______ _____ _____    ______ ____
ROOT
ATOM      1  C   UNL     1       2.528   4.920  18.437  0.00  0.00    +0.000 A 
ATOM      2  C   UNL     1       2.481   6.320  18.342  0.00  0.00    +0.000 A 
ATOM      3  N   UNL     1       3.472   7.017  17.771  0.00  0.00    +0.000 NA
ATOM      4  C   UNL     1       4.559   6.430  17.246  0.00  0.00    +0.000 A 
ATOM      5  C   UNL     1       4.737   5.028  17.255  0.00  0.00    +0.000 A 
ATOM      6  C   UNL     1       3.674   4.225  17.864  0.00  0.00    +0.000 A 
ENDROOT
BRANCH   1   8
ATOM      7  C   UNL     1       1.267   4.156  20.519  0.00  0.00    +0.000 C 
ATOM      8  N   UNL     1       1.412   4.273  19.081  0.00  0.00    +0.000 N 
ATOM      9  H   UNL     1       0.638   3.867  18.566  0.00  0.00    +0.000 HD
ENDBRANCH   1   8
BRANCH   5  10
ATOM     10  N   UNL     1       5.983   4.524  16.666  0.00  0.00    +0.000 N 
ATOM     11  C   UNL     1       5.998   3.917  15.332  0.00  0.00    +0.000 C 
ATOM     12  C   UNL     1       7.311   4.511  17.279  0.00  0.00    +0.000 C 
ENDBRANCH   5  10
BRANCH   6  13
ATOM     13  C   UNL     1       3.823   2.694  17.832  0.00  0.00    +0.000 C 
BRANCH  13  14
ATOM     14  N   UNL     1       2.626   1.875  17.744  0.00  0.00    +0.000 NA
ATOM     15  H   UNL     1       1.819   2.469  17.455  0.00  0.00    +0.000 HD
ATOM     16  H   UNL     1       2.405   1.506  18.698  0.00  0.00    +0.000 HD
ENDBRANCH  13  14
ENDBRANCH   6  13
TORSDOF 4
ENDMDL
MODEL 7
REMARK VINA RESULT:      -4.9      2.179      3.338
REMARK  Name = 
REMARK  7 active torsions:
REMARK  status: ('A' for Active; 'I' for Inactive)
REMARK    1  A    between atoms: C_1  and  N_2
REMARK    2  A    between atoms: N_2  and  C_3
REMARK    3  A    between atoms: C_7  and  N_8
REMARK    4  A    between atoms: N_8  and  C_9
REMARK    5  A    between atoms: N_8  and  C_10
REMARK    6  A    between atoms: C_11  and  C_12
REMARK    7  A    between atoms: C_12  and  N_13
REMARK                            x       y       z     vdW  Elec       q    Type
REMARK                         _______ _______ _______ _____ _____    ______ ____
ROOT
ATOM      1  C   UNL     1       6.584   5.642  16.930  0.00  0.00    +0.000 A 
ATOM      2  C   UNL     1       6.073   5.241  15.685  0.00  0.00    +0.000 A 
ATOM      3  N   UNL     1       5.053   4.378  15.592  0.00  0.00    +0.000 NA
ATOM      4  C   UNL     1       4.449   3.854  16.670  0.00  0.00    +0.000 A 
ATOM      5  C   UNL     1       4.843   4.178  17.987  0.00  0.00    +0.000 A 
ATOM      6  C   UNL     1       5.953   5.124  18.137  0.00  0.00    +0.000 A 
ENDROOT
BRANCH   1   8
ATOM      7  C   UNL     1       7.610   7.933  17.392  0.00  0.00    +0.000 C 
ATOM      8  N   UNL     1       7.691   6.566  16.912  0.00  0.00    +0.000 N 
ATOM      9  H   UNL     1       8.613   6.314  16.575  0.00  0.00    +0.000 HD
ENDBRANCH   1   8
BRANCH   5  10
ATOM     10  N   UNL     1       4.110   3.515  19.071  0.00  0.00    +0.000 N 
ATOM     11  C   UNL     1       2.912   4.123  19.656  0.00  0.00    +0.000 C 
ATOM     12  C   UNL     1       4.446   2.252  19.725  0.00  0.00    +0.000 C 
ENDBRANCH   5  10
BRANCH   6  13
ATOM     13  C   UNL     1       6.360   5.533  19.563  0.00  0.00    +0.000 C 
BRANCH  13  14
ATOM     14  N   UNL     1       7.757   5.436  19.949  0.00  0.00    +0.000 NA
ATOM     15  H   UNL     1       7.911   4.547  20.472  0.00  0.00    +0.000 HD
ATOM     16  H   UNL     1       7.976   6.219  20.607  0.00  0.00    +0.000 HD
ENDBRANCH  13  14
ENDBRANCH   6  13
TORSDOF 4
ENDMDL
MODEL 8
REMARK VINA RESULT:      -4.8      1.716      4.505
REMARK  Name = 
REMARK  7 active torsions:
REMARK  status: ('A' for Active; 'I' for Inactive)
REMARK    1  A    between atoms: C_1  and  N_2
REMARK    2  A    between atoms: N_2  and  C_3
REMARK    3  A    between atoms: C_7  and  N_8
REMARK    4  A    between atoms: N_8  and  C_9
REMARK    5  A    between atoms: N_8  and  C_10
REMARK    6  A    between atoms: C_11  and  C_12
REMARK    7  A    between atoms: C_12  and  N_13
REMARK                            x       y       z     vdW  Elec       q    Type
REMARK                         _______ _______ _______ _____ _____    ______ ____
ROOT
ATOM      1  C   UNL     1       2.612   4.830  18.334  0.00  0.00    +0.000 A 
ATOM      2  C   UNL     1       2.557   6.233  18.313  0.00  0.00    +0.000 A 
ATOM      3  N   UNL     1       3.529   6.963  17.748  0.00  0.00    +0.000 NA
ATOM      4  C   UNL     1       4.601   6.408  17.161  0.00  0.00    +0.000 A 
ATOM      5  C   UNL     1       4.783   5.009  17.093  0.00  0.00    +0.000 A 
ATOM      6  C   UNL     1       3.742   4.171  17.693  0.00  0.00    +0.000 A 
ENDROOT
BRANCH   1   8
ATOM      7  C   UNL     1       1.169   4.318  20.376  0.00  0.00    +0.000 C 
ATOM      8  N   UNL     1       1.518   4.146  18.979  0.00  0.00    +0.000 N 
ATOM      9  H   UNL     1       0.904   3.505  18.488  0.00  0.00    +0.000 HD
ENDBRANCH   1   8
BRANCH   5  10
ATOM     10  N   UNL     1       6.012   4.541  16.442  0.00  0.00    +0.000 N 
ATOM     11  C   UNL     1       7.298   4.569  17.144  0.00  0.00    +0.000 C 
ATOM     12  C   UNL     1       6.155   4.039  15.076  0.00  0.00    +0.000 C 
ENDBRANCH   5  10
BRANCH   6  13
ATOM     13  C   UNL     1       3.894   2.645  17.577  0.00  0.00    +0.000 C 
BRANCH  13  14
ATOM     14  N   UNL     1       3.954   1.852  18.793  0.00  0.00    +0.000 NA
ATOM     15  H   UNL     1       3.306   2.256  19.504  0.00  0.00    +0.000 HD
ATOM     16  H   UNL     1       4.920   1.920  19.188  0.00  0.00    +0.000 HD
ENDBRANCH  13  14
ENDBRANCH   6  13
TORSDOF 4
ENDMDL
MODEL 9
REMARK VINA RESULT:      -4.8      1.572      4.242
REMARK  Name = 
REMARK  7 active torsions:
REMARK  status: ('A' for Active; 'I' for Inactive)
REMARK    1  A    between atoms: C_1  and  N_2
REMARK    2  A    between atoms: N_2  and  C_3
REMARK    3  A    between atoms: C_7  and  N_8
REMARK    4  A    between atoms: N_8  and  C_9
REMARK    5  A    between atoms: N_8  and  C_10
REMARK    6  A    between atoms: C_11  and  C_12
REMARK    7  A    between atoms: C_12  and  N_13
REMARK                            x       y       z     vdW  Elec       q    Type
REMARK                         _______ _______ _______ _____ _____    ______ ____
ROOT
ATOM      1  C   UNL     1       2.986   5.167  19.276  0.00  0.00    +0.000 A 
ATOM      2  C   UNL     1       2.712   6.517  19.006  0.00  0.00    +0.000 A 
ATOM      3  N   UNL     1       3.368   7.186  18.048  0.00  0.00    +0.000 NA
ATOM      4  C   UNL     1       4.312   6.614  17.283  0.00  0.00    +0.000 A 
ATOM      5  C   UNL     1       4.682   5.259  17.430  0.00  0.00    +0.000 A 
ATOM      6  C   UNL     1       3.986   4.486  18.463  0.00  0.00    +0.000 A 
ENDROOT
BRANCH   1   8
ATOM      7  C   UNL     1       0.977   3.847  20.132  0.00  0.00    +0.000 C 
ATOM      8  N   UNL     1       2.229   4.549  20.337  0.00  0.00    +0.000 N 
ATOM      9  H   UNL     1       2.534   4.551  21.304  0.00  0.00    +0.000 HD
ENDBRANCH   1   8
BRANCH   5  10
ATOM     10  N   UNL     1       5.743   4.771  16.542  0.00  0.00    +0.000 N 
ATOM     11  C   UNL     1       5.448   4.360  15.166  0.00  0.00    +0.000 C 
ATOM     12  C   UNL     1       7.157   4.592  16.866  0.00  0.00    +0.000 C 
ENDBRANCH   5  10
BRANCH   6  13
ATOM     13  C   UNL     1       4.334   2.994  18.600  0.00  0.00    +0.000 C 
BRANCH  13  14
ATOM     14  N   UNL     1       4.867   2.511  19.862  0.00  0.00    +0.000 NA
ATOM     15  H   UNL     1       4.474   1.567  20.067  0.00  0.00    +0.000 HD
ATOM     16  H   UNL     1       4.544   3.149  20.625  0.00  0.00    +0.000 HD
ENDBRANCH  13  14
ENDBRANCH   6  13
TORSDOF 4
ENDMDL
