MODEL 1
REMARK VINA RESULT:      -8.4      0.000      0.000
REMARK  Name = 
REMARK  1 active torsions:
REMARK  status: ('A' for Active; 'I' for Inactive)
REMARK    1  A    between atoms: C_2  and  C_3
REMARK                            x       y       z     vdW  Elec       q    Type
REMARK                         _______ _______ _______ _____ _____    ______ ____
ROOT
ATOM      1  C   UNL     1       5.077   4.012  18.077  0.00  0.00    +0.000 C 
ATOM      2  C   UNL     1       5.821   4.243  16.742  0.00  0.00    +0.000 C 
ATOM      3  C   UNL     1       5.262   5.472  15.999  0.00  0.00    +0.000 C 
ATOM      4  C   UNL     1       5.372   6.724  16.884  0.00  0.00    +0.000 C 
ATOM      5  C   UNL     1       6.855   6.974  17.201  0.00  0.00    +0.000 C 
ATOM      6  C   UNL     1       7.441   5.762  17.944  0.00  0.00    +0.000 C 
ATOM      7  C   UNL     1       7.305   4.508  17.058  0.00  0.00    +0.000 C 
ATOM      8  C   UNL     1       6.657   5.551  19.254  0.00  0.00    +0.000 C 
ATOM      9  C   UNL     1       5.160   5.287  18.946  0.00  0.00    +0.000 C 
ATOM     10  C   UNL     1       4.604   6.503  18.197  0.00  0.00    +0.000 C 
ENDROOT
BRANCH   1  12
ATOM     11  O   UNL     1       3.112   3.579  16.741  0.00  0.00    +0.000 OA
ATOM     12  C   UNL     1       3.653   3.479  17.833  0.00  0.00    +0.000 C 
ATOM     13  N   UNL     1       3.026   2.829  18.893  0.00  0.00    +0.000 N 
ATOM     14  C   UNL     1       3.575   2.682  20.237  0.00  0.00    +0.000 C 
ATOM     15  C   UNL     1       2.647   3.319  21.267  0.00  0.00    +0.000 C 
ATOM     16  C   UNL     1       1.236   2.755  21.147  0.00  0.00    +0.000 C 
ATOM     17  C   UNL     1       0.706   2.946  19.728  0.00  0.00    +0.000 C 
ATOM     18  C   UNL     1       1.662   2.323  18.708  0.00  0.00    +0.000 C 
ENDBRANCH   1  12
TORSDOF 1
ENDMDL
MODEL 2
REMARK VINA RESULT:      -8.2      1.721      5.518
REMARK  Name = 
REMARK  1 active torsions:
REMARK  status: ('A' for Active; 'I' for Inactive)
REMARK    1  A    between atoms: C_2  and  C_3
REMARK                            x       y       z     vdW  Elec       q    Type
REMARK                         _______ _______ _______ _____ _____    ______ ____
ROOT
ATOM      1  C   UNL     1       3.824   3.743  18.329  0.00  0.00    +0.000 C 
ATOM      2  C   UNL     1       3.237   2.483  19.004  0.00  0.00    +0.000 C 
ATOM      3  C   UNL     1       2.976   2.725  20.503  0.00  0.00    +0.000 C 
ATOM      4  C   UNL     1       2.020   3.915  20.691  0.00  0.00    +0.000 C 
ATOM      5  C   UNL     1       0.684   3.586  20.007  0.00  0.00    +0.000 C 
ATOM      6  C   UNL     1       0.913   3.339  18.506  0.00  0.00    +0.000 C 
ATOM      7  C   UNL     1       1.889   2.160  18.329  0.00  0.00    +0.000 C 
ATOM      8  C   UNL     1       1.522   4.608  17.877  0.00  0.00    +0.000 C 
ATOM      9  C   UNL     1       2.877   4.943  18.553  0.00  0.00    +0.000 C 
ATOM     10  C   UNL     1       2.623   5.174  20.047  0.00  0.00    +0.000 C 
ENDROOT
BRANCH   1  12
ATOM     11  O   UNL     1       5.745   3.444  19.762  0.00  0.00    +0.000 OA
ATOM     12  C   UNL     1       5.285   3.973  18.761  0.00  0.00    +0.000 C 
ATOM     13  N   UNL     1       6.076   4.766  17.933  0.00  0.00    +0.000 N 
ATOM     14  C   UNL     1       5.615   5.459  16.736  0.00  0.00    +0.000 C 
ATOM     15  C   UNL     1       5.840   6.963  16.868  0.00  0.00    +0.000 C 
ATOM     16  C   UNL     1       7.297   7.266  17.194  0.00  0.00    +0.000 C 
ATOM     17  C   UNL     1       7.724   6.526  18.460  0.00  0.00    +0.000 C 
ATOM     18  C   UNL     1       7.467   5.023  18.318  0.00  0.00    +0.000 C 
ENDBRANCH   1  12
TORSDOF 1
ENDMDL
MODEL 3
REMARK VINA RESULT:      -7.9      1.732      5.645
REMARK  Name = 
REMARK  1 active torsions:
REMARK  status: ('A' for Active; 'I' for Inactive)
REMARK    1  A    between atoms: C_2  and  C_3
REMARK                            x       y       z     vdW  Elec       q    Type
REMARK                         _______ _______ _______ _____ _____    ______ ____
ROOT
ATOM      1  C   UNL     1       3.571   3.708  18.234  0.00  0.00    +0.000 C 
ATOM      2  C   UNL     1       3.429   2.485  19.169  0.00  0.00    +0.000 C 
ATOM      3  C   UNL     1       3.363   2.920  20.647  0.00  0.00    +0.000 C 
ATOM      4  C   UNL     1       2.187   3.886  20.864  0.00  0.00    +0.000 C 
ATOM      5  C   UNL     1       0.881   3.160  20.506  0.00  0.00    +0.000 C 
ATOM      6  C   UNL     1       0.918   2.714  19.034  0.00  0.00    +0.000 C 
ATOM      7  C   UNL     1       2.113   1.764  18.822  0.00  0.00    +0.000 C 
ATOM      8  C   UNL     1       1.084   3.957  18.139  0.00  0.00    +0.000 C 
ATOM      9  C   UNL     1       2.407   4.692  18.485  0.00  0.00    +0.000 C 
ATOM     10  C   UNL     1       2.348   5.116  19.957  0.00  0.00    +0.000 C 
ENDROOT
BRANCH   1  12
ATOM     11  O   UNL     1       5.357   4.889  19.351  0.00  0.00    +0.000 OA
ATOM     12  C   UNL     1       4.980   4.323  18.335  0.00  0.00    +0.000 C 
ATOM     13  N   UNL     1       5.826   4.159  17.241  0.00  0.00    +0.000 N 
ATOM     14  C   UNL     1       5.461   3.524  15.979  0.00  0.00    +0.000 C 
ATOM     15  C   UNL     1       5.639   4.498  14.819  0.00  0.00    +0.000 C 
ATOM     16  C   UNL     1       7.052   5.067  14.800  0.00  0.00    +0.000 C 
ATOM     17  C   UNL     1       7.377   5.730  16.137  0.00  0.00    +0.000 C 
ATOM     18  C   UNL     1       7.169   4.745  17.290  0.00  0.00    +0.000 C 
ENDBRANCH   1  12
TORSDOF 1
ENDMDL
MODEL 4
REMARK VINA RESULT:      -7.8      1.688      5.568
REMARK  Name = 
REMARK  1 active torsions:
REMARK  status: ('A' for Active; 'I' for Inactive)
REMARK    1  A    between atoms: C_2  and  C_3
REMARK                            x       y       z     vdW  Elec       q    Type
REMARK                         _______ _______ _______ _____ _____    ______ ____
ROOT
ATOM      1  C   UNL     1       3.565   4.493  18.869  0.00  0.00    +0.000 C 
ATOM      2  C   UNL     1       2.978   3.739  17.655  0.00  0.00    +0.000 C 
ATOM      3  C   UNL     1       3.028   2.214  17.869  0.00  0.00    +0.000 C 
ATOM      4  C   UNL     1       2.261   1.832  19.146  0.00  0.00    +0.000 C 
ATOM      5  C   UNL     1       0.793   2.257  18.984  0.00  0.00    +0.000 C 
ATOM      6  C   UNL     1       0.711   3.777  18.768  0.00  0.00    +0.000 C 
ATOM      7  C   UNL     1       1.502   4.153  17.500  0.00  0.00    +0.000 C 
ATOM      8  C   UNL     1       1.328   4.490  19.987  0.00  0.00    +0.000 C 
ATOM      9  C   UNL     1       2.814   4.076  20.154  0.00  0.00    +0.000 C 
ATOM     10  C   UNL     1       2.868   2.557  20.356  0.00  0.00    +0.000 C 
ENDROOT
BRANCH   1  12
ATOM     11  O   UNL     1       5.629   3.537  19.681  0.00  0.00    +0.000 OA
ATOM     12  C   UNL     1       5.097   4.341  18.929  0.00  0.00    +0.000 C 
ATOM     13  N   UNL     1       5.848   5.118  18.051  0.00  0.00    +0.000 N 
ATOM     14  C   UNL     1       5.310   6.120  17.138  0.00  0.00    +0.000 C 
ATOM     15  C   UNL     1       5.913   7.490  17.431  0.00  0.00    +0.000 C 
ATOM     16  C   UNL     1       7.436   7.430  17.402  0.00  0.00    +0.000 C 
ATOM     17  C   UNL     1       7.945   6.377  18.383  0.00  0.00    +0.000 C 
ATOM     18  C   UNL     1       7.311   5.015  18.089  0.00  0.00    +0.000 C 
ENDBRANCH   1  12
TORSDOF 1
ENDMDL
MODEL 5
REMARK VINA RESULT:      -7.6      1.597      2.768
REMARK  Name = 
REMARK  1 active torsions:
REMARK  status: ('A' for Active; 'I' for Inactive)
REMARK    1  A    between atoms: C_2  and  C_3
REMARK                            x       y       z     vdW  Elec       q    Type
REMARK                         _______ _______ _______ _____ _____    ______ ____
ROOT
ATOM      1  C   UNL     1       4.160   5.282  17.266  0.00  0.00    +0.000 C 
ATOM      2  C   UNL     1       4.877   6.569  16.799  0.00  0.00    +0.000 C 
ATOM      3  C   UNL     1       6.231   6.742  17.516  0.00  0.00    +0.000 C 
ATOM      4  C   UNL     1       7.127   5.519  17.261  0.00  0.00    +0.000 C 
ATOM      5  C   UNL     1       7.382   5.402  15.750  0.00  0.00    +0.000 C 
ATOM      6  C   UNL     1       6.047   5.228  15.007  0.00  0.00    +0.000 C 
ATOM      7  C   UNL     1       5.148   6.448  15.287  0.00  0.00    +0.000 C 
ATOM      8  C   UNL     1       5.353   3.950  15.518  0.00  0.00    +0.000 C 
ATOM      9  C   UNL     1       5.080   4.062  17.041  0.00  0.00    +0.000 C 
ATOM     10  C   UNL     1       6.424   4.245  17.755  0.00  0.00    +0.000 C 
ENDROOT
BRANCH   1  12
ATOM     11  O   UNL     1       4.248   6.039  19.557  0.00  0.00    +0.000 OA
ATOM     12  C   UNL     1       3.619   5.437  18.700  0.00  0.00    +0.000 C 
ATOM     13  N   UNL     1       2.357   4.910  18.965  0.00  0.00    +0.000 N 
ATOM     14  C   UNL     1       1.542   4.155  18.020  0.00  0.00    +0.000 C 
ATOM     15  C   UNL     1       1.239   2.764  18.567  0.00  0.00    +0.000 C 
ATOM     16  C   UNL     1       0.602   2.851  19.948  0.00  0.00    +0.000 C 
ATOM     17  C   UNL     1       1.501   3.639  20.899  0.00  0.00    +0.000 C 
ATOM     18  C   UNL     1       1.814   5.022  20.322  0.00  0.00    +0.000 C 
ENDBRANCH   1  12
TORSDOF 1
ENDMDL
MODEL 6
REMARK VINA RESULT:      -7.5      1.413      5.446
REMARK  Name = 
REMARK  1 active torsions:
REMARK  status: ('A' for Active; 'I' for Inactive)
REMARK    1  A    between atoms: C_2  and  C_3
REMARK                            x       y       z     vdW  Elec       q    Type
REMARK                         _______ _______ _______ _____ _____    ______ ____
ROOT
ATOM      1  C   UNL     1       3.706   3.897  18.996  0.00  0.00    +0.000 C 
ATOM      2  C   UNL     1       2.439   4.782  18.944  0.00  0.00    +0.000 C 
ATOM      3  C   UNL     1       1.290   4.064  18.210  0.00  0.00    +0.000 C 
ATOM      4  C   UNL     1       0.969   2.729  18.901  0.00  0.00    +0.000 C 
ATOM      5  C   UNL     1       0.527   3.015  20.345  0.00  0.00    +0.000 C 
ATOM      6  C   UNL     1       1.657   3.732  21.104  0.00  0.00    +0.000 C 
ATOM      7  C   UNL     1       1.986   5.058  20.391  0.00  0.00    +0.000 C 
ATOM      8  C   UNL     1       2.906   2.829  21.111  0.00  0.00    +0.000 C 
ATOM      9  C   UNL     1       3.368   2.543  19.658  0.00  0.00    +0.000 C 
ATOM     10  C   UNL     1       2.222   1.839  18.922  0.00  0.00    +0.000 C 
ENDROOT
BRANCH   1  12
ATOM     11  O   UNL     1       4.271   2.792  16.924  0.00  0.00    +0.000 OA
ATOM     12  C   UNL     1       4.371   3.799  17.611  0.00  0.00    +0.000 C 
ATOM     13  N   UNL     1       5.046   4.927  17.147  0.00  0.00    +0.000 N 
ATOM     14  C   UNL     1       5.242   6.161  17.899  0.00  0.00    +0.000 C 
ATOM     15  C   UNL     1       6.729   6.457  18.064  0.00  0.00    +0.000 C 
ATOM     16  C   UNL     1       7.431   6.478  16.712  0.00  0.00    +0.000 C 
ATOM     17  C   UNL     1       7.205   5.160  15.974  0.00  0.00    +0.000 C 
ATOM     18  C   UNL     1       5.708   4.868  15.840  0.00  0.00    +0.000 C 
ENDBRANCH   1  12
TORSDOF 1
ENDMDL
MODEL 7
REMARK VINA RESULT:      -7.5      1.403      5.421
REMARK  Name = 
REMARK  1 active torsions:
REMARK  status: ('A' for Active; 'I' for Inactive)
REMARK    1  A    between atoms: C_2  and  C_3
REMARK                            x       y       z     vdW  Elec       q    Type
REMARK                         _______ _______ _______ _____ _____    ______ ____
ROOT
ATOM      1  C   UNL     1       3.602   3.841  18.882  0.00  0.00    +0.000 C 
ATOM      2  C   UNL     1       2.447   4.750  19.361  0.00  0.00    +0.000 C 
ATOM      3  C   UNL     1       1.078   4.162  18.967  0.00  0.00    +0.000 C 
ATOM      4  C   UNL     1       0.915   2.752  19.557  0.00  0.00    +0.000 C 
ATOM      5  C   UNL     1       0.987   2.848  21.089  0.00  0.00    +0.000 C 
ATOM      6  C   UNL     1       2.346   3.431  21.513  0.00  0.00    +0.000 C 
ATOM      7  C   UNL     1       2.508   4.835  20.898  0.00  0.00    +0.000 C 
ATOM      8  C   UNL     1       3.469   2.511  20.995  0.00  0.00    +0.000 C 
ATOM      9  C   UNL     1       3.412   2.416  19.448  0.00  0.00    +0.000 C 
ATOM     10  C   UNL     1       2.046   1.842  19.053  0.00  0.00    +0.000 C 
ENDROOT
BRANCH   1  12
ATOM     11  O   UNL     1       2.957   3.415  16.593  0.00  0.00    +0.000 OA
ATOM     12  C   UNL     1       3.772   3.920  17.353  0.00  0.00    +0.000 C 
ATOM     13  N   UNL     1       4.863   4.638  16.870  0.00  0.00    +0.000 N 
ATOM     14  C   UNL     1       5.900   5.252  17.691  0.00  0.00    +0.000 C 
ATOM     15  C   UNL     1       7.271   4.685  17.335  0.00  0.00    +0.000 C 
ATOM     16  C   UNL     1       7.546   4.827  15.843  0.00  0.00    +0.000 C 
ATOM     17  C   UNL     1       6.439   4.158  15.032  0.00  0.00    +0.000 C 
ATOM     18  C   UNL     1       5.070   4.722  15.420  0.00  0.00    +0.000 C 
ENDBRANCH   1  12
TORSDOF 1
ENDMDL
MODEL 8
REMARK VINA RESULT:      -7.4      1.449      2.585
REMARK  Name = 
REMARK  1 active torsions:
REMARK  status: ('A' for Active; 'I' for Inactive)
REMARK    1  A    between atoms: C_2  and  C_3
REMARK                            x       y       z     vdW  Elec       q    Type
REMARK                         _______ _______ _______ _____ _____    ______ ____
ROOT
ATOM      1  C   UNL     1       5.065   5.304  18.322  0.00  0.00    +0.000 C 
ATOM      2  C   UNL     1       6.597   5.503  18.390  0.00  0.00    +0.000 C 
ATOM      3  C   UNL     1       7.337   4.385  17.630  0.00  0.00    +0.000 C 
ATOM      4  C   UNL     1       6.876   4.344  16.164  0.00  0.00    +0.000 C 
ATOM      5  C   UNL     1       7.212   5.691  15.505  0.00  0.00    +0.000 C 
ATOM      6  C   UNL     1       6.486   6.829  16.242  0.00  0.00    +0.000 C 
ATOM      7  C   UNL     1       6.937   6.847  17.716  0.00  0.00    +0.000 C 
ATOM      8  C   UNL     1       4.966   6.580  16.174  0.00  0.00    +0.000 C 
ATOM      9  C   UNL     1       4.615   5.227  16.847  0.00  0.00    +0.000 C 
ATOM     10  C   UNL     1       5.359   4.113  16.100  0.00  0.00    +0.000 C 
ENDROOT
BRANCH   1  12
ATOM     11  O   UNL     1       5.435   3.386  19.742  0.00  0.00    +0.000 OA
ATOM     12  C   UNL     1       4.621   4.122  19.204  0.00  0.00    +0.000 C 
ATOM     13  N   UNL     1       3.253   3.960  19.409  0.00  0.00    +0.000 N 
ATOM     14  C   UNL     1       2.205   4.767  18.793  0.00  0.00    +0.000 C 
ATOM     15  C   UNL     1       1.265   3.889  17.972  0.00  0.00    +0.000 C 
ATOM     16  C   UNL     1       0.706   2.753  18.820  0.00  0.00    +0.000 C 
ATOM     17  C   UNL     1       1.842   1.934  19.429  0.00  0.00    +0.000 C 
ATOM     18  C   UNL     1       2.787   2.836  20.228  0.00  0.00    +0.000 C 
ENDBRANCH   1  12
TORSDOF 1
ENDMDL
MODEL 9
REMARK VINA RESULT:      -7.3      3.083      5.328
REMARK  Name = 
REMARK  1 active torsions:
REMARK  status: ('A' for Active; 'I' for Inactive)
REMARK    1  A    between atoms: C_2  and  C_3
REMARK                            x       y       z     vdW  Elec       q    Type
REMARK                         _______ _______ _______ _____ _____    ______ ____
ROOT
ATOM      1  C   UNL     1       2.751   5.197  18.933  0.00  0.00    +0.000 C 
ATOM      2  C   UNL     1       3.774   4.273  19.633  0.00  0.00    +0.000 C 
ATOM      3  C   UNL     1       3.065   3.220  20.507  0.00  0.00    +0.000 C 
ATOM      4  C   UNL     1       2.100   2.383  19.653  0.00  0.00    +0.000 C 
ATOM      5  C   UNL     1       2.908   1.656  18.567  0.00  0.00    +0.000 C 
ATOM      6  C   UNL     1       3.628   2.683  17.676  0.00  0.00    +0.000 C 
ATOM      7  C   UNL     1       4.575   3.532  18.545  0.00  0.00    +0.000 C 
ATOM      8  C   UNL     1       2.576   3.598  17.018  0.00  0.00    +0.000 C 
ATOM      9  C   UNL     1       1.762   4.346  18.107  0.00  0.00    +0.000 C 
ATOM     10  C   UNL     1       1.064   3.300  18.985  0.00  0.00    +0.000 C 
ENDROOT
BRANCH   1  12
ATOM     11  O   UNL     1       1.609   5.763  20.985  0.00  0.00    +0.000 OA
ATOM     12  C   UNL     1       2.100   6.164  19.939  0.00  0.00    +0.000 C 
ATOM     13  N   UNL     1       2.141   7.523  19.634  0.00  0.00    +0.000 N 
ATOM     14  C   UNL     1       2.678   8.096  18.405  0.00  0.00    +0.000 C 
ATOM     15  C   UNL     1       1.603   8.892  17.670  0.00  0.00    +0.000 C 
ATOM     16  C   UNL     1       0.987   9.943  18.585  0.00  0.00    +0.000 C 
ATOM     17  C   UNL     1       0.430   9.289  19.848  0.00  0.00    +0.000 C 
ATOM     18  C   UNL     1       1.516   8.475  20.557  0.00  0.00    +0.000 C 
ENDBRANCH   1  12
TORSDOF 1
ENDMDL
