MODEL 1
REMARK VINA RESULT:      -8.5      0.000      0.000
REMARK  Name = 
REMARK  5 active torsions:
REMARK  status: ('A' for Active; 'I' for Inactive)
REMARK    1  A    between atoms: N_1  and  C_2
REMARK    2  A    between atoms: C_2  and  C_4
REMARK    3  A    between atoms: C_7  and  N_8
REMARK    4  A    between atoms: C_10  and  C_11
REMARK    5  A    between atoms: C_16  and  C_17
REMARK                            x       y       z     vdW  Elec       q    Type
REMARK                         _______ _______ _______ _____ _____    ______ ____
ROOT
ATOM      1  N   UNL     1       5.392   4.105  15.758  0.00  0.00    +0.000 N 
ATOM      2  N   UNL     1       5.301   3.375  14.614  0.00  0.00    +0.000 NA
ATOM      3  C   UNL     1       6.159   3.954  13.759  0.00  0.00    +0.000 A 
ATOM      4  C   UNL     1       6.934   4.936  14.422  0.00  0.00    +0.000 A 
ATOM      5  C   UNL     1       6.495   4.964  15.736  0.00  0.00    +0.000 A 
ENDROOT
BRANCH   1   9
ATOM      6  C   UNL     1       2.605   3.554  18.903  0.00  0.00    +0.000 A 
ATOM      7  C   UNL     1       3.260   2.455  18.328  0.00  0.00    +0.000 A 
ATOM      8  C   UNL     1       4.146   2.634  17.256  0.00  0.00    +0.000 A 
ATOM      9  C   UNL     1       4.409   3.921  16.772  0.00  0.00    +0.000 A 
ATOM     10  C   UNL     1       3.713   5.015  17.305  0.00  0.00    +0.000 A 
ATOM     11  C   UNL     1       2.825   4.833  18.368  0.00  0.00    +0.000 A 
BRANCH   6  12
ATOM     12  C   UNL     1       1.690   3.363  20.065  0.00  0.00    +0.000 C 
ATOM     13  S   UNL     1       2.165   3.212  21.661  0.00  0.00    +0.000 S 
BRANCH  12  14
ATOM     14  N   UNL     1       0.349   3.290  19.785  0.00  0.00    +0.000 N 
ATOM     15  H   UNL     1      -0.309   3.530  20.519  0.00  0.00    +0.000 HD
ATOM     16  H   UNL     1      -0.029   2.880  18.941  0.00  0.00    +0.000 HD
ENDBRANCH  12  14
ENDBRANCH   6  12
ENDBRANCH   1   9
BRANCH   5  17
ATOM     17  C   UNL     1       7.077   5.688  16.880  0.00  0.00    +0.000 A 
ATOM     18  C   UNL     1       7.473   4.991  18.030  0.00  0.00    +0.000 A 
ATOM     19  C   UNL     1       8.060   5.660  19.107  0.00  0.00    +0.000 A 
ATOM     20  C   UNL     1       8.273   7.035  19.047  0.00  0.00    +0.000 A 
ATOM     21  C   UNL     1       7.857   7.748  17.927  0.00  0.00    +0.000 A 
ATOM     22  C   UNL     1       7.233   7.084  16.870  0.00  0.00    +0.000 A 
ENDBRANCH   5  17
BRANCH   3  23
ATOM     23  C   UNL     1       6.278   3.568  12.309  0.00  0.00    +0.000 C 
ATOM     24  F   UNL     1       7.143   4.342  11.600  0.00  0.00    +0.000 F 
ATOM     25  F   UNL     1       6.710   2.282  12.174  0.00  0.00    +0.000 F 
ATOM     26  F   UNL     1       5.079   3.634  11.671  0.00  0.00    +0.000 F 
ENDBRANCH   3  23
TORSDOF 5
ENDMDL
MODEL 2
REMARK VINA RESULT:      -8.4      0.259      1.628
REMARK  Name = 
REMARK  5 active torsions:
REMARK  status: ('A' for Active; 'I' for Inactive)
REMARK    1  A    between atoms: N_1  and  C_2
REMARK    2  A    between atoms: C_2  and  C_4
REMARK    3  A    between atoms: C_7  and  N_8
REMARK    4  A    between atoms: C_10  and  C_11
REMARK    5  A    between atoms: C_16  and  C_17
REMARK                            x       y       z     vdW  Elec       q    Type
REMARK                         _______ _______ _______ _____ _____    ______ ____
ROOT
ATOM      1  N   UNL     1       5.376   3.998  15.860  0.00  0.00    +0.000 N 
ATOM      2  N   UNL     1       5.224   3.271  14.721  0.00  0.00    +0.000 NA
ATOM      3  C   UNL     1       6.003   3.878  13.810  0.00  0.00    +0.000 A 
ATOM      4  C   UNL     1       6.796   4.878  14.424  0.00  0.00    +0.000 A 
ATOM      5  C   UNL     1       6.451   4.888  15.766  0.00  0.00    +0.000 A 
ENDROOT
BRANCH   1   9
ATOM      6  C   UNL     1       2.551   3.338  18.949  0.00  0.00    +0.000 A 
ATOM      7  C   UNL     1       2.727   4.618  18.403  0.00  0.00    +0.000 A 
ATOM      8  C   UNL     1       3.694   4.845  17.415  0.00  0.00    +0.000 A 
ATOM      9  C   UNL     1       4.473   3.783  16.940  0.00  0.00    +0.000 A 
ATOM     10  C   UNL     1       4.341   2.515  17.523  0.00  0.00    +0.000 A 
ATOM     11  C   UNL     1       3.382   2.293  18.513  0.00  0.00    +0.000 A 
BRANCH   6  12
ATOM     12  C   UNL     1       1.497   3.094  19.976  0.00  0.00    +0.000 C 
ATOM     13  S   UNL     1       1.761   2.928  21.618  0.00  0.00    +0.000 S 
BRANCH  12  14
ATOM     14  N   UNL     1       0.208   2.983  19.518  0.00  0.00    +0.000 N 
ATOM     15  H   UNL     1       0.060   2.871  18.521  0.00  0.00    +0.000 HD
ATOM     16  H   UNL     1      -0.609   3.143  20.092  0.00  0.00    +0.000 HD
ENDBRANCH  12  14
ENDBRANCH   6  12
ENDBRANCH   1   9
BRANCH   5  17
ATOM     17  C   UNL     1       7.093   5.623  16.869  0.00  0.00    +0.000 A 
ATOM     18  C   UNL     1       7.274   7.011  16.782  0.00  0.00    +0.000 A 
ATOM     19  C   UNL     1       7.849   7.726  17.837  0.00  0.00    +0.000 A 
ATOM     20  C   UNL     1       8.239   7.067  19.000  0.00  0.00    +0.000 A 
ATOM     21  C   UNL     1       8.097   5.686  19.091  0.00  0.00    +0.000 A 
ATOM     22  C   UNL     1       7.561   4.969  18.020  0.00  0.00    +0.000 A 
ENDBRANCH   5  17
BRANCH   3  23
ATOM     23  C   UNL     1       6.030   3.501  12.353  0.00  0.00    +0.000 C 
ATOM     24  F   UNL     1       6.192   2.170  12.131  0.00  0.00    +0.000 F 
ATOM     25  F   UNL     1       4.873   3.860  11.729  0.00  0.00    +0.000 F 
ATOM     26  F   UNL     1       7.033   4.135  11.689  0.00  0.00    +0.000 F 
ENDBRANCH   3  23
TORSDOF 5
ENDMDL
MODEL 3
REMARK VINA RESULT:      -8.4      0.236      1.012
REMARK  Name = 
REMARK  5 active torsions:
REMARK  status: ('A' for Active; 'I' for Inactive)
REMARK    1  A    between atoms: N_1  and  C_2
REMARK    2  A    between atoms: C_2  and  C_4
REMARK    3  A    between atoms: C_7  and  N_8
REMARK    4  A    between atoms: C_10  and  C_11
REMARK    5  A    between atoms: C_16  and  C_17
REMARK                            x       y       z     vdW  Elec       q    Type
REMARK                         _______ _______ _______ _____ _____    ______ ____
ROOT
ATOM      1  N   UNL     1       5.429   4.053  15.829  0.00  0.00    +0.000 N 
ATOM      2  N   UNL     1       5.323   3.320  14.689  0.00  0.00    +0.000 NA
ATOM      3  C   UNL     1       6.109   3.945  13.796  0.00  0.00    +0.000 A 
ATOM      4  C   UNL     1       6.861   4.965  14.426  0.00  0.00    +0.000 A 
ATOM      5  C   UNL     1       6.483   4.969  15.759  0.00  0.00    +0.000 A 
ENDROOT
BRANCH   1   9
ATOM      6  C   UNL     1       2.547   3.329  18.851  0.00  0.00    +0.000 A 
ATOM      7  C   UNL     1       2.718   4.616  18.320  0.00  0.00    +0.000 A 
ATOM      8  C   UNL     1       3.703   4.864  17.355  0.00  0.00    +0.000 A 
ATOM      9  C   UNL     1       4.506   3.816  16.888  0.00  0.00    +0.000 A 
ATOM     10  C   UNL     1       4.378   2.541  17.457  0.00  0.00    +0.000 A 
ATOM     11  C   UNL     1       3.400   2.298  18.424  0.00  0.00    +0.000 A 
BRANCH   6  12
ATOM     12  C   UNL     1       1.475   3.063  19.852  0.00  0.00    +0.000 C 
ATOM     13  S   UNL     1       1.694   2.954  21.506  0.00  0.00    +0.000 S 
BRANCH  12  14
ATOM     14  N   UNL     1       0.207   2.877  19.360  0.00  0.00    +0.000 N 
ATOM     15  H   UNL     1       0.106   2.505  18.422  0.00  0.00    +0.000 HD
ATOM     16  H   UNL     1      -0.629   3.215  19.817  0.00  0.00    +0.000 HD
ENDBRANCH  12  14
ENDBRANCH   6  12
ENDBRANCH   1   9
BRANCH   5  17
ATOM     17  C   UNL     1       7.080   5.721  16.877  0.00  0.00    +0.000 A 
ATOM     18  C   UNL     1       7.496   5.052  18.036  0.00  0.00    +0.000 A 
ATOM     19  C   UNL     1       8.096   5.749  19.089  0.00  0.00    +0.000 A 
ATOM     20  C   UNL     1       8.302   7.123  18.994  0.00  0.00    +0.000 A 
ATOM     21  C   UNL     1       7.866   7.809  17.865  0.00  0.00    +0.000 A 
ATOM     22  C   UNL     1       7.229   7.117  16.832  0.00  0.00    +0.000 A 
ENDBRANCH   5  17
BRANCH   3  23
ATOM     23  C   UNL     1       6.180   3.567  12.341  0.00  0.00    +0.000 C 
ATOM     24  F   UNL     1       7.077   4.295  11.624  0.00  0.00    +0.000 F 
ATOM     25  F   UNL     1       6.531   2.259  12.186  0.00  0.00    +0.000 F 
ATOM     26  F   UNL     1       4.976   3.712  11.725  0.00  0.00    +0.000 F 
ENDBRANCH   3  23
TORSDOF 5
ENDMDL
MODEL 4
REMARK VINA RESULT:      -8.2      4.210      6.190
REMARK  Name = 
REMARK  5 active torsions:
REMARK  status: ('A' for Active; 'I' for Inactive)
REMARK    1  A    between atoms: N_1  and  C_2
REMARK    2  A    between atoms: C_2  and  C_4
REMARK    3  A    between atoms: C_7  and  N_8
REMARK    4  A    between atoms: C_10  and  C_11
REMARK    5  A    between atoms: C_16  and  C_17
REMARK                            x       y       z     vdW  Elec       q    Type
REMARK                         _______ _______ _______ _____ _____    ______ ____
ROOT
ATOM      1  N   UNL     1       3.939   6.314  18.463  0.00  0.00    +0.000 N 
ATOM      2  N   UNL     1       5.104   6.677  17.862  0.00  0.00    +0.000 NA
ATOM      3  C   UNL     1       5.954   5.665  18.106  0.00  0.00    +0.000 A 
ATOM      4  C   UNL     1       5.272   4.576  18.698  0.00  0.00    +0.000 A 
ATOM      5  C   UNL     1       3.951   4.968  18.844  0.00  0.00    +0.000 A 
ENDROOT
BRANCH   1   9
ATOM      6  C   UNL     1       1.021   9.335  19.030  0.00  0.00    +0.000 A 
ATOM      7  C   UNL     1       1.332   8.438  20.064  0.00  0.00    +0.000 A 
ATOM      8  C   UNL     1       2.263   7.411  19.860  0.00  0.00    +0.000 A 
ATOM      9  C   UNL     1       2.916   7.291  18.627  0.00  0.00    +0.000 A 
ATOM     10  C   UNL     1       2.567   8.148  17.574  0.00  0.00    +0.000 A 
ATOM     11  C   UNL     1       1.633   9.167  17.777  0.00  0.00    +0.000 A 
BRANCH   6  12
ATOM     12  C   UNL     1       0.056  10.447  19.262  0.00  0.00    +0.000 C 
ATOM     13  S   UNL     1      -0.471  10.980  20.756  0.00  0.00    +0.000 S 
BRANCH  12  14
ATOM     14  N   UNL     1      -0.446  11.068  18.146  0.00  0.00    +0.000 N 
ATOM     15  H   UNL     1       0.176  11.658  17.603  0.00  0.00    +0.000 HD
ATOM     16  H   UNL     1      -1.428  11.088  17.907  0.00  0.00    +0.000 HD
ENDBRANCH  12  14
ENDBRANCH   6  12
ENDBRANCH   1   9
BRANCH   5  17
ATOM     17  C   UNL     1       2.794   4.153  19.254  0.00  0.00    +0.000 A 
ATOM     18  C   UNL     1       2.515   3.957  20.614  0.00  0.00    +0.000 A 
ATOM     19  C   UNL     1       1.400   3.216  21.017  0.00  0.00    +0.000 A 
ATOM     20  C   UNL     1       0.541   2.670  20.067  0.00  0.00    +0.000 A 
ATOM     21  C   UNL     1       0.820   2.827  18.714  0.00  0.00    +0.000 A 
ATOM     22  C   UNL     1       1.957   3.532  18.314  0.00  0.00    +0.000 A 
ENDBRANCH   5  17
BRANCH   3  23
ATOM     23  C   UNL     1       7.418   5.704  17.754  0.00  0.00    +0.000 C 
ATOM     24  F   UNL     1       7.712   6.523  16.710  0.00  0.00    +0.000 F 
ATOM     25  F   UNL     1       8.168   6.134  18.808  0.00  0.00    +0.000 F 
ATOM     26  F   UNL     1       7.889   4.470  17.431  0.00  0.00    +0.000 F 
ENDBRANCH   3  23
TORSDOF 5
ENDMDL
MODEL 5
REMARK VINA RESULT:      -8.2      4.234      6.245
REMARK  Name = 
REMARK  5 active torsions:
REMARK  status: ('A' for Active; 'I' for Inactive)
REMARK    1  A    between atoms: N_1  and  C_2
REMARK    2  A    between atoms: C_2  and  C_4
REMARK    3  A    between atoms: C_7  and  N_8
REMARK    4  A    between atoms: C_10  and  C_11
REMARK    5  A    between atoms: C_16  and  C_17
REMARK                            x       y       z     vdW  Elec       q    Type
REMARK                         _______ _______ _______ _____ _____    ______ ____
ROOT
ATOM      1  N   UNL     1       3.938   6.306  18.512  0.00  0.00    +0.000 N 
ATOM      2  N   UNL     1       5.115   6.651  17.925  0.00  0.00    +0.000 NA
ATOM      3  C   UNL     1       5.950   5.632  18.186  0.00  0.00    +0.000 A 
ATOM      4  C   UNL     1       5.247   4.554  18.775  0.00  0.00    +0.000 A 
ATOM      5  C   UNL     1       3.929   4.962  18.900  0.00  0.00    +0.000 A 
ENDROOT
BRANCH   1   9
ATOM      6  C   UNL     1       1.047   9.362  19.023  0.00  0.00    +0.000 A 
ATOM      7  C   UNL     1       1.326   8.461  20.061  0.00  0.00    +0.000 A 
ATOM      8  C   UNL     1       2.248   7.422  19.875  0.00  0.00    +0.000 A 
ATOM      9  C   UNL     1       2.925   7.295  18.656  0.00  0.00    +0.000 A 
ATOM     10  C   UNL     1       2.607   8.158  17.597  0.00  0.00    +0.000 A 
ATOM     11  C   UNL     1       1.683   9.188  17.782  0.00  0.00    +0.000 A 
BRANCH   6  12
ATOM     12  C   UNL     1       0.092  10.486  19.236  0.00  0.00    +0.000 C 
ATOM     13  S   UNL     1      -0.415  11.062  20.722  0.00  0.00    +0.000 S 
BRANCH  12  14
ATOM     14  N   UNL     1      -0.420  11.080  18.110  0.00  0.00    +0.000 N 
ATOM     15  H   UNL     1      -0.019  10.832  17.211  0.00  0.00    +0.000 HD
ATOM     16  H   UNL     1      -1.074  11.851  18.128  0.00  0.00    +0.000 HD
ENDBRANCH  12  14
ENDBRANCH   6  12
ENDBRANCH   1   9
BRANCH   5  17
ATOM     17  C   UNL     1       2.758   4.163  19.299  0.00  0.00    +0.000 A 
ATOM     18  C   UNL     1       1.939   3.575  18.324  0.00  0.00    +0.000 A 
ATOM     19  C   UNL     1       0.845   2.784  18.689  0.00  0.00    +0.000 A 
ATOM     20  C   UNL     1       0.561   2.558  20.034  0.00  0.00    +0.000 A 
ATOM     21  C   UNL     1       1.343   3.160  21.014  0.00  0.00    +0.000 A 
ATOM     22  C   UNL     1       2.409   3.983  20.647  0.00  0.00    +0.000 A 
ENDBRANCH   5  17
BRANCH   3  23
ATOM     23  C   UNL     1       7.419   5.652  17.854  0.00  0.00    +0.000 C 
ATOM     24  F   UNL     1       8.222   5.903  18.922  0.00  0.00    +0.000 F 
ATOM     25  F   UNL     1       7.825   4.459  17.335  0.00  0.00    +0.000 F 
ATOM     26  F   UNL     1       7.708   6.593  16.916  0.00  0.00    +0.000 F 
ENDBRANCH   3  23
TORSDOF 5
ENDMDL
MODEL 6
REMARK VINA RESULT:      -8.2      4.049      6.046
REMARK  Name = 
REMARK  5 active torsions:
REMARK  status: ('A' for Active; 'I' for Inactive)
REMARK    1  A    between atoms: N_1  and  C_2
REMARK    2  A    between atoms: C_2  and  C_4
REMARK    3  A    between atoms: C_7  and  N_8
REMARK    4  A    between atoms: C_10  and  C_11
REMARK    5  A    between atoms: C_16  and  C_17
REMARK                            x       y       z     vdW  Elec       q    Type
REMARK                         _______ _______ _______ _____ _____    ______ ____
ROOT
ATOM      1  N   UNL     1       3.837   6.343  18.191  0.00  0.00    +0.000 N 
ATOM      2  N   UNL     1       4.913   6.701  17.440  0.00  0.00    +0.000 NA
ATOM      3  C   UNL     1       5.767   5.667  17.537  0.00  0.00    +0.000 A 
ATOM      4  C   UNL     1       5.151   4.575  18.194  0.00  0.00    +0.000 A 
ATOM      5  C   UNL     1       3.872   4.988  18.534  0.00  0.00    +0.000 A 
ENDROOT
BRANCH   1   9
ATOM      6  C   UNL     1       1.092   9.391  19.257  0.00  0.00    +0.000 A 
ATOM      7  C   UNL     1       1.424   8.378  20.169  0.00  0.00    +0.000 A 
ATOM      8  C   UNL     1       2.296   7.345  19.799  0.00  0.00    +0.000 A 
ATOM      9  C   UNL     1       2.869   7.334  18.521  0.00  0.00    +0.000 A 
ATOM     10  C   UNL     1       2.495   8.312  17.589  0.00  0.00    +0.000 A 
ATOM     11  C   UNL     1       1.621   9.337  17.957  0.00  0.00    +0.000 A 
BRANCH   6  12
ATOM     12  C   UNL     1       0.192  10.507  19.666  0.00  0.00    +0.000 C 
ATOM     13  S   UNL     1       0.613  11.778  20.667  0.00  0.00    +0.000 S 
BRANCH  12  14
ATOM     14  N   UNL     1      -1.093  10.468  19.185  0.00  0.00    +0.000 N 
ATOM     15  H   UNL     1      -1.689  11.275  19.339  0.00  0.00    +0.000 HD
ATOM     16  H   UNL     1      -1.528   9.636  18.809  0.00  0.00    +0.000 HD
ENDBRANCH  12  14
ENDBRANCH   6  12
ENDBRANCH   1   9
BRANCH   5  17
ATOM     17  C   UNL     1       2.768   4.184  19.084  0.00  0.00    +0.000 A 
ATOM     18  C   UNL     1       1.816   3.612  18.227  0.00  0.00    +0.000 A 
ATOM     19  C   UNL     1       0.783   2.817  18.733  0.00  0.00    +0.000 A 
ATOM     20  C   UNL     1       0.694   2.570  20.100  0.00  0.00    +0.000 A 
ATOM     21  C   UNL     1       1.610   3.155  20.968  0.00  0.00    +0.000 A 
ATOM     22  C   UNL     1       2.615   3.982  20.465  0.00  0.00    +0.000 A 
ENDBRANCH   5  17
BRANCH   3  23
ATOM     23  C   UNL     1       7.166   5.689  16.983  0.00  0.00    +0.000 C 
ATOM     24  F   UNL     1       7.226   5.567  15.631  0.00  0.00    +0.000 F 
ATOM     25  F   UNL     1       7.804   6.852  17.297  0.00  0.00    +0.000 F 
ATOM     26  F   UNL     1       7.927   4.688  17.501  0.00  0.00    +0.000 F 
ENDBRANCH   3  23
TORSDOF 5
ENDMDL
MODEL 7
REMARK VINA RESULT:      -8.1      3.565      5.578
REMARK  Name = 
REMARK  5 active torsions:
REMARK  status: ('A' for Active; 'I' for Inactive)
REMARK    1  A    between atoms: N_1  and  C_2
REMARK    2  A    between atoms: C_2  and  C_4
REMARK    3  A    between atoms: C_7  and  N_8
REMARK    4  A    between atoms: C_10  and  C_11
REMARK    5  A    between atoms: C_16  and  C_17
REMARK                            x       y       z     vdW  Elec       q    Type
REMARK                         _______ _______ _______ _____ _____    ______ ____
ROOT
ATOM      1  N   UNL     1       3.689   5.705  17.783  0.00  0.00    +0.000 N 
ATOM      2  N   UNL     1       4.442   5.852  16.660  0.00  0.00    +0.000 NA
ATOM      3  C   UNL     1       5.186   4.736  16.588  0.00  0.00    +0.000 A 
ATOM      4  C   UNL     1       4.768   3.798  17.562  0.00  0.00    +0.000 A 
ATOM      5  C   UNL     1       3.739   4.396  18.271  0.00  0.00    +0.000 A 
ENDROOT
BRANCH   1   9
ATOM      6  C   UNL     1       1.453   9.001  19.231  0.00  0.00    +0.000 A 
ATOM      7  C   UNL     1       1.957   9.000  17.922  0.00  0.00    +0.000 A 
ATOM      8  C   UNL     1       2.736   7.930  17.460  0.00  0.00    +0.000 A 
ATOM      9  C   UNL     1       2.991   6.836  18.295  0.00  0.00    +0.000 A 
ATOM     10  C   UNL     1       2.538   6.859  19.622  0.00  0.00    +0.000 A 
ATOM     11  C   UNL     1       1.768   7.930  20.083  0.00  0.00    +0.000 A 
BRANCH   6  12
ATOM     12  C   UNL     1       0.596  10.124  19.708  0.00  0.00    +0.000 C 
ATOM     13  S   UNL     1      -0.703  10.774  18.880  0.00  0.00    +0.000 S 
BRANCH  12  14
ATOM     14  N   UNL     1       0.922  10.673  20.923  0.00  0.00    +0.000 N 
ATOM     15  H   UNL     1       0.184  10.794  21.609  0.00  0.00    +0.000 HD
ATOM     16  H   UNL     1       1.819  11.091  21.130  0.00  0.00    +0.000 HD
ENDBRANCH  12  14
ENDBRANCH   6  12
ENDBRANCH   1   9
BRANCH   5  17
ATOM     17  C   UNL     1       2.851   3.792  19.279  0.00  0.00    +0.000 A 
ATOM     18  C   UNL     1       3.366   3.371  20.513  0.00  0.00    +0.000 A 
ATOM     19  C   UNL     1       2.528   2.829  21.493  0.00  0.00    +0.000 A 
ATOM     20  C   UNL     1       1.161   2.711  21.258  0.00  0.00    +0.000 A 
ATOM     21  C   UNL     1       0.637   3.092  20.027  0.00  0.00    +0.000 A 
ATOM     22  C   UNL     1       1.482   3.595  19.036  0.00  0.00    +0.000 A 
ENDBRANCH   5  17
BRANCH   3  23
ATOM     23  C   UNL     1       6.284   4.531  15.579  0.00  0.00    +0.000 C 
ATOM     24  F   UNL     1       6.176   3.373  14.874  0.00  0.00    +0.000 F 
ATOM     25  F   UNL     1       6.311   5.541  14.665  0.00  0.00    +0.000 F 
ATOM     26  F   UNL     1       7.511   4.519  16.167  0.00  0.00    +0.000 F 
ENDBRANCH   3  23
TORSDOF 5
ENDMDL
MODEL 8
REMARK VINA RESULT:      -8.1      3.485      5.483
REMARK  Name = 
REMARK  5 active torsions:
REMARK  status: ('A' for Active; 'I' for Inactive)
REMARK    1  A    between atoms: N_1  and  C_2
REMARK    2  A    between atoms: C_2  and  C_4
REMARK    3  A    between atoms: C_7  and  N_8
REMARK    4  A    between atoms: C_10  and  C_11
REMARK    5  A    between atoms: C_16  and  C_17
REMARK                            x       y       z     vdW  Elec       q    Type
REMARK                         _______ _______ _______ _____ _____    ______ ____
ROOT
ATOM      1  N   UNL     1       3.710   5.702  17.773  0.00  0.00    +0.000 N 
ATOM      2  N   UNL     1       4.470   5.852  16.655  0.00  0.00    +0.000 NA
ATOM      3  C   UNL     1       5.204   4.729  16.577  0.00  0.00    +0.000 A 
ATOM      4  C   UNL     1       4.771   3.786  17.540  0.00  0.00    +0.000 A 
ATOM      5  C   UNL     1       3.745   4.388  18.250  0.00  0.00    +0.000 A 
ENDROOT
BRANCH   1   9
ATOM      6  C   UNL     1       1.499   9.006  19.240  0.00  0.00    +0.000 A 
ATOM      7  C   UNL     1       2.004   9.009  17.932  0.00  0.00    +0.000 A 
ATOM      8  C   UNL     1       2.775   7.937  17.463  0.00  0.00    +0.000 A 
ATOM      9  C   UNL     1       3.020   6.835  18.292  0.00  0.00    +0.000 A 
ATOM     10  C   UNL     1       2.565   6.853  19.618  0.00  0.00    +0.000 A 
ATOM     11  C   UNL     1       1.804   7.927  20.085  0.00  0.00    +0.000 A 
BRANCH   6  12
ATOM     12  C   UNL     1       0.650  10.133  19.723  0.00  0.00    +0.000 C 
ATOM     13  S   UNL     1       0.084  10.324  21.284  0.00  0.00    +0.000 S 
BRANCH  12  14
ATOM     14  N   UNL     1       0.297  11.079  18.793  0.00  0.00    +0.000 N 
ATOM     15  H   UNL     1       0.836  11.937  18.752  0.00  0.00    +0.000 HD
ATOM     16  H   UNL     1      -0.548  11.037  18.240  0.00  0.00    +0.000 HD
ENDBRANCH  12  14
ENDBRANCH   6  12
ENDBRANCH   1   9
BRANCH   5  17
ATOM     17  C   UNL     1       2.845   3.784  19.248  0.00  0.00    +0.000 A 
ATOM     18  C   UNL     1       3.339   3.399  20.502  0.00  0.00    +0.000 A 
ATOM     19  C   UNL     1       2.490   2.857  21.472  0.00  0.00    +0.000 A 
ATOM     20  C   UNL     1       1.132   2.704  21.206  0.00  0.00    +0.000 A 
ATOM     21  C   UNL     1       0.630   3.049  19.956  0.00  0.00    +0.000 A 
ATOM     22  C   UNL     1       1.488   3.551  18.975  0.00  0.00    +0.000 A 
ENDBRANCH   5  17
BRANCH   3  23
ATOM     23  C   UNL     1       6.305   4.522  15.571  0.00  0.00    +0.000 C 
ATOM     24  F   UNL     1       6.390   5.504  14.636  0.00  0.00    +0.000 F 
ATOM     25  F   UNL     1       7.524   4.458  16.179  0.00  0.00    +0.000 F 
ATOM     26  F   UNL     1       6.155   3.350  14.897  0.00  0.00    +0.000 F 
ENDBRANCH   3  23
TORSDOF 5
ENDMDL
MODEL 9
REMARK VINA RESULT:      -8.1      3.998      6.025
REMARK  Name = 
REMARK  5 active torsions:
REMARK  status: ('A' for Active; 'I' for Inactive)
REMARK    1  A    between atoms: N_1  and  C_2
REMARK    2  A    between atoms: C_2  and  C_4
REMARK    3  A    between atoms: C_7  and  N_8
REMARK    4  A    between atoms: C_10  and  C_11
REMARK    5  A    between atoms: C_16  and  C_17
REMARK                            x       y       z     vdW  Elec       q    Type
REMARK                         _______ _______ _______ _____ _____    ______ ____
ROOT
ATOM      1  N   UNL     1       3.879   6.365  18.147  0.00  0.00    +0.000 N 
ATOM      2  N   UNL     1       4.947   6.655  17.357  0.00  0.00    +0.000 NA
ATOM      3  C   UNL     1       5.759   5.589  17.460  0.00  0.00    +0.000 A 
ATOM      4  C   UNL     1       5.117   4.543  18.166  0.00  0.00    +0.000 A 
ATOM      5  C   UNL     1       3.867   5.020  18.528  0.00  0.00    +0.000 A 
ENDROOT
BRANCH   1   9
ATOM      6  C   UNL     1       1.019   9.365  19.032  0.00  0.00    +0.000 A 
ATOM      7  C   UNL     1       1.690   9.358  17.800  0.00  0.00    +0.000 A 
ATOM      8  C   UNL     1       2.669   8.393  17.527  0.00  0.00    +0.000 A 
ATOM      9  C   UNL     1       2.963   7.405  18.475  0.00  0.00    +0.000 A 
ATOM     10  C   UNL     1       2.337   7.444  19.728  0.00  0.00    +0.000 A 
ATOM     11  C   UNL     1       1.367   8.410  20.001  0.00  0.00    +0.000 A 
BRANCH   6  12
ATOM     12  C   UNL     1      -0.046  10.372  19.305  0.00  0.00    +0.000 C 
ATOM     13  S   UNL     1      -0.557  10.860  20.820  0.00  0.00    +0.000 S 
BRANCH  12  14
ATOM     14  N   UNL     1      -0.663  10.926  18.211  0.00  0.00    +0.000 N 
ATOM     15  H   UNL     1      -1.019  11.872  18.288  0.00  0.00    +0.000 HD
ATOM     16  H   UNL     1      -0.909  10.405  17.379  0.00  0.00    +0.000 HD
ENDBRANCH  12  14
ENDBRANCH   6  12
ENDBRANCH   1   9
BRANCH   5  17
ATOM     17  C   UNL     1       2.746   4.279  19.132  0.00  0.00    +0.000 A 
ATOM     18  C   UNL     1       1.773   3.684  18.317  0.00  0.00    +0.000 A 
ATOM     19  C   UNL     1       0.724   2.947  18.875  0.00  0.00    +0.000 A 
ATOM     20  C   UNL     1       0.639   2.784  20.256  0.00  0.00    +0.000 A 
ATOM     21  C   UNL     1       1.577   3.395  21.081  0.00  0.00    +0.000 A 
ATOM     22  C   UNL     1       2.599   4.165  20.524  0.00  0.00    +0.000 A 
ENDBRANCH   5  17
BRANCH   3  23
ATOM     23  C   UNL     1       7.142   5.536  16.868  0.00  0.00    +0.000 C 
ATOM     24  F   UNL     1       7.159   5.333  15.524  0.00  0.00    +0.000 F 
ATOM     25  F   UNL     1       7.822   6.695  17.094  0.00  0.00    +0.000 F 
ATOM     26  F   UNL     1       7.888   4.543  17.423  0.00  0.00    +0.000 F 
ENDBRANCH   3  23
TORSDOF 5
ENDMDL
