MODEL 1
REMARK VINA RESULT:      -8.4      0.000      0.000
REMARK  Name = 
REMARK  9 active torsions:
REMARK  status: ('A' for Active; 'I' for Inactive)
REMARK    1  A    between atoms: C_1  and  C_2
REMARK    2  A    between atoms: C_2  and  C_3
REMARK    3  A    between atoms: C_3  and  N_4
REMARK    4  A    between atoms: C_3  and  C_26
REMARK    5  A    between atoms: C_5  and  C_7
REMARK    6  A    between atoms: C_9  and  C_10
REMARK    7  A    between atoms: C_16  and  C_17
REMARK    8  A    between atoms: C_17  and  C_18
REMARK    9  A    between atoms: C_17  and  C_19
REMARK                            x       y       z     vdW  Elec       q    Type
REMARK                         _______ _______ _______ _____ _____    ______ ____
ROOT
ATOM      1  C   UNL     1       1.183   9.140  19.062  0.00  0.00    +0.000 A 
ATOM      2  C   UNL     1       0.257   9.869  18.334  0.00  0.00    +0.000 A 
ATOM      3  C   UNL     1      -0.650  10.529  19.215  0.00  0.00    +0.000 A 
ATOM      4  C   UNL     1      -0.311  10.074  20.490  0.00  0.00    +0.000 A 
ATOM      5  N   UNL     1       0.821   9.295  20.379  0.00  0.00    +0.000 N 
ATOM      6  C   UNL     1       1.477   8.697  21.535  0.00  0.00    +0.000 C 
ATOM      7  C   UNL     1       0.999   9.372  22.810  0.00  0.00    +0.000 C 
ATOM      8  O   UNL     1      -0.428   9.415  22.812  0.00  0.00    +0.000 OA
ATOM      9  C   UNL     1      -0.949  10.325  21.824  0.00  0.00    +0.000 C 
ENDROOT
BRANCH   3  10
ATOM     10  C   UNL     1      -1.776  11.427  18.889  0.00  0.00    +0.000 C 
ATOM     11  O   UNL     1      -1.782  12.588  19.299  0.00  0.00    +0.000 OA
ATOM     12  N   UNL     1      -2.819  10.939  18.093  0.00  0.00    +0.000 N 
ATOM     13  C   UNL     1      -2.743   9.797  17.204  0.00  0.00    +0.000 C 
ATOM     14  C   UNL     1      -3.386  10.270  15.916  0.00  0.00    +0.000 C 
ATOM     15  C   UNL     1      -4.463  11.230  16.385  0.00  0.00    +0.000 C 
ATOM     16  C   UNL     1      -3.984  11.775  17.752  0.00  0.00    +0.000 C 
BRANCH  16  17
ATOM     17  C   UNL     1      -5.144  11.699  18.788  0.00  0.00    +0.000 C 
ATOM     18  C   UNL     1      -5.212  12.909  19.721  0.00  0.00    +0.000 C 
ATOM     19  C   UNL     1      -6.508  11.544  18.094  0.00  0.00    +0.000 C 
ENDBRANCH  16  17
ENDBRANCH   3  10
BRANCH   1  21
ATOM     20  N   UNL     1       2.187   6.997  18.935  0.00  0.00    +0.000 N 
ATOM     21  C   UNL     1       2.277   8.318  18.571  0.00  0.00    +0.000 C 
ATOM     22  O   UNL     1       3.189   8.759  17.882  0.00  0.00    +0.000 OA
ATOM     23  H   UNL     1       1.355   6.685  19.412  0.00  0.00    +0.000 HD
BRANCH  20  24
ATOM     24  C   UNL     1       3.207   6.012  18.637  0.00  0.00    +0.000 C 
BRANCH  24  25
ATOM     25  C   UNL     1       2.573   4.622  18.647  0.00  0.00    +0.000 A 
ATOM     26  C   UNL     1       1.580   4.305  19.588  0.00  0.00    +0.000 A 
ATOM     27  C   UNL     1       1.016   3.028  19.625  0.00  0.00    +0.000 A 
ATOM     28  C   UNL     1       1.428   2.051  18.721  0.00  0.00    +0.000 A 
ATOM     29  C   UNL     1       2.396   2.354  17.768  0.00  0.00    +0.000 A 
ATOM     30  C   UNL     1       2.962   3.629  17.729  0.00  0.00    +0.000 A 
ENDBRANCH  24  25
BRANCH  24  32
ATOM     31  C   UNL     1       5.428   6.281  17.351  0.00  0.00    +0.000 C 
ATOM     32  C   UNL     1       3.908   6.262  17.285  0.00  0.00    +0.000 C 
ENDBRANCH  24  32
ENDBRANCH  20  24
ENDBRANCH   1  21
TORSDOF 6
ENDMDL
MODEL 2
REMARK VINA RESULT:      -8.3      1.149      1.486
REMARK  Name = 
REMARK  9 active torsions:
REMARK  status: ('A' for Active; 'I' for Inactive)
REMARK    1  A    between atoms: C_1  and  C_2
REMARK    2  A    between atoms: C_2  and  C_3
REMARK    3  A    between atoms: C_3  and  N_4
REMARK    4  A    between atoms: C_3  and  C_26
REMARK    5  A    between atoms: C_5  and  C_7
REMARK    6  A    between atoms: C_9  and  C_10
REMARK    7  A    between atoms: C_16  and  C_17
REMARK    8  A    between atoms: C_17  and  C_18
REMARK    9  A    between atoms: C_17  and  C_19
REMARK                            x       y       z     vdW  Elec       q    Type
REMARK                         _______ _______ _______ _____ _____    ______ ____
ROOT
ATOM      1  C   UNL     1       1.431   8.789  18.793  0.00  0.00    +0.000 A 
ATOM      2  C   UNL     1       0.626   9.516  17.931  0.00  0.00    +0.000 A 
ATOM      3  C   UNL     1      -0.310  10.296  18.673  0.00  0.00    +0.000 A 
ATOM      4  C   UNL     1      -0.118   9.920  20.003  0.00  0.00    +0.000 A 
ATOM      5  N   UNL     1       0.963   9.066  20.056  0.00  0.00    +0.000 N 
ATOM      6  C   UNL     1       1.470   8.520  21.308  0.00  0.00    +0.000 C 
ATOM      7  C   UNL     1       0.926   9.318  22.481  0.00  0.00    +0.000 C 
ATOM      8  O   UNL     1      -0.489   9.449  22.344  0.00  0.00    +0.000 OA
ATOM      9  C   UNL     1      -0.856  10.311  21.249  0.00  0.00    +0.000 C 
ENDROOT
BRANCH   3  10
ATOM     10  C   UNL     1      -1.337  11.234  18.179  0.00  0.00    +0.000 C 
ATOM     11  O   UNL     1      -1.256  12.435  18.438  0.00  0.00    +0.000 OA
ATOM     12  N   UNL     1      -2.387  10.734  17.399  0.00  0.00    +0.000 N 
ATOM     13  C   UNL     1      -2.377   9.483  16.667  0.00  0.00    +0.000 C 
ATOM     14  C   UNL     1      -2.924   9.836  15.298  0.00  0.00    +0.000 C 
ATOM     15  C   UNL     1      -3.929  10.935  15.587  0.00  0.00    +0.000 C 
ATOM     16  C   UNL     1      -3.458  11.611  16.896  0.00  0.00    +0.000 C 
BRANCH  16  17
ATOM     17  C   UNL     1      -4.661  11.768  17.872  0.00  0.00    +0.000 C 
ATOM     18  C   UNL     1      -5.806  12.609  17.305  0.00  0.00    +0.000 C 
ATOM     19  C   UNL     1      -5.225  10.401  18.295  0.00  0.00    +0.000 C 
ENDBRANCH  16  17
ENDBRANCH   3  10
BRANCH   1  21
ATOM     20  N   UNL     1       2.307   6.592  18.938  0.00  0.00    +0.000 N 
ATOM     21  C   UNL     1       2.506   7.867  18.468  0.00  0.00    +0.000 C 
ATOM     22  O   UNL     1       3.494   8.190  17.818  0.00  0.00    +0.000 OA
ATOM     23  H   UNL     1       1.424   6.371  19.372  0.00  0.00    +0.000 HD
BRANCH  20  24
ATOM     24  C   UNL     1       3.284   5.529  18.813  0.00  0.00    +0.000 C 
BRANCH  24  25
ATOM     25  C   UNL     1       2.918   4.402  19.779  0.00  0.00    +0.000 A 
ATOM     26  C   UNL     1       1.659   4.385  20.399  0.00  0.00    +0.000 A 
ATOM     27  C   UNL     1       1.326   3.377  21.307  0.00  0.00    +0.000 A 
ATOM     28  C   UNL     1       2.240   2.368  21.602  0.00  0.00    +0.000 A 
ATOM     29  C   UNL     1       3.485   2.358  20.981  0.00  0.00    +0.000 A 
ATOM     30  C   UNL     1       3.821   3.364  20.074  0.00  0.00    +0.000 A 
ENDBRANCH  24  25
BRANCH  24  32
ATOM     31  C   UNL     1       2.539   3.746  17.102  0.00  0.00    +0.000 C 
ATOM     32  C   UNL     1       3.391   4.977  17.376  0.00  0.00    +0.000 C 
ENDBRANCH  24  32
ENDBRANCH  20  24
ENDBRANCH   1  21
TORSDOF 6
ENDMDL
MODEL 3
REMARK VINA RESULT:      -8.3      1.133      1.583
REMARK  Name = 
REMARK  9 active torsions:
REMARK  status: ('A' for Active; 'I' for Inactive)
REMARK    1  A    between atoms: C_1  and  C_2
REMARK    2  A    between atoms: C_2  and  C_3
REMARK    3  A    between atoms: C_3  and  N_4
REMARK    4  A    between atoms: C_3  and  C_26
REMARK    5  A    between atoms: C_5  and  C_7
REMARK    6  A    between atoms: C_9  and  C_10
REMARK    7  A    between atoms: C_16  and  C_17
REMARK    8  A    between atoms: C_17  and  C_18
REMARK    9  A    between atoms: C_17  and  C_19
REMARK                            x       y       z     vdW  Elec       q    Type
REMARK                         _______ _______ _______ _____ _____    ______ ____
ROOT
ATOM      1  C   UNL     1       1.473   8.898  18.778  0.00  0.00    +0.000 A 
ATOM      2  C   UNL     1       0.653   9.650  17.954  0.00  0.00    +0.000 A 
ATOM      3  C   UNL     1      -0.286  10.386  18.735  0.00  0.00    +0.000 A 
ATOM      4  C   UNL     1      -0.080   9.957  20.047  0.00  0.00    +0.000 A 
ATOM      5  N   UNL     1       1.012   9.115  20.055  0.00  0.00    +0.000 N 
ATOM      6  C   UNL     1       1.535   8.523  21.279  0.00  0.00    +0.000 C 
ATOM      7  C   UNL     1       0.990   9.263  22.489  0.00  0.00    +0.000 C 
ATOM      8  O   UNL     1      -0.428   9.383  22.367  0.00  0.00    +0.000 OA
ATOM      9  C   UNL     1      -0.813  10.285  21.313  0.00  0.00    +0.000 C 
ENDROOT
BRANCH   3  10
ATOM     10  C   UNL     1      -1.329  11.332  18.288  0.00  0.00    +0.000 C 
ATOM     11  O   UNL     1      -1.197  12.540  18.487  0.00  0.00    +0.000 OA
ATOM     12  N   UNL     1      -2.453  10.830  17.622  0.00  0.00    +0.000 N 
ATOM     13  C   UNL     1      -2.536   9.550  16.946  0.00  0.00    +0.000 C 
ATOM     14  C   UNL     1      -3.188   9.861  15.614  0.00  0.00    +0.000 C 
ATOM     15  C   UNL     1      -4.138  10.999  15.938  0.00  0.00    +0.000 C 
ATOM     16  C   UNL     1      -3.542  11.715  17.172  0.00  0.00    +0.000 C 
BRANCH  16  17
ATOM     17  C   UNL     1      -4.652  11.946  18.238  0.00  0.00    +0.000 C 
ATOM     18  C   UNL     1      -5.630  10.776  18.368  0.00  0.00    +0.000 C 
ATOM     19  C   UNL     1      -4.051  12.232  19.625  0.00  0.00    +0.000 C 
ENDBRANCH  16  17
ENDBRANCH   3  10
BRANCH   1  21
ATOM     20  N   UNL     1       2.433   6.735  18.920  0.00  0.00    +0.000 N 
ATOM     21  C   UNL     1       2.557   8.003  18.406  0.00  0.00    +0.000 C 
ATOM     22  O   UNL     1       3.489   8.343  17.687  0.00  0.00    +0.000 OA
ATOM     23  H   UNL     1       1.588   6.497  19.415  0.00  0.00    +0.000 HD
BRANCH  20  24
ATOM     24  C   UNL     1       3.437   5.703  18.758  0.00  0.00    +0.000 C 
BRANCH  24  25
ATOM     25  C   UNL     1       3.147   4.570  19.741  0.00  0.00    +0.000 A 
ATOM     26  C   UNL     1       3.906   3.390  19.703  0.00  0.00    +0.000 A 
ATOM     27  C   UNL     1       3.628   2.336  20.577  0.00  0.00    +0.000 A 
ATOM     28  C   UNL     1       2.595   2.448  21.506  0.00  0.00    +0.000 A 
ATOM     29  C   UNL     1       1.846   3.619  21.571  0.00  0.00    +0.000 A 
ATOM     30  C   UNL     1       2.121   4.673  20.699  0.00  0.00    +0.000 A 
ENDBRANCH  24  25
BRANCH  24  32
ATOM     31  C   UNL     1       4.866   5.261  16.655  0.00  0.00    +0.000 C 
ATOM     32  C   UNL     1       3.502   5.148  17.318  0.00  0.00    +0.000 C 
ENDBRANCH  24  32
ENDBRANCH  20  24
ENDBRANCH   1  21
TORSDOF 6
ENDMDL
MODEL 4
REMARK VINA RESULT:      -8.3      2.734      4.400
REMARK  Name = 
REMARK  9 active torsions:
REMARK  status: ('A' for Active; 'I' for Inactive)
REMARK    1  A    between atoms: C_1  and  C_2
REMARK    2  A    between atoms: C_2  and  C_3
REMARK    3  A    between atoms: C_3  and  N_4
REMARK    4  A    between atoms: C_3  and  C_26
REMARK    5  A    between atoms: C_5  and  C_7
REMARK    6  A    between atoms: C_9  and  C_10
REMARK    7  A    between atoms: C_16  and  C_17
REMARK    8  A    between atoms: C_17  and  C_18
REMARK    9  A    between atoms: C_17  and  C_19
REMARK                            x       y       z     vdW  Elec       q    Type
REMARK                         _______ _______ _______ _____ _____    ______ ____
ROOT
ATOM      1  C   UNL     1       0.698   9.867  19.598  0.00  0.00    +0.000 A 
ATOM      2  C   UNL     1       0.781  10.450  20.851  0.00  0.00    +0.000 A 
ATOM      3  C   UNL     1      -0.375  11.249  21.099  0.00  0.00    +0.000 A 
ATOM      4  C   UNL     1      -1.095  11.222  19.903  0.00  0.00    +0.000 A 
ATOM      5  N   UNL     1      -0.467  10.345  19.045  0.00  0.00    +0.000 N 
ATOM      6  C   UNL     1      -0.986  10.041  17.718  0.00  0.00    +0.000 C 
ATOM      7  C   UNL     1      -2.437  10.480  17.615  0.00  0.00    +0.000 C 
ATOM      8  O   UNL     1      -2.554  11.827  18.075  0.00  0.00    +0.000 OA
ATOM      9  C   UNL     1      -2.347  11.939  19.496  0.00  0.00    +0.000 C 
ENDROOT
BRANCH   3  10
ATOM     10  C   UNL     1      -0.726  12.029  22.303  0.00  0.00    +0.000 C 
ATOM     11  O   UNL     1      -1.041  11.452  23.344  0.00  0.00    +0.000 OA
ATOM     12  N   UNL     1      -0.675  13.426  22.239  0.00  0.00    +0.000 N 
ATOM     13  C   UNL     1       0.075  14.203  21.272  0.00  0.00    +0.000 C 
ATOM     14  C   UNL     1       0.780  15.263  22.096  0.00  0.00    +0.000 C 
ATOM     15  C   UNL     1      -0.197  15.551  23.220  0.00  0.00    +0.000 C 
ATOM     16  C   UNL     1      -1.037  14.264  23.396  0.00  0.00    +0.000 C 
BRANCH  16  17
ATOM     17  C   UNL     1      -2.550  14.624  23.469  0.00  0.00    +0.000 C 
ATOM     18  C   UNL     1      -3.092  14.709  24.896  0.00  0.00    +0.000 C 
ATOM     19  C   UNL     1      -2.846  15.956  22.757  0.00  0.00    +0.000 C 
ENDBRANCH  16  17
ENDBRANCH   3  10
BRANCH   1  21
ATOM     20  N   UNL     1       1.830   7.785  19.584  0.00  0.00    +0.000 N 
ATOM     21  C   UNL     1       1.651   8.987  18.943  0.00  0.00    +0.000 C 
ATOM     22  O   UNL     1       2.232   9.281  17.904  0.00  0.00    +0.000 OA
ATOM     23  H   UNL     1       1.241   7.568  20.373  0.00  0.00    +0.000 HD
BRANCH  20  24
ATOM     24  C   UNL     1       2.795   6.788  19.165  0.00  0.00    +0.000 C 
BRANCH  24  25
ATOM     25  C   UNL     1       2.168   5.402  19.302  0.00  0.00    +0.000 A 
ATOM     26  C   UNL     1       1.958   4.606  18.165  0.00  0.00    +0.000 A 
ATOM     27  C   UNL     1       1.356   3.350  18.276  0.00  0.00    +0.000 A 
ATOM     28  C   UNL     1       0.964   2.867  19.523  0.00  0.00    +0.000 A 
ATOM     29  C   UNL     1       1.184   3.634  20.663  0.00  0.00    +0.000 A 
ATOM     30  C   UNL     1       1.784   4.889  20.555  0.00  0.00    +0.000 A 
ENDBRANCH  24  25
BRANCH  24  32
ATOM     31  C   UNL     1       4.764   6.687  17.500  0.00  0.00    +0.000 C 
ATOM     32  C   UNL     1       3.291   7.003  17.719  0.00  0.00    +0.000 C 
ENDBRANCH  24  32
ENDBRANCH  20  24
ENDBRANCH   1  21
TORSDOF 6
ENDMDL
MODEL 5
REMARK VINA RESULT:      -8.0      2.415      3.595
REMARK  Name = 
REMARK  9 active torsions:
REMARK  status: ('A' for Active; 'I' for Inactive)
REMARK    1  A    between atoms: C_1  and  C_2
REMARK    2  A    between atoms: C_2  and  C_3
REMARK    3  A    between atoms: C_3  and  N_4
REMARK    4  A    between atoms: C_3  and  C_26
REMARK    5  A    between atoms: C_5  and  C_7
REMARK    6  A    between atoms: C_9  and  C_10
REMARK    7  A    between atoms: C_16  and  C_17
REMARK    8  A    between atoms: C_17  and  C_18
REMARK    9  A    between atoms: C_17  and  C_19
REMARK                            x       y       z     vdW  Elec       q    Type
REMARK                         _______ _______ _______ _____ _____    ______ ____
ROOT
ATOM      1  C   UNL     1       1.031  10.145  18.534  0.00  0.00    +0.000 A 
ATOM      2  C   UNL     1      -0.260  10.094  19.033  0.00  0.00    +0.000 A 
ATOM      3  C   UNL     1      -0.732  11.412  19.310  0.00  0.00    +0.000 A 
ATOM      4  C   UNL     1       0.363  12.244  19.074  0.00  0.00    +0.000 A 
ATOM      5  N   UNL     1       1.382  11.474  18.556  0.00  0.00    +0.000 N 
ATOM      6  C   UNL     1       2.662  12.039  18.148  0.00  0.00    +0.000 C 
ATOM      7  C   UNL     1       2.540  13.547  18.000  0.00  0.00    +0.000 C 
ATOM      8  O   UNL     1       1.924  14.086  19.170  0.00  0.00    +0.000 OA
ATOM      9  C   UNL     1       0.535  13.720  19.274  0.00  0.00    +0.000 C 
ENDROOT
BRANCH   3  10
ATOM     10  C   UNL     1      -2.048  11.839  19.826  0.00  0.00    +0.000 C 
ATOM     11  O   UNL     1      -3.041  11.798  19.100  0.00  0.00    +0.000 OA
ATOM     12  N   UNL     1      -2.143  12.271  21.154  0.00  0.00    +0.000 N 
ATOM     13  C   UNL     1      -1.203  11.965  22.214  0.00  0.00    +0.000 C 
ATOM     14  C   UNL     1      -2.069  11.554  23.388  0.00  0.00    +0.000 C 
ATOM     15  C   UNL     1      -3.312  12.409  23.232  0.00  0.00    +0.000 C 
ATOM     16  C   UNL     1      -3.421  12.735  21.723  0.00  0.00    +0.000 C 
BRANCH  16  17
ATOM     17  C   UNL     1      -3.687  14.256  21.528  0.00  0.00    +0.000 C 
ATOM     18  C   UNL     1      -4.879  14.558  20.619  0.00  0.00    +0.000 C 
ATOM     19  C   UNL     1      -3.911  14.966  22.874  0.00  0.00    +0.000 C 
ENDBRANCH  16  17
ENDBRANCH   3  10
BRANCH   1  21
ATOM     20  N   UNL     1       2.150   8.143  19.129  0.00  0.00    +0.000 N 
ATOM     21  C   UNL     1       1.889   9.045  18.127  0.00  0.00    +0.000 C 
ATOM     22  O   UNL     1       2.326   8.921  16.989  0.00  0.00    +0.000 OA
ATOM     23  H   UNL     1       1.671   8.250  20.010  0.00  0.00    +0.000 HD
BRANCH  20  24
ATOM     24  C   UNL     1       3.052   7.018  18.981  0.00  0.00    +0.000 C 
BRANCH  24  25
ATOM     25  C   UNL     1       2.266   5.723  19.181  0.00  0.00    +0.000 A 
ATOM     26  C   UNL     1       1.830   5.352  20.463  0.00  0.00    +0.000 A 
ATOM     27  C   UNL     1       1.138   4.154  20.661  0.00  0.00    +0.000 A 
ATOM     28  C   UNL     1       0.864   3.315  19.582  0.00  0.00    +0.000 A 
ATOM     29  C   UNL     1       1.270   3.678  18.302  0.00  0.00    +0.000 A 
ATOM     30  C   UNL     1       1.962   4.873  18.101  0.00  0.00    +0.000 A 
ENDBRANCH  24  25
BRANCH  24  32
ATOM     31  C   UNL     1       5.181   6.438  17.643  0.00  0.00    +0.000 C 
ATOM     32  C   UNL     1       3.765   6.996  17.612  0.00  0.00    +0.000 C 
ENDBRANCH  24  32
ENDBRANCH  20  24
ENDBRANCH   1  21
TORSDOF 6
ENDMDL
MODEL 6
REMARK VINA RESULT:      -7.9      3.212      4.550
REMARK  Name = 
REMARK  9 active torsions:
REMARK  status: ('A' for Active; 'I' for Inactive)
REMARK    1  A    between atoms: C_1  and  C_2
REMARK    2  A    between atoms: C_2  and  C_3
REMARK    3  A    between atoms: C_3  and  N_4
REMARK    4  A    between atoms: C_3  and  C_26
REMARK    5  A    between atoms: C_5  and  C_7
REMARK    6  A    between atoms: C_9  and  C_10
REMARK    7  A    between atoms: C_16  and  C_17
REMARK    8  A    between atoms: C_17  and  C_18
REMARK    9  A    between atoms: C_17  and  C_19
REMARK                            x       y       z     vdW  Elec       q    Type
REMARK                         _______ _______ _______ _____ _____    ______ ____
ROOT
ATOM      1  C   UNL     1       1.574   9.238  18.942  0.00  0.00    +0.000 A 
ATOM      2  C   UNL     1       1.622  10.458  18.288  0.00  0.00    +0.000 A 
ATOM      3  C   UNL     1       1.104  11.487  19.129  0.00  0.00    +0.000 A 
ATOM      4  C   UNL     1       0.632  10.823  20.262  0.00  0.00    +0.000 A 
ATOM      5  N   UNL     1       0.977   9.492  20.154  0.00  0.00    +0.000 N 
ATOM      6  C   UNL     1       0.678   8.518  21.195  0.00  0.00    +0.000 C 
ATOM      7  C   UNL     1       0.339   9.232  22.493  0.00  0.00    +0.000 C 
ATOM      8  O   UNL     1      -0.639  10.239  22.232  0.00  0.00    +0.000 OA
ATOM      9  C   UNL     1      -0.106  11.334  21.464  0.00  0.00    +0.000 C 
ENDROOT
BRANCH   3  10
ATOM     10  C   UNL     1       0.984  12.934  18.862  0.00  0.00    +0.000 C 
ATOM     11  O   UNL     1       0.037  13.367  18.205  0.00  0.00    +0.000 OA
ATOM     12  N   UNL     1       1.955  13.798  19.383  0.00  0.00    +0.000 N 
ATOM     13  C   UNL     1       2.835  13.509  20.498  0.00  0.00    +0.000 C 
ATOM     14  C   UNL     1       2.774  14.748  21.367  0.00  0.00    +0.000 C 
ATOM     15  C   UNL     1       2.595  15.877  20.369  0.00  0.00    +0.000 C 
ATOM     16  C   UNL     1       1.909  15.249  19.132  0.00  0.00    +0.000 C 
BRANCH  16  17
ATOM     17  C   UNL     1       2.647  15.692  17.835  0.00  0.00    +0.000 C 
ATOM     18  C   UNL     1       2.485  17.179  17.515  0.00  0.00    +0.000 C 
ATOM     19  C   UNL     1       4.150  15.372  17.905  0.00  0.00    +0.000 C 
ENDBRANCH  16  17
ENDBRANCH   3  10
BRANCH   1  21
ATOM     20  N   UNL     1       2.934   7.321  19.250  0.00  0.00    +0.000 N 
ATOM     21  C   UNL     1       1.993   7.933  18.457  0.00  0.00    +0.000 C 
ATOM     22  O   UNL     1       1.538   7.417  17.444  0.00  0.00    +0.000 OA
ATOM     23  H   UNL     1       3.183   7.757  20.124  0.00  0.00    +0.000 HD
BRANCH  20  24
ATOM     24  C   UNL     1       3.563   6.059  18.918  0.00  0.00    +0.000 C 
BRANCH  24  25
ATOM     25  C   UNL     1       2.567   4.927  19.166  0.00  0.00    +0.000 A 
ATOM     26  C   UNL     1       2.013   4.741  20.442  0.00  0.00    +0.000 A 
ATOM     27  C   UNL     1       1.125   3.691  20.686  0.00  0.00    +0.000 A 
ATOM     28  C   UNL     1       0.771   2.816  19.660  0.00  0.00    +0.000 A 
ATOM     29  C   UNL     1       1.296   2.999  18.384  0.00  0.00    +0.000 A 
ATOM     30  C   UNL     1       2.183   4.047  18.137  0.00  0.00    +0.000 A 
ENDBRANCH  24  25
BRANCH  24  32
ATOM     31  C   UNL     1       5.364   6.766  17.211  0.00  0.00    +0.000 C 
ATOM     32  C   UNL     1       4.071   6.005  17.461  0.00  0.00    +0.000 C 
ENDBRANCH  24  32
ENDBRANCH  20  24
ENDBRANCH   1  21
TORSDOF 6
ENDMDL
MODEL 7
REMARK VINA RESULT:      -7.8      1.648      2.430
REMARK  Name = 
REMARK  9 active torsions:
REMARK  status: ('A' for Active; 'I' for Inactive)
REMARK    1  A    between atoms: C_1  and  C_2
REMARK    2  A    between atoms: C_2  and  C_3
REMARK    3  A    between atoms: C_3  and  N_4
REMARK    4  A    between atoms: C_3  and  C_26
REMARK    5  A    between atoms: C_5  and  C_7
REMARK    6  A    between atoms: C_9  and  C_10
REMARK    7  A    between atoms: C_16  and  C_17
REMARK    8  A    between atoms: C_17  and  C_18
REMARK    9  A    between atoms: C_17  and  C_19
REMARK                            x       y       z     vdW  Elec       q    Type
REMARK                         _______ _______ _______ _____ _____    ______ ____
ROOT
ATOM      1  C   UNL     1       0.725   9.813  19.561  0.00  0.00    +0.000 A 
ATOM      2  C   UNL     1      -0.628   9.929  19.831  0.00  0.00    +0.000 A 
ATOM      3  C   UNL     1      -1.118  11.181  19.354  0.00  0.00    +0.000 A 
ATOM      4  C   UNL     1       0.012  11.861  18.899  0.00  0.00    +0.000 A 
ATOM      5  N   UNL     1       1.088  11.003  18.977  0.00  0.00    +0.000 N 
ATOM      6  C   UNL     1       2.424  11.379  18.532  0.00  0.00    +0.000 C 
ATOM      7  C   UNL     1       2.349  12.612  17.646  0.00  0.00    +0.000 C 
ATOM      8  O   UNL     1       1.565  13.612  18.299  0.00  0.00    +0.000 OA
ATOM      9  C   UNL     1       0.171  13.255  18.370  0.00  0.00    +0.000 C 
ENDROOT
BRANCH   3  10
ATOM     10  C   UNL     1      -2.492  11.720  19.400  0.00  0.00    +0.000 C 
ATOM     11  O   UNL     1      -2.787  12.601  20.209  0.00  0.00    +0.000 OA
ATOM     12  N   UNL     1      -3.441  11.224  18.498  0.00  0.00    +0.000 N 
ATOM     13  C   UNL     1      -3.150  10.547  17.249  0.00  0.00    +0.000 C 
ATOM     14  C   UNL     1      -4.071  11.197  16.237  0.00  0.00    +0.000 C 
ATOM     15  C   UNL     1      -5.310  11.533  17.044  0.00  0.00    +0.000 C 
ATOM     16  C   UNL     1      -4.835  11.699  18.507  0.00  0.00    +0.000 C 
BRANCH  16  17
ATOM     17  C   UNL     1      -5.771  10.901  19.461  0.00  0.00    +0.000 C 
ATOM     18  C   UNL     1      -6.452  11.770  20.521  0.00  0.00    +0.000 C 
ATOM     19  C   UNL     1      -6.861  10.146  18.680  0.00  0.00    +0.000 C 
ENDBRANCH  16  17
ENDBRANCH   3  10
BRANCH   1  21
ATOM     20  N   UNL     1       2.230   8.160  18.774  0.00  0.00    +0.000 N 
ATOM     21  C   UNL     1       1.620   8.711  19.874  0.00  0.00    +0.000 C 
ATOM     22  O   UNL     1       1.826   8.319  21.017  0.00  0.00    +0.000 OA
ATOM     23  H   UNL     1       2.096   8.601  17.878  0.00  0.00    +0.000 HD
BRANCH  20  24
ATOM     24  C   UNL     1       3.092   6.996  18.833  0.00  0.00    +0.000 C 
BRANCH  24  25
ATOM     25  C   UNL     1       2.227   5.748  19.007  0.00  0.00    +0.000 A 
ATOM     26  C   UNL     1       1.815   5.347  20.288  0.00  0.00    +0.000 A 
ATOM     27  C   UNL     1       1.051   4.191  20.460  0.00  0.00    +0.000 A 
ATOM     28  C   UNL     1       0.680   3.422  19.358  0.00  0.00    +0.000 A 
ATOM     29  C   UNL     1       1.062   3.817  18.079  0.00  0.00    +0.000 A 
ATOM     30  C   UNL     1       1.826   4.972  17.904  0.00  0.00    +0.000 A 
ENDBRANCH  24  25
BRANCH  24  32
ATOM     31  C   UNL     1       5.297   6.111  17.827  0.00  0.00    +0.000 C 
ATOM     32  C   UNL     1       3.988   6.847  17.585  0.00  0.00    +0.000 C 
ENDBRANCH  24  32
ENDBRANCH  20  24
ENDBRANCH   1  21
TORSDOF 6
ENDMDL
MODEL 8
REMARK VINA RESULT:      -7.8      3.077      4.277
REMARK  Name = 
REMARK  9 active torsions:
REMARK  status: ('A' for Active; 'I' for Inactive)
REMARK    1  A    between atoms: C_1  and  C_2
REMARK    2  A    between atoms: C_2  and  C_3
REMARK    3  A    between atoms: C_3  and  N_4
REMARK    4  A    between atoms: C_3  and  C_26
REMARK    5  A    between atoms: C_5  and  C_7
REMARK    6  A    between atoms: C_9  and  C_10
REMARK    7  A    between atoms: C_16  and  C_17
REMARK    8  A    between atoms: C_17  and  C_18
REMARK    9  A    between atoms: C_17  and  C_19
REMARK                            x       y       z     vdW  Elec       q    Type
REMARK                         _______ _______ _______ _____ _____    ______ ____
ROOT
ATOM      1  C   UNL     1       1.118   9.759  19.377  0.00  0.00    +0.000 A 
ATOM      2  C   UNL     1       0.912  11.036  18.880  0.00  0.00    +0.000 A 
ATOM      3  C   UNL     1       0.323  11.863  19.882  0.00  0.00    +0.000 A 
ATOM      4  C   UNL     1       0.072  11.008  20.955  0.00  0.00    +0.000 A 
ATOM      5  N   UNL     1       0.608   9.774  20.653  0.00  0.00    +0.000 N 
ATOM      6  C   UNL     1       0.567   8.653  21.584  0.00  0.00    +0.000 C 
ATOM      7  C   UNL     1       0.247   9.151  22.984  0.00  0.00    +0.000 C 
ATOM      8  O   UNL     1      -0.896  10.005  22.929  0.00  0.00    +0.000 OA
ATOM      9  C   UNL     1      -0.616  11.253  22.265  0.00  0.00    +0.000 C 
ENDROOT
BRANCH   3  10
ATOM     10  C   UNL     1      -0.045  13.291  19.809  0.00  0.00    +0.000 C 
ATOM     11  O   UNL     1      -1.197  13.621  19.525  0.00  0.00    +0.000 OA
ATOM     12  N   UNL     1       0.932  14.254  20.086  0.00  0.00    +0.000 N 
ATOM     13  C   UNL     1       2.151  14.032  20.838  0.00  0.00    +0.000 C 
ATOM     14  C   UNL     1       2.226  15.200  21.801  0.00  0.00    +0.000 C 
ATOM     15  C   UNL     1       1.605  16.345  21.024  0.00  0.00    +0.000 C 
ATOM     16  C   UNL     1       0.638  15.696  20.006  0.00  0.00    +0.000 C 
BRANCH  16  17
ATOM     17  C   UNL     1       0.863  16.312  18.594  0.00  0.00    +0.000 C 
ATOM     18  C   UNL     1      -0.268  17.236  18.140  0.00  0.00    +0.000 C 
ATOM     19  C   UNL     1       2.186  17.095  18.526  0.00  0.00    +0.000 C 
ENDBRANCH  16  17
ENDBRANCH   3  10
BRANCH   1  21
ATOM     20  N   UNL     1       2.478   7.822  19.506  0.00  0.00    +0.000 N 
ATOM     21  C   UNL     1       1.686   8.604  18.701  0.00  0.00    +0.000 C 
ATOM     22  O   UNL     1       1.466   8.341  17.525  0.00  0.00    +0.000 OA
ATOM     23  H   UNL     1       2.528   8.040  20.489  0.00  0.00    +0.000 HD
BRANCH  20  24
ATOM     24  C   UNL     1       3.220   6.673  19.029  0.00  0.00    +0.000 C 
BRANCH  24  25
ATOM     25  C   UNL     1       2.380   5.415  19.245  0.00  0.00    +0.000 A 
ATOM     26  C   UNL     1       2.048   4.592  18.158  0.00  0.00    +0.000 A 
ATOM     27  C   UNL     1       1.253   3.457  18.340  0.00  0.00    +0.000 A 
ATOM     28  C   UNL     1       0.787   3.123  19.610  0.00  0.00    +0.000 A 
ATOM     29  C   UNL     1       1.125   3.916  20.703  0.00  0.00    +0.000 A 
ATOM     30  C   UNL     1       1.917   5.051  20.523  0.00  0.00    +0.000 A 
ENDBRANCH  24  25
BRANCH  24  32
ATOM     31  C   UNL     1       5.119   6.765  17.284  0.00  0.00    +0.000 C 
ATOM     32  C   UNL     1       3.619   6.791  17.542  0.00  0.00    +0.000 C 
ENDBRANCH  24  32
ENDBRANCH  20  24
ENDBRANCH   1  21
TORSDOF 6
ENDMDL
MODEL 9
REMARK VINA RESULT:      -7.7      0.920      1.315
REMARK  Name = 
REMARK  9 active torsions:
REMARK  status: ('A' for Active; 'I' for Inactive)
REMARK    1  A    between atoms: C_1  and  C_2
REMARK    2  A    between atoms: C_2  and  C_3
REMARK    3  A    between atoms: C_3  and  N_4
REMARK    4  A    between atoms: C_3  and  C_26
REMARK    5  A    between atoms: C_5  and  C_7
REMARK    6  A    between atoms: C_9  and  C_10
REMARK    7  A    between atoms: C_16  and  C_17
REMARK    8  A    between atoms: C_17  and  C_18
REMARK    9  A    between atoms: C_17  and  C_19
REMARK                            x       y       z     vdW  Elec       q    Type
REMARK                         _______ _______ _______ _____ _____    ______ ____
ROOT
ATOM      1  C   UNL     1       1.405   8.697  18.954  0.00  0.00    +0.000 A 
ATOM      2  C   UNL     1       0.630   9.414  18.058  0.00  0.00    +0.000 A 
ATOM      3  C   UNL     1      -0.256  10.284  18.760  0.00  0.00    +0.000 A 
ATOM      4  C   UNL     1      -0.070   9.977  20.109  0.00  0.00    +0.000 A 
ATOM      5  N   UNL     1       0.966   9.072  20.202  0.00  0.00    +0.000 N 
ATOM      6  C   UNL     1       1.458   8.573  21.480  0.00  0.00    +0.000 C 
ATOM      7  C   UNL     1       0.969   9.466  22.609  0.00  0.00    +0.000 C 
ATOM      8  O   UNL     1      -0.439   9.663  22.475  0.00  0.00    +0.000 OA
ATOM      9  C   UNL     1      -0.772  10.478  21.335  0.00  0.00    +0.000 C 
ENDROOT
BRANCH   3  10
ATOM     10  C   UNL     1      -1.238  11.245  18.220  0.00  0.00    +0.000 C 
ATOM     11  O   UNL     1      -1.119  12.449  18.449  0.00  0.00    +0.000 OA
ATOM     12  N   UNL     1      -2.290  10.762  17.432  0.00  0.00    +0.000 N 
ATOM     13  C   UNL     1      -2.311   9.492  16.733  0.00  0.00    +0.000 C 
ATOM     14  C   UNL     1      -2.817   9.827  15.345  0.00  0.00    +0.000 C 
ATOM     15  C   UNL     1      -3.787  10.968  15.583  0.00  0.00    +0.000 C 
ATOM     16  C   UNL     1      -3.319  11.663  16.883  0.00  0.00    +0.000 C 
BRANCH  16  17
ATOM     17  C   UNL     1      -4.534  11.890  17.830  0.00  0.00    +0.000 C 
ATOM     18  C   UNL     1      -5.725  12.564  17.148  0.00  0.00    +0.000 C 
ATOM     19  C   UNL     1      -5.016  10.568  18.453  0.00  0.00    +0.000 C 
ENDBRANCH  16  17
ENDBRANCH   3  10
BRANCH   1  21
ATOM     20  N   UNL     1       2.505   6.706  19.617  0.00  0.00    +0.000 N 
ATOM     21  C   UNL     1       2.427   7.702  18.675  0.00  0.00    +0.000 C 
ATOM     22  O   UNL     1       3.144   7.738  17.682  0.00  0.00    +0.000 OA
ATOM     23  H   UNL     1       1.814   6.682  20.351  0.00  0.00    +0.000 HD
BRANCH  20  24
ATOM     24  C   UNL     1       3.507   5.658  19.595  0.00  0.00    +0.000 C 
BRANCH  24  25
ATOM     25  C   UNL     1       2.822   4.322  19.312  0.00  0.00    +0.000 A 
ATOM     26  C   UNL     1       3.051   3.655  18.099  0.00  0.00    +0.000 A 
ATOM     27  C   UNL     1       2.405   2.448  17.817  0.00  0.00    +0.000 A 
ATOM     28  C   UNL     1       1.528   1.887  18.744  0.00  0.00    +0.000 A 
ATOM     29  C   UNL     1       1.306   2.526  19.960  0.00  0.00    +0.000 A 
ATOM     30  C   UNL     1       1.949   3.731  20.244  0.00  0.00    +0.000 A 
ENDBRANCH  24  25
BRANCH  24  32
ATOM     31  C   UNL     1       6.011   5.486  18.998  0.00  0.00    +0.000 C 
ATOM     32  C   UNL     1       4.619   5.912  18.555  0.00  0.00    +0.000 C 
ENDBRANCH  24  32
ENDBRANCH  20  24
ENDBRANCH   1  21
TORSDOF 6
ENDMDL
