MODEL 1
REMARK VINA RESULT:      -7.5      0.000      0.000
REMARK  Name = 
REMARK  9 active torsions:
REMARK  status: ('A' for Active; 'I' for Inactive)
REMARK    1  A    between atoms: C_2  and  O_3
REMARK    2  A    between atoms: C_2  and  C_4
REMARK    3  A    between atoms: C_4  and  N_5
REMARK    4  A    between atoms: C_8  and  N_9
REMARK    5  A    between atoms: C_10  and  C_12
REMARK    6  A    between atoms: C_12  and  S_13
REMARK    7  A    between atoms: C_12  and  C_14
REMARK    8  A    between atoms: C_14  and  C_15
REMARK    9  A    between atoms: C_24  and  C_25
REMARK                            x       y       z     vdW  Elec       q    Type
REMARK                         _______ _______ _______ _____ _____    ______ ____
ROOT
ATOM      1  N   UNL     1       3.295   3.901  17.286  0.00  0.00    +0.000 N 
ATOM      2  C   UNL     1       2.662   4.910  18.025  0.00  0.00    +0.000 C 
ATOM      3  O   UNL     1       1.463   4.818  18.313  0.00  0.00    +0.000 OA
ATOM      4  C   UNL     1       3.494   6.109  18.512  0.00  0.00    +0.000 C 
ATOM      5  C   UNL     1       4.540   5.699  19.556  0.00  0.00    +0.000 C 
ATOM      6  C   UNL     1       5.794   4.995  19.039  0.00  0.00    +0.000 C 
ATOM      7  C   UNL     1       5.582   3.744  18.194  0.00  0.00    +0.000 C 
ATOM      8  C   UNL     1       4.744   3.920  16.911  0.00  0.00    +0.000 C 
ENDROOT
BRANCH   8   9
ATOM      9  C   UNL     1       5.202   5.112  15.998  0.00  0.00    +0.000 C 
ATOM     10  C   UNL     1       5.020   4.875  14.498  0.00  0.00    +0.000 C 
ATOM     11  C   UNL     1       6.302   4.183  14.075  0.00  0.00    +0.000 C 
ATOM     12  C   UNL     1       7.387   4.890  14.875  0.00  0.00    +0.000 C 
ATOM     13  C   UNL     1       6.691   5.489  16.095  0.00  0.00    +0.000 C 
ENDBRANCH   8   9
BRANCH   4  14
ATOM     14  N   UNL     1       2.625   7.149  19.057  0.00  0.00    +0.000 N 
ATOM     15  C   UNL     1       2.382   8.280  18.307  0.00  0.00    +0.000 C 
ATOM     16  O   UNL     1       2.915   8.456  17.211  0.00  0.00    +0.000 OA
ATOM     17  H   UNL     1       2.210   7.009  19.975  0.00  0.00    +0.000 HD
BRANCH  15  18
ATOM     18  C   UNL     1       1.419   9.287  18.919  0.00  0.00    +0.000 C 
BRANCH  18  19
ATOM     19  S   UNL     1      -0.074   9.370  17.857  0.00  0.00    +0.000 S 
ATOM     20  H   UNL     1      -0.843  10.038  18.730  0.00  0.00    +0.000 HD
ENDBRANCH  18  19
BRANCH  18  21
ATOM     21  C   UNL     1       1.101   8.835  20.356  0.00  0.00    +0.000 C 
BRANCH  21  22
ATOM     22  C   UNL     1       0.384   9.851  21.204  0.00  0.00    +0.000 A 
ATOM     23  C   UNL     1      -0.347   9.434  22.326  0.00  0.00    +0.000 A 
ATOM     24  C   UNL     1      -1.016  10.367  23.120  0.00  0.00    +0.000 A 
ATOM     25  C   UNL     1      -0.962  11.716  22.804  0.00  0.00    +0.000 A 
ATOM     26  C   UNL     1      -0.223  12.144  21.704  0.00  0.00    +0.000 A 
ATOM     27  C   UNL     1       0.451  11.213  20.905  0.00  0.00    +0.000 A 
ENDBRANCH  21  22
ENDBRANCH  18  21
ENDBRANCH  15  18
ENDBRANCH   4  14
BRANCH   1  28
ATOM     28  C   UNL     1       2.660   2.555  17.429  0.00  0.00    +0.000 C 
BRANCH  28  30
ATOM     29  O   UNL     1       2.674   1.996  19.791  0.00  0.00    +0.000 OA
ATOM     30  C   UNL     1       3.039   1.729  18.657  0.00  0.00    +0.000 C 
BRANCH  30  31
ATOM     31  O   UNL     1       3.894   0.719  18.390  0.00  0.00    +0.000 OA
ATOM     32  H   UNL     1       3.677   0.354  17.513  0.00  0.00    +0.000 HD
ENDBRANCH  30  31
ENDBRANCH  28  30
ENDBRANCH   1  28
TORSDOF 9
ENDMDL
MODEL 2
REMARK VINA RESULT:      -7.3      1.917      2.264
REMARK  Name = 
REMARK  9 active torsions:
REMARK  status: ('A' for Active; 'I' for Inactive)
REMARK    1  A    between atoms: C_2  and  O_3
REMARK    2  A    between atoms: C_2  and  C_4
REMARK    3  A    between atoms: C_4  and  N_5
REMARK    4  A    between atoms: C_8  and  N_9
REMARK    5  A    between atoms: C_10  and  C_12
REMARK    6  A    between atoms: C_12  and  S_13
REMARK    7  A    between atoms: C_12  and  C_14
REMARK    8  A    between atoms: C_14  and  C_15
REMARK    9  A    between atoms: C_24  and  C_25
REMARK                            x       y       z     vdW  Elec       q    Type
REMARK                         _______ _______ _______ _____ _____    ______ ____
ROOT
ATOM      1  N   UNL     1       3.280   3.871  17.266  0.00  0.00    +0.000 N 
ATOM      2  C   UNL     1       2.532   4.893  17.868  0.00  0.00    +0.000 C 
ATOM      3  O   UNL     1       1.316   4.758  18.043  0.00  0.00    +0.000 OA
ATOM      4  C   UNL     1       3.256   6.162  18.348  0.00  0.00    +0.000 C 
ATOM      5  C   UNL     1       4.209   5.875  19.515  0.00  0.00    +0.000 C 
ATOM      6  C   UNL     1       5.539   5.205  19.173  0.00  0.00    +0.000 C 
ATOM      7  C   UNL     1       5.470   3.892  18.401  0.00  0.00    +0.000 C 
ATOM      8  C   UNL     1       4.757   3.940  17.034  0.00  0.00    +0.000 C 
ENDROOT
BRANCH   8   9
ATOM      9  C   UNL     1       5.252   5.092  16.088  0.00  0.00    +0.000 C 
ATOM     10  C   UNL     1       5.039   4.830  14.596  0.00  0.00    +0.000 C 
ATOM     11  C   UNL     1       6.285   4.076  14.172  0.00  0.00    +0.000 C 
ATOM     12  C   UNL     1       7.409   4.755  14.942  0.00  0.00    +0.000 C 
ATOM     13  C   UNL     1       6.756   5.410  16.157  0.00  0.00    +0.000 C 
ENDBRANCH   8   9
BRANCH   4  14
ATOM     14  N   UNL     1       2.292   7.189  18.731  0.00  0.00    +0.000 N 
ATOM     15  C   UNL     1       2.268   8.380  18.036  0.00  0.00    +0.000 C 
ATOM     16  O   UNL     1       3.069   8.616  17.131  0.00  0.00    +0.000 OA
ATOM     17  H   UNL     1       1.651   6.998  19.497  0.00  0.00    +0.000 HD
BRANCH  15  18
ATOM     18  C   UNL     1       1.194   9.373  18.457  0.00  0.00    +0.000 C 
BRANCH  18  19
ATOM     19  S   UNL     1       1.920  11.057  18.404  0.00  0.00    +0.000 S 
ATOM     20  H   UNL     1       3.092  10.733  18.970  0.00  0.00    +0.000 HD
ENDBRANCH  18  19
BRANCH  18  21
ATOM     21  C   UNL     1      -0.006   9.212  17.507  0.00  0.00    +0.000 C 
BRANCH  21  22
ATOM     22  C   UNL     1      -1.200  10.071  17.831  0.00  0.00    +0.000 A 
ATOM     23  C   UNL     1      -2.280  10.130  16.940  0.00  0.00    +0.000 A 
ATOM     24  C   UNL     1      -3.393  10.922  17.230  0.00  0.00    +0.000 A 
ATOM     25  C   UNL     1      -3.437  11.657  18.406  0.00  0.00    +0.000 A 
ATOM     26  C   UNL     1      -2.377  11.591  19.307  0.00  0.00    +0.000 A 
ATOM     27  C   UNL     1      -1.260  10.797  19.023  0.00  0.00    +0.000 A 
ENDBRANCH  21  22
ENDBRANCH  18  21
ENDBRANCH  15  18
ENDBRANCH   4  14
BRANCH   1  28
ATOM     28  C   UNL     1       2.695   2.507  17.441  0.00  0.00    +0.000 C 
BRANCH  28  30
ATOM     29  O   UNL     1       2.716   2.089  19.832  0.00  0.00    +0.000 OA
ATOM     30  C   UNL     1       3.062   1.745  18.714  0.00  0.00    +0.000 C 
BRANCH  30  31
ATOM     31  O   UNL     1       3.886   0.697  18.501  0.00  0.00    +0.000 OA
ATOM     32  H   UNL     1       3.354  -0.120  18.499  0.00  0.00    +0.000 HD
ENDBRANCH  30  31
ENDBRANCH  28  30
ENDBRANCH   1  28
TORSDOF 9
ENDMDL
MODEL 3
REMARK VINA RESULT:      -7.2      3.880      9.015
REMARK  Name = 
REMARK  9 active torsions:
REMARK  status: ('A' for Active; 'I' for Inactive)
REMARK    1  A    between atoms: C_2  and  O_3
REMARK    2  A    between atoms: C_2  and  C_4
REMARK    3  A    between atoms: C_4  and  N_5
REMARK    4  A    between atoms: C_8  and  N_9
REMARK    5  A    between atoms: C_10  and  C_12
REMARK    6  A    between atoms: C_12  and  S_13
REMARK    7  A    between atoms: C_12  and  C_14
REMARK    8  A    between atoms: C_14  and  C_15
REMARK    9  A    between atoms: C_24  and  C_25
REMARK                            x       y       z     vdW  Elec       q    Type
REMARK                         _______ _______ _______ _____ _____    ______ ____
ROOT
ATOM      1  N   UNL     1      -0.260  11.594  21.254  0.00  0.00    +0.000 N 
ATOM      2  C   UNL     1       0.118  10.311  20.837  0.00  0.00    +0.000 C 
ATOM      3  O   UNL     1       0.152   9.374  21.644  0.00  0.00    +0.000 OA
ATOM      4  C   UNL     1       0.446  10.076  19.353  0.00  0.00    +0.000 C 
ATOM      5  C   UNL     1      -0.790  10.239  18.458  0.00  0.00    +0.000 C 
ATOM      6  C   UNL     1      -1.249  11.667  18.167  0.00  0.00    +0.000 C 
ATOM      7  C   UNL     1      -1.525  12.561  19.371  0.00  0.00    +0.000 C 
ATOM      8  C   UNL     1      -0.348  12.779  20.344  0.00  0.00    +0.000 C 
ENDROOT
BRANCH   8   9
ATOM      9  C   UNL     1       0.991  13.214  19.650  0.00  0.00    +0.000 C 
ATOM     10  C   UNL     1       2.195  13.313  20.589  0.00  0.00    +0.000 C 
ATOM     11  C   UNL     1       2.127  14.729  21.130  0.00  0.00    +0.000 C 
ATOM     12  C   UNL     1       1.691  15.562  19.932  0.00  0.00    +0.000 C 
ATOM     13  C   UNL     1       0.976  14.601  18.985  0.00  0.00    +0.000 C 
ENDBRANCH   8   9
BRANCH   4  14
ATOM     14  N   UNL     1       1.032   8.753  19.159  0.00  0.00    +0.000 N 
ATOM     15  C   UNL     1       1.967   8.573  18.162  0.00  0.00    +0.000 C 
ATOM     16  O   UNL     1       2.286   9.489  17.403  0.00  0.00    +0.000 OA
ATOM     17  H   UNL     1       0.744   7.995  19.772  0.00  0.00    +0.000 HD
BRANCH  15  18
ATOM     18  C   UNL     1       2.574   7.181  18.065  0.00  0.00    +0.000 C 
BRANCH  18  19
ATOM     19  S   UNL     1       4.247   7.337  17.329  0.00  0.00    +0.000 S 
ATOM     20  H   UNL     1       4.216   8.668  17.165  0.00  0.00    +0.000 HD
ENDBRANCH  18  19
BRANCH  18  21
ATOM     21  C   UNL     1       2.601   6.570  19.477  0.00  0.00    +0.000 C 
BRANCH  21  22
ATOM     22  C   UNL     1       2.046   5.174  19.583  0.00  0.00    +0.000 A 
ATOM     23  C   UNL     1       1.788   4.436  18.419  0.00  0.00    +0.000 A 
ATOM     24  C   UNL     1       1.273   3.140  18.504  0.00  0.00    +0.000 A 
ATOM     25  C   UNL     1       1.014   2.574  19.743  0.00  0.00    +0.000 A 
ATOM     26  C   UNL     1       1.285   3.292  20.906  0.00  0.00    +0.000 A 
ATOM     27  C   UNL     1       1.802   4.590  20.827  0.00  0.00    +0.000 A 
ENDBRANCH  21  22
ENDBRANCH  18  21
ENDBRANCH  15  18
ENDBRANCH   4  14
BRANCH   1  28
ATOM     28  C   UNL     1      -1.156  11.604  22.451  0.00  0.00    +0.000 C 
BRANCH  28  30
ATOM     29  O   UNL     1      -2.606  13.446  23.081  0.00  0.00    +0.000 OA
ATOM     30  C   UNL     1      -1.485  12.963  23.068  0.00  0.00    +0.000 C 
BRANCH  30  31
ATOM     31  O   UNL     1      -0.403  13.629  23.524  0.00  0.00    +0.000 OA
ATOM     32  H   UNL     1      -0.608  13.985  24.407  0.00  0.00    +0.000 HD
ENDBRANCH  30  31
ENDBRANCH  28  30
ENDBRANCH   1  28
TORSDOF 9
ENDMDL
MODEL 4
REMARK VINA RESULT:      -7.2      1.655      1.755
REMARK  Name = 
REMARK  9 active torsions:
REMARK  status: ('A' for Active; 'I' for Inactive)
REMARK    1  A    between atoms: C_2  and  O_3
REMARK    2  A    between atoms: C_2  and  C_4
REMARK    3  A    between atoms: C_4  and  N_5
REMARK    4  A    between atoms: C_8  and  N_9
REMARK    5  A    between atoms: C_10  and  C_12
REMARK    6  A    between atoms: C_12  and  S_13
REMARK    7  A    between atoms: C_12  and  C_14
REMARK    8  A    between atoms: C_14  and  C_15
REMARK    9  A    between atoms: C_24  and  C_25
REMARK                            x       y       z     vdW  Elec       q    Type
REMARK                         _______ _______ _______ _____ _____    ______ ____
ROOT
ATOM      1  N   UNL     1       3.324   3.815  17.254  0.00  0.00    +0.000 N 
ATOM      2  C   UNL     1       2.596   4.812  17.917  0.00  0.00    +0.000 C 
ATOM      3  O   UNL     1       1.391   4.658  18.149  0.00  0.00    +0.000 OA
ATOM      4  C   UNL     1       3.328   6.079  18.392  0.00  0.00    +0.000 C 
ATOM      5  C   UNL     1       4.341   5.775  19.503  0.00  0.00    +0.000 C 
ATOM      6  C   UNL     1       5.660   5.130  19.079  0.00  0.00    +0.000 C 
ATOM      7  C   UNL     1       5.567   3.835  18.279  0.00  0.00    +0.000 C 
ATOM      8  C   UNL     1       4.787   3.908  16.951  0.00  0.00    +0.000 C 
ENDROOT
BRANCH   8   9
ATOM      9  C   UNL     1       5.221   5.088  16.011  0.00  0.00    +0.000 C 
ATOM     10  C   UNL     1       5.010   4.827  14.518  0.00  0.00    +0.000 C 
ATOM     11  C   UNL     1       6.286   4.135  14.079  0.00  0.00    +0.000 C 
ATOM     12  C   UNL     1       7.383   4.860  14.847  0.00  0.00    +0.000 C 
ATOM     13  C   UNL     1       6.709   5.475  16.072  0.00  0.00    +0.000 C 
ENDBRANCH   8   9
BRANCH   4  14
ATOM     14  N   UNL     1       2.372   7.084  18.848  0.00  0.00    +0.000 N 
ATOM     15  C   UNL     1       2.247   8.260  18.139  0.00  0.00    +0.000 C 
ATOM     16  O   UNL     1       2.953   8.502  17.159  0.00  0.00    +0.000 OA
ATOM     17  H   UNL     1       1.812   6.888  19.673  0.00  0.00    +0.000 HD
BRANCH  15  18
ATOM     18  C   UNL     1       1.187   9.229  18.644  0.00  0.00    +0.000 C 
BRANCH  18  19
ATOM     19  S   UNL     1       0.991   8.973  20.449  0.00  0.00    +0.000 S 
ATOM     20  H   UNL     1       1.933   8.026  20.570  0.00  0.00    +0.000 HD
ENDBRANCH  18  19
BRANCH  18  21
ATOM     21  C   UNL     1       1.638  10.658  18.291  0.00  0.00    +0.000 C 
BRANCH  21  22
ATOM     22  C   UNL     1       0.794  11.759  18.877  0.00  0.00    +0.000 A 
ATOM     23  C   UNL     1      -0.585  11.790  18.626  0.00  0.00    +0.000 A 
ATOM     24  C   UNL     1      -1.379  12.806  19.164  0.00  0.00    +0.000 A 
ATOM     25  C   UNL     1      -0.806  13.792  19.953  0.00  0.00    +0.000 A 
ATOM     26  C   UNL     1       0.560  13.760  20.225  0.00  0.00    +0.000 A 
ATOM     27  C   UNL     1       1.360  12.743  19.690  0.00  0.00    +0.000 A 
ENDBRANCH  21  22
ENDBRANCH  18  21
ENDBRANCH  15  18
ENDBRANCH   4  14
BRANCH   1  28
ATOM     28  C   UNL     1       2.764   2.439  17.424  0.00  0.00    +0.000 C 
BRANCH  28  30
ATOM     29  O   UNL     1       2.849   2.009  19.811  0.00  0.00    +0.000 OA
ATOM     30  C   UNL     1       3.164   1.670  18.682  0.00  0.00    +0.000 C 
BRANCH  30  31
ATOM     31  O   UNL     1       3.980   0.621  18.441  0.00  0.00    +0.000 OA
ATOM     32  H   UNL     1       3.567  -0.182  18.806  0.00  0.00    +0.000 HD
ENDBRANCH  30  31
ENDBRANCH  28  30
ENDBRANCH   1  28
TORSDOF 9
ENDMDL
MODEL 5
REMARK VINA RESULT:      -7.2      3.769      8.949
REMARK  Name = 
REMARK  9 active torsions:
REMARK  status: ('A' for Active; 'I' for Inactive)
REMARK    1  A    between atoms: C_2  and  O_3
REMARK    2  A    between atoms: C_2  and  C_4
REMARK    3  A    between atoms: C_4  and  N_5
REMARK    4  A    between atoms: C_8  and  N_9
REMARK    5  A    between atoms: C_10  and  C_12
REMARK    6  A    between atoms: C_12  and  S_13
REMARK    7  A    between atoms: C_12  and  C_14
REMARK    8  A    between atoms: C_14  and  C_15
REMARK    9  A    between atoms: C_24  and  C_25
REMARK                            x       y       z     vdW  Elec       q    Type
REMARK                         _______ _______ _______ _____ _____    ______ ____
ROOT
ATOM      1  N   UNL     1      -1.041  11.511  18.640  0.00  0.00    +0.000 N 
ATOM      2  C   UNL     1      -0.223  10.477  18.163  0.00  0.00    +0.000 C 
ATOM      3  O   UNL     1      -0.685   9.605  17.419  0.00  0.00    +0.000 OA
ATOM      4  C   UNL     1       1.268  10.472  18.543  0.00  0.00    +0.000 C 
ATOM      5  C   UNL     1       2.025  11.652  17.921  0.00  0.00    +0.000 C 
ATOM      6  C   UNL     1       1.828  13.021  18.573  0.00  0.00    +0.000 C 
ATOM      7  C   UNL     1       0.393  13.516  18.715  0.00  0.00    +0.000 C 
ATOM      8  C   UNL     1      -0.562  12.617  19.527  0.00  0.00    +0.000 C 
ENDROOT
BRANCH   8   9
ATOM      9  C   UNL     1      -0.004  12.182  20.929  0.00  0.00    +0.000 C 
ATOM     10  C   UNL     1      -0.836  11.117  21.645  0.00  0.00    +0.000 C 
ATOM     11  C   UNL     1      -1.875  11.913  22.412  0.00  0.00    +0.000 C 
ATOM     12  C   UNL     1      -1.111  13.128  22.920  0.00  0.00    +0.000 C 
ATOM     13  C   UNL     1       0.084  13.298  21.985  0.00  0.00    +0.000 C 
ENDBRANCH   8   9
BRANCH   4  14
ATOM     14  N   UNL     1       1.894   9.214  18.149  0.00  0.00    +0.000 N 
ATOM     15  C   UNL     1       1.973   8.187  19.066  0.00  0.00    +0.000 C 
ATOM     16  O   UNL     1       1.569   8.322  20.222  0.00  0.00    +0.000 OA
ATOM     17  H   UNL     1       2.249   9.119  17.201  0.00  0.00    +0.000 HD
BRANCH  15  18
ATOM     18  C   UNL     1       2.584   6.889  18.559  0.00  0.00    +0.000 C 
BRANCH  18  19
ATOM     19  S   UNL     1       4.063   7.306  17.557  0.00  0.00    +0.000 S 
ATOM     20  H   UNL     1       4.522   6.051  17.438  0.00  0.00    +0.000 HD
ENDBRANCH  18  19
BRANCH  18  21
ATOM     21  C   UNL     1       2.919   6.009  19.776  0.00  0.00    +0.000 C 
BRANCH  21  22
ATOM     22  C   UNL     1       2.223   4.675  19.815  0.00  0.00    +0.000 A 
ATOM     23  C   UNL     1       2.022   4.027  21.042  0.00  0.00    +0.000 A 
ATOM     24  C   UNL     1       1.377   2.789  21.090  0.00  0.00    +0.000 A 
ATOM     25  C   UNL     1       0.928   2.192  19.921  0.00  0.00    +0.000 A 
ATOM     26  C   UNL     1       1.106   2.836  18.699  0.00  0.00    +0.000 A 
ATOM     27  C   UNL     1       1.750   4.078  18.644  0.00  0.00    +0.000 A 
ENDBRANCH  21  22
ENDBRANCH  18  21
ENDBRANCH  15  18
ENDBRANCH   4  14
BRANCH   1  28
ATOM     28  C   UNL     1      -2.204  11.821  17.754  0.00  0.00    +0.000 C 
BRANCH  28  30
ATOM     29  O   UNL     1      -4.283  10.583  17.944  0.00  0.00    +0.000 OA
ATOM     30  C   UNL     1      -3.601  11.528  18.303  0.00  0.00    +0.000 C 
BRANCH  30  31
ATOM     31  O   UNL     1      -4.054  12.466  19.162  0.00  0.00    +0.000 OA
ATOM     32  H   UNL     1      -5.011  12.333  19.288  0.00  0.00    +0.000 HD
ENDBRANCH  30  31
ENDBRANCH  28  30
ENDBRANCH   1  28
TORSDOF 9
ENDMDL
MODEL 6
REMARK VINA RESULT:      -7.1      3.949      9.014
REMARK  Name = 
REMARK  9 active torsions:
REMARK  status: ('A' for Active; 'I' for Inactive)
REMARK    1  A    between atoms: C_2  and  O_3
REMARK    2  A    between atoms: C_2  and  C_4
REMARK    3  A    between atoms: C_4  and  N_5
REMARK    4  A    between atoms: C_8  and  N_9
REMARK    5  A    between atoms: C_10  and  C_12
REMARK    6  A    between atoms: C_12  and  S_13
REMARK    7  A    between atoms: C_12  and  C_14
REMARK    8  A    between atoms: C_14  and  C_15
REMARK    9  A    between atoms: C_24  and  C_25
REMARK                            x       y       z     vdW  Elec       q    Type
REMARK                         _______ _______ _______ _____ _____    ______ ____
ROOT
ATOM      1  N   UNL     1      -0.426  11.643  21.142  0.00  0.00    +0.000 N 
ATOM      2  C   UNL     1      -0.043  10.364  20.716  0.00  0.00    +0.000 C 
ATOM      3  O   UNL     1       0.027   9.429  21.522  0.00  0.00    +0.000 OA
ATOM      4  C   UNL     1       0.242  10.132  19.222  0.00  0.00    +0.000 C 
ATOM      5  C   UNL     1      -1.022  10.277  18.365  0.00  0.00    +0.000 C 
ATOM      6  C   UNL     1      -1.509  11.699  18.086  0.00  0.00    +0.000 C 
ATOM      7  C   UNL     1      -1.760  12.590  19.297  0.00  0.00    +0.000 C 
ATOM      8  C   UNL     1      -0.557  12.825  20.234  0.00  0.00    +0.000 C 
ENDROOT
BRANCH   8   9
ATOM      9  C   UNL     1       0.755  13.277  19.499  0.00  0.00    +0.000 C 
ATOM     10  C   UNL     1       2.008  13.284  20.376  0.00  0.00    +0.000 C 
ATOM     11  C   UNL     1       2.006  14.660  21.014  0.00  0.00    +0.000 C 
ATOM     12  C   UNL     1       1.530  15.583  19.902  0.00  0.00    +0.000 C 
ATOM     13  C   UNL     1       0.741  14.707  18.932  0.00  0.00    +0.000 C 
ENDBRANCH   8   9
BRANCH   4  14
ATOM     14  N   UNL     1       0.839   8.816  19.012  0.00  0.00    +0.000 N 
ATOM     15  C   UNL     1       1.964   8.708  18.221  0.00  0.00    +0.000 C 
ATOM     16  O   UNL     1       2.448   9.687  17.651  0.00  0.00    +0.000 OA
ATOM     17  H   UNL     1       0.417   8.009  19.463  0.00  0.00    +0.000 HD
BRANCH  15  18
ATOM     18  C   UNL     1       2.560   7.313  18.102  0.00  0.00    +0.000 C 
BRANCH  18  19
ATOM     19  S   UNL     1       4.233   7.467  17.365  0.00  0.00    +0.000 S 
ATOM     20  H   UNL     1       4.835   6.583  18.175  0.00  0.00    +0.000 HD
ENDBRANCH  18  19
BRANCH  18  21
ATOM     21  C   UNL     1       2.584   6.681  19.505  0.00  0.00    +0.000 C 
BRANCH  21  22
ATOM     22  C   UNL     1       2.029   5.283  19.587  0.00  0.00    +0.000 A 
ATOM     23  C   UNL     1       1.737   4.721  20.838  0.00  0.00    +0.000 A 
ATOM     24  C   UNL     1       1.222   3.426  20.927  0.00  0.00    +0.000 A 
ATOM     25  C   UNL     1       0.995   2.686  19.776  0.00  0.00    +0.000 A 
ATOM     26  C   UNL     1       1.263   3.243  18.527  0.00  0.00    +0.000 A 
ATOM     27  C   UNL     1       1.778   4.541  18.431  0.00  0.00    +0.000 A 
ENDBRANCH  21  22
ENDBRANCH  18  21
ENDBRANCH  15  18
ENDBRANCH   4  14
BRANCH   1  28
ATOM     28  C   UNL     1      -1.285  11.643  22.366  0.00  0.00    +0.000 C 
BRANCH  28  30
ATOM     29  O   UNL     1      -0.351  13.575  23.501  0.00  0.00    +0.000 OA
ATOM     30  C   UNL     1      -1.340  12.933  23.183  0.00  0.00    +0.000 C 
BRANCH  30  31
ATOM     31  O   UNL     1      -2.581  13.258  23.604  0.00  0.00    +0.000 OA
ATOM     32  H   UNL     1      -3.143  12.464  23.552  0.00  0.00    +0.000 HD
ENDBRANCH  30  31
ENDBRANCH  28  30
ENDBRANCH   1  28
TORSDOF 9
ENDMDL
MODEL 7
REMARK VINA RESULT:      -7.0      3.294      9.290
REMARK  Name = 
REMARK  9 active torsions:
REMARK  status: ('A' for Active; 'I' for Inactive)
REMARK    1  A    between atoms: C_2  and  O_3
REMARK    2  A    between atoms: C_2  and  C_4
REMARK    3  A    between atoms: C_4  and  N_5
REMARK    4  A    between atoms: C_8  and  N_9
REMARK    5  A    between atoms: C_10  and  C_12
REMARK    6  A    between atoms: C_12  and  S_13
REMARK    7  A    between atoms: C_12  and  C_14
REMARK    8  A    between atoms: C_14  and  C_15
REMARK    9  A    between atoms: C_24  and  C_25
REMARK                            x       y       z     vdW  Elec       q    Type
REMARK                         _______ _______ _______ _____ _____    ______ ____
ROOT
ATOM      1  N   UNL     1      -1.085  11.445  18.802  0.00  0.00    +0.000 N 
ATOM      2  C   UNL     1      -0.253  10.357  18.506  0.00  0.00    +0.000 C 
ATOM      3  O   UNL     1      -0.664   9.427  17.802  0.00  0.00    +0.000 OA
ATOM      4  C   UNL     1       1.193  10.360  19.030  0.00  0.00    +0.000 C 
ATOM      5  C   UNL     1       2.039  11.463  18.380  0.00  0.00    +0.000 C 
ATOM      6  C   UNL     1       1.817  12.890  18.882  0.00  0.00    +0.000 C 
ATOM      7  C   UNL     1       0.389  13.422  18.835  0.00  0.00    +0.000 C 
ATOM      8  C   UNL     1      -0.664  12.621  19.628  0.00  0.00    +0.000 C 
ENDROOT
BRANCH   8   9
ATOM      9  C   UNL     1      -0.257  12.309  21.111  0.00  0.00    +0.000 C 
ATOM     10  C   UNL     1      -1.258  11.446  21.881  0.00  0.00    +0.000 C 
ATOM     11  C   UNL     1      -2.239  12.446  22.462  0.00  0.00    +0.000 C 
ATOM     12  C   UNL     1      -1.366  13.622  22.880  0.00  0.00    +0.000 C 
ATOM     13  C   UNL     1      -0.101  13.534  22.030  0.00  0.00    +0.000 C 
ENDBRANCH   8   9
BRANCH   4  14
ATOM     14  N   UNL     1       1.820   9.059  18.816  0.00  0.00    +0.000 N 
ATOM     15  C   UNL     1       1.935   8.187  19.878  0.00  0.00    +0.000 C 
ATOM     16  O   UNL     1       1.563   8.496  21.011  0.00  0.00    +0.000 OA
ATOM     17  H   UNL     1       2.149   8.821  17.884  0.00  0.00    +0.000 HD
BRANCH  15  18
ATOM     18  C   UNL     1       2.544   6.829  19.559  0.00  0.00    +0.000 C 
BRANCH  18  19
ATOM     19  S   UNL     1       1.639   5.556  20.520  0.00  0.00    +0.000 S 
ATOM     20  H   UNL     1       0.566   5.496  19.717  0.00  0.00    +0.000 HD
ENDBRANCH  18  19
BRANCH  18  21
ATOM     21  C   UNL     1       2.448   6.606  18.039  0.00  0.00    +0.000 C 
BRANCH  21  22
ATOM     22  C   UNL     1       3.634   5.920  17.416  0.00  0.00    +0.000 A 
ATOM     23  C   UNL     1       3.697   4.520  17.388  0.00  0.00    +0.000 A 
ATOM     24  C   UNL     1       4.792   3.872  16.813  0.00  0.00    +0.000 A 
ATOM     25  C   UNL     1       5.827   4.612  16.262  0.00  0.00    +0.000 A 
ATOM     26  C   UNL     1       5.766   6.004  16.266  0.00  0.00    +0.000 A 
ATOM     27  C   UNL     1       4.671   6.659  16.840  0.00  0.00    +0.000 A 
ENDBRANCH  21  22
ENDBRANCH  18  21
ENDBRANCH  15  18
ENDBRANCH   4  14
BRANCH   1  28
ATOM     28  C   UNL     1      -2.148  11.692  17.781  0.00  0.00    +0.000 C 
BRANCH  28  30
ATOM     29  O   UNL     1      -4.356  10.684  17.815  0.00  0.00    +0.000 OA
ATOM     30  C   UNL     1      -3.601  11.546  18.233  0.00  0.00    +0.000 C 
BRANCH  30  31
ATOM     31  O   UNL     1      -4.007  12.518  19.078  0.00  0.00    +0.000 OA
ATOM     32  H   UNL     1      -4.958  12.674  18.936  0.00  0.00    +0.000 HD
ENDBRANCH  30  31
ENDBRANCH  28  30
ENDBRANCH   1  28
TORSDOF 9
ENDMDL
MODEL 8
REMARK VINA RESULT:      -6.9      1.747      2.267
REMARK  Name = 
REMARK  9 active torsions:
REMARK  status: ('A' for Active; 'I' for Inactive)
REMARK    1  A    between atoms: C_2  and  O_3
REMARK    2  A    between atoms: C_2  and  C_4
REMARK    3  A    between atoms: C_4  and  N_5
REMARK    4  A    between atoms: C_8  and  N_9
REMARK    5  A    between atoms: C_10  and  C_12
REMARK    6  A    between atoms: C_12  and  S_13
REMARK    7  A    between atoms: C_12  and  C_14
REMARK    8  A    between atoms: C_14  and  C_15
REMARK    9  A    between atoms: C_24  and  C_25
REMARK                            x       y       z     vdW  Elec       q    Type
REMARK                         _______ _______ _______ _____ _____    ______ ____
ROOT
ATOM      1  N   UNL     1       3.294   3.914  17.229  0.00  0.00    +0.000 N 
ATOM      2  C   UNL     1       2.557   4.948  17.822  0.00  0.00    +0.000 C 
ATOM      3  O   UNL     1       1.340   4.824  18.006  0.00  0.00    +0.000 OA
ATOM      4  C   UNL     1       3.292   6.218  18.281  0.00  0.00    +0.000 C 
ATOM      5  C   UNL     1       4.250   5.939  19.446  0.00  0.00    +0.000 C 
ATOM      6  C   UNL     1       5.574   5.255  19.105  0.00  0.00    +0.000 C 
ATOM      7  C   UNL     1       5.490   3.933  18.350  0.00  0.00    +0.000 C 
ATOM      8  C   UNL     1       4.770   3.969  16.987  0.00  0.00    +0.000 C 
ENDROOT
BRANCH   8   9
ATOM      9  C   UNL     1       5.267   5.106  16.024  0.00  0.00    +0.000 C 
ATOM     10  C   UNL     1       5.042   4.827  14.537  0.00  0.00    +0.000 C 
ATOM     11  C   UNL     1       6.279   4.058  14.113  0.00  0.00    +0.000 C 
ATOM     12  C   UNL     1       7.414   4.738  14.867  0.00  0.00    +0.000 C 
ATOM     13  C   UNL     1       6.774   5.412  16.078  0.00  0.00    +0.000 C 
ENDBRANCH   8   9
BRANCH   4  14
ATOM     14  N   UNL     1       2.337   7.257  18.657  0.00  0.00    +0.000 N 
ATOM     15  C   UNL     1       1.850   7.285  19.947  0.00  0.00    +0.000 C 
ATOM     16  O   UNL     1       2.165   6.429  20.775  0.00  0.00    +0.000 OA
ATOM     17  H   UNL     1       2.062   7.944  17.961  0.00  0.00    +0.000 HD
BRANCH  15  18
ATOM     18  C   UNL     1       0.908   8.434  20.275  0.00  0.00    +0.000 C 
BRANCH  18  19
ATOM     19  S   UNL     1       1.286   9.016  21.973  0.00  0.00    +0.000 S 
ATOM     20  H   UNL     1       0.169   8.543  22.546  0.00  0.00    +0.000 HD
ENDBRANCH  18  19
BRANCH  18  21
ATOM     21  C   UNL     1       1.102   9.531  19.214  0.00  0.00    +0.000 C 
BRANCH  21  22
ATOM     22  C   UNL     1      -0.157  10.235  18.781  0.00  0.00    +0.000 A 
ATOM     23  C   UNL     1      -0.598  11.369  19.478  0.00  0.00    +0.000 A 
ATOM     24  C   UNL     1      -1.764  12.030  19.086  0.00  0.00    +0.000 A 
ATOM     25  C   UNL     1      -2.495  11.568  18.002  0.00  0.00    +0.000 A 
ATOM     26  C   UNL     1      -2.056  10.453  17.291  0.00  0.00    +0.000 A 
ATOM     27  C   UNL     1      -0.887   9.788  17.678  0.00  0.00    +0.000 A 
ENDBRANCH  21  22
ENDBRANCH  18  21
ENDBRANCH  15  18
ENDBRANCH   4  14
BRANCH   1  28
ATOM     28  C   UNL     1       2.700   2.556  17.424  0.00  0.00    +0.000 C 
BRANCH  28  30
ATOM     29  O   UNL     1       2.812   2.131  19.811  0.00  0.00    +0.000 OA
ATOM     30  C   UNL     1       3.110   1.786  18.679  0.00  0.00    +0.000 C 
BRANCH  30  31
ATOM     31  O   UNL     1       3.914   0.730  18.431  0.00  0.00    +0.000 OA
ATOM     32  H   UNL     1       4.705   1.047  17.958  0.00  0.00    +0.000 HD
ENDBRANCH  30  31
ENDBRANCH  28  30
ENDBRANCH   1  28
TORSDOF 9
ENDMDL
MODEL 9
REMARK VINA RESULT:      -6.7      3.254      9.418
REMARK  Name = 
REMARK  9 active torsions:
REMARK  status: ('A' for Active; 'I' for Inactive)
REMARK    1  A    between atoms: C_2  and  O_3
REMARK    2  A    between atoms: C_2  and  C_4
REMARK    3  A    between atoms: C_4  and  N_5
REMARK    4  A    between atoms: C_8  and  N_9
REMARK    5  A    between atoms: C_10  and  C_12
REMARK    6  A    between atoms: C_12  and  S_13
REMARK    7  A    between atoms: C_12  and  C_14
REMARK    8  A    between atoms: C_14  and  C_15
REMARK    9  A    between atoms: C_24  and  C_25
REMARK                            x       y       z     vdW  Elec       q    Type
REMARK                         _______ _______ _______ _____ _____    ______ ____
ROOT
ATOM      1  N   UNL     1      -1.677  11.421  19.507  0.00  0.00    +0.000 N 
ATOM      2  C   UNL     1      -0.789  10.413  19.107  0.00  0.00    +0.000 C 
ATOM      3  O   UNL     1      -1.197   9.435  18.469  0.00  0.00    +0.000 OA
ATOM      4  C   UNL     1       0.706  10.566  19.432  0.00  0.00    +0.000 C 
ATOM      5  C   UNL     1       1.345  11.734  18.669  0.00  0.00    +0.000 C 
ATOM      6  C   UNL     1       1.053  13.141  19.189  0.00  0.00    +0.000 C 
ATOM      7  C   UNL     1      -0.414  13.531  19.332  0.00  0.00    +0.000 C 
ATOM      8  C   UNL     1      -1.269  12.646  20.262  0.00  0.00    +0.000 C 
ENDROOT
BRANCH   8   9
ATOM      9  C   UNL     1      -0.638  12.403  21.680  0.00  0.00    +0.000 C 
ATOM     10  C   UNL     1      -1.440  11.463  22.582  0.00  0.00    +0.000 C 
ATOM     11  C   UNL     1      -2.427  12.376  23.284  0.00  0.00    +0.000 C 
ATOM     12  C   UNL     1      -1.624  13.637  23.574  0.00  0.00    +0.000 C 
ATOM     13  C   UNL     1      -0.481  13.654  22.562  0.00  0.00    +0.000 C 
ENDBRANCH   8   9
BRANCH   4  14
ATOM     14  N   UNL     1       1.424   9.328  19.142  0.00  0.00    +0.000 N 
ATOM     15  C   UNL     1       1.666   8.437  20.167  0.00  0.00    +0.000 C 
ATOM     16  O   UNL     1       1.332   8.682  21.327  0.00  0.00    +0.000 OA
ATOM     17  H   UNL     1       1.721   9.146  18.187  0.00  0.00    +0.000 HD
BRANCH  15  18
ATOM     18  C   UNL     1       2.365   7.145  19.771  0.00  0.00    +0.000 C 
BRANCH  18  19
ATOM     19  S   UNL     1       1.562   5.762  20.670  0.00  0.00    +0.000 S 
ATOM     20  H   UNL     1       0.375   5.849  20.050  0.00  0.00    +0.000 HD
ENDBRANCH  18  19
BRANCH  18  21
ATOM     21  C   UNL     1       2.268   6.996  18.242  0.00  0.00    +0.000 C 
BRANCH  21  22
ATOM     22  C   UNL     1       3.364   6.183  17.607  0.00  0.00    +0.000 A 
ATOM     23  C   UNL     1       4.487   6.825  17.067  0.00  0.00    +0.000 A 
ATOM     24  C   UNL     1       5.511   6.081  16.475  0.00  0.00    +0.000 A 
ATOM     25  C   UNL     1       5.422   4.698  16.419  0.00  0.00    +0.000 A 
ATOM     26  C   UNL     1       4.320   4.049  16.970  0.00  0.00    +0.000 A 
ATOM     27  C   UNL     1       3.293   4.789  17.565  0.00  0.00    +0.000 A 
ENDBRANCH  21  22
ENDBRANCH  18  21
ENDBRANCH  15  18
ENDBRANCH   4  14
BRANCH   1  28
ATOM     28  C   UNL     1      -2.886  11.545  18.636  0.00  0.00    +0.000 C 
BRANCH  28  30
ATOM     29  O   UNL     1      -3.320  10.795  16.369  0.00  0.00    +0.000 OA
ATOM     30  C   UNL     1      -2.668  11.498  17.124  0.00  0.00    +0.000 C 
BRANCH  30  31
ATOM     31  O   UNL     1      -1.623  12.242  16.703  0.00  0.00    +0.000 OA
ATOM     32  H   UNL     1      -1.890  12.723  15.899  0.00  0.00    +0.000 HD
ENDBRANCH  30  31
ENDBRANCH  28  30
ENDBRANCH   1  28
TORSDOF 9
ENDMDL
