MODEL 1
REMARK VINA RESULT:      -8.2      0.000      0.000
REMARK  Name = 
REMARK  5 active torsions:
REMARK  status: ('A' for Active; 'I' for Inactive)
REMARK    1  A    between atoms: C_1  and  C_2
REMARK    2  A    between atoms: C_7  and  N_8
REMARK    3  A    between atoms: N_8  and  P_9
REMARK    4  A    between atoms: N_15  and  C_16
REMARK    5  A    between atoms: C_16  and  C_17
REMARK                            x       y       z     vdW  Elec       q    Type
REMARK                         _______ _______ _______ _____ _____    ______ ____
ROOT
ATOM      1  P   UNL     1       1.926   4.140  18.836  0.00  0.00    +0.000 P 
ATOM      2  O   UNL     1       1.297   4.091  17.473  0.00  0.00    +0.000 OA
ATOM      3  O   UNL     1       0.970   3.346  19.846  0.00  0.00    +0.000 OA
ATOM      4  C   UNL     1       1.356   3.131  21.167  0.00  0.00    +0.000 C 
ATOM      5  C   UNL     1       2.825   2.749  21.306  0.00  0.00    +0.000 C 
ATOM      6  C   UNL     1       3.649   2.494  19.996  0.00  0.00    +0.000 C 
ATOM      7  N   UNL     1       3.373   3.421  18.911  0.00  0.00    +0.000 NA
ENDROOT
BRANCH   1   8
ATOM      8  N   UNL     1       2.399   5.594  19.362  0.00  0.00    +0.000 N 
ATOM      9  H   UNL     1       2.917   5.357  20.205  0.00  0.00    +0.000 HD
BRANCH   8  16
ATOM     10  C   UNL     1       3.113   7.504  17.628  0.00  0.00    +0.000 C 
ATOM     11  C   UNL     1       2.188   7.866  18.763  0.00  0.00    +0.000 A 
ATOM     12  C   UNL     1       1.783   9.190  18.976  0.00  0.00    +0.000 A 
ATOM     13  C   UNL     1       1.089   9.542  20.135  0.00  0.00    +0.000 A 
ATOM     14  C   UNL     1       0.870   8.575  21.106  0.00  0.00    +0.000 A 
ATOM     15  C   UNL     1       1.302   7.259  20.892  0.00  0.00    +0.000 A 
ATOM     16  C   UNL     1       1.860   6.857  19.676  0.00  0.00    +0.000 A 
ENDBRANCH   8  16
ENDBRANCH   1   8
BRANCH   7  17
ATOM     17  C   UNL     1       4.227   3.580  17.729  0.00  0.00    +0.000 C 
BRANCH  17  18
ATOM     18  C   UNL     1       5.381   4.580  17.833  0.00  0.00    +0.000 A 
ATOM     19  C   UNL     1       5.935   4.834  19.111  0.00  0.00    +0.000 A 
ATOM     20  C   UNL     1       7.032   5.696  19.258  0.00  0.00    +0.000 A 
ATOM     21  C   UNL     1       7.617   6.328  18.166  0.00  0.00    +0.000 A 
ATOM     22  C   UNL     1       7.100   6.090  16.899  0.00  0.00    +0.000 A 
ATOM     23  C   UNL     1       5.996   5.229  16.729  0.00  0.00    +0.000 A 
ATOM     24 CL   UNL     1       5.464   5.005  15.102  0.00  0.00    +0.000 Cl
ENDBRANCH  17  18
ENDBRANCH   7  17
TORSDOF 4
ENDMDL
MODEL 2
REMARK VINA RESULT:      -8.0      0.594      1.490
REMARK  Name = 
REMARK  5 active torsions:
REMARK  status: ('A' for Active; 'I' for Inactive)
REMARK    1  A    between atoms: C_1  and  C_2
REMARK    2  A    between atoms: C_7  and  N_8
REMARK    3  A    between atoms: N_8  and  P_9
REMARK    4  A    between atoms: N_15  and  C_16
REMARK    5  A    between atoms: C_16  and  C_17
REMARK                            x       y       z     vdW  Elec       q    Type
REMARK                         _______ _______ _______ _____ _____    ______ ____
ROOT
ATOM      1  P   UNL     1       2.062   4.342  18.723  0.00  0.00    +0.000 P 
ATOM      2  O   UNL     1       1.523   4.313  17.321  0.00  0.00    +0.000 OA
ATOM      3  O   UNL     1       1.051   3.520  19.654  0.00  0.00    +0.000 OA
ATOM      4  C   UNL     1       1.353   3.285  20.994  0.00  0.00    +0.000 C 
ATOM      5  C   UNL     1       2.814   2.915  21.222  0.00  0.00    +0.000 C 
ATOM      6  C   UNL     1       3.725   2.693  19.964  0.00  0.00    +0.000 C 
ATOM      7  N   UNL     1       3.509   3.637  18.879  0.00  0.00    +0.000 NA
ENDROOT
BRANCH   1   8
ATOM      8  N   UNL     1       2.483   5.791  19.304  0.00  0.00    +0.000 N 
ATOM      9  H   UNL     1       2.221   5.711  20.284  0.00  0.00    +0.000 HD
BRANCH   8  16
ATOM     10  C   UNL     1       1.130   7.044  21.243  0.00  0.00    +0.000 C 
ATOM     11  C   UNL     1       1.608   7.847  20.059  0.00  0.00    +0.000 A 
ATOM     12  C   UNL     1       1.274   9.200  19.916  0.00  0.00    +0.000 A 
ATOM     13  C   UNL     1       1.555   9.879  18.730  0.00  0.00    +0.000 A 
ATOM     14  C   UNL     1       2.107   9.175  17.668  0.00  0.00    +0.000 A 
ATOM     15  C   UNL     1       2.415   7.816  17.815  0.00  0.00    +0.000 A 
ATOM     16  C   UNL     1       2.281   7.160  19.042  0.00  0.00    +0.000 A 
ENDBRANCH   8  16
ENDBRANCH   1   8
BRANCH   7  17
ATOM     17  C   UNL     1       4.436   3.826  17.759  0.00  0.00    +0.000 C 
BRANCH  17  18
ATOM     18  C   UNL     1       5.552   4.858  17.945  0.00  0.00    +0.000 A 
ATOM     19  C   UNL     1       6.286   4.841  19.155  0.00  0.00    +0.000 A 
ATOM     20  C   UNL     1       7.357   5.723  19.356  0.00  0.00    +0.000 A 
ATOM     21  C   UNL     1       7.742   6.640  18.384  0.00  0.00    +0.000 A 
ATOM     22  C   UNL     1       7.045   6.673  17.183  0.00  0.00    +0.000 A 
ATOM     23  C   UNL     1       5.963   5.797  16.961  0.00  0.00    +0.000 A 
ATOM     24 CL   UNL     1       5.195   5.928  15.420  0.00  0.00    +0.000 Cl
ENDBRANCH  17  18
ENDBRANCH   7  17
TORSDOF 4
ENDMDL
MODEL 3
REMARK VINA RESULT:      -7.6      2.445      5.115
REMARK  Name = 
REMARK  5 active torsions:
REMARK  status: ('A' for Active; 'I' for Inactive)
REMARK    1  A    between atoms: C_1  and  C_2
REMARK    2  A    between atoms: C_7  and  N_8
REMARK    3  A    between atoms: N_8  and  P_9
REMARK    4  A    between atoms: N_15  and  C_16
REMARK    5  A    between atoms: C_16  and  C_17
REMARK                            x       y       z     vdW  Elec       q    Type
REMARK                         _______ _______ _______ _____ _____    ______ ____
ROOT
ATOM      1  P   UNL     1       4.078   3.063  19.567  0.00  0.00    +0.000 P 
ATOM      2  O   UNL     1       4.287   2.926  21.048  0.00  0.00    +0.000 OA
ATOM      3  O   UNL     1       3.387   1.717  19.043  0.00  0.00    +0.000 OA
ATOM      4  C   UNL     1       2.972   1.603  17.718  0.00  0.00    +0.000 C 
ATOM      5  C   UNL     1       2.304   2.867  17.189  0.00  0.00    +0.000 C 
ATOM      6  C   UNL     1       2.026   4.034  18.199  0.00  0.00    +0.000 C 
ATOM      7  N   UNL     1       3.092   4.278  19.158  0.00  0.00    +0.000 NA
ENDROOT
BRANCH   1   8
ATOM      8  N   UNL     1       5.356   3.543  18.700  0.00  0.00    +0.000 N 
ATOM      9  H   UNL     1       6.084   2.912  19.026  0.00  0.00    +0.000 HD
BRANCH   8  16
ATOM     10  C   UNL     1       5.422   4.091  16.081  0.00  0.00    +0.000 C 
ATOM     11  C   UNL     1       6.096   5.043  17.037  0.00  0.00    +0.000 A 
ATOM     12  C   UNL     1       6.829   6.143  16.571  0.00  0.00    +0.000 A 
ATOM     13  C   UNL     1       7.605   6.901  17.448  0.00  0.00    +0.000 A 
ATOM     14  C   UNL     1       7.696   6.508  18.777  0.00  0.00    +0.000 A 
ATOM     15  C   UNL     1       6.977   5.392  19.225  0.00  0.00    +0.000 A 
ATOM     16  C   UNL     1       6.078   4.714  18.397  0.00  0.00    +0.000 A 
ENDBRANCH   8  16
ENDBRANCH   1   8
BRANCH   7  17
ATOM     17  C   UNL     1       3.201   5.491  19.974  0.00  0.00    +0.000 C 
BRANCH  17  18
ATOM     18  C   UNL     1       2.801   6.813  19.314  0.00  0.00    +0.000 A 
ATOM     19  C   UNL     1       3.323   7.106  18.031  0.00  0.00    +0.000 A 
ATOM     20  C   UNL     1       2.944   8.274  17.353  0.00  0.00    +0.000 A 
ATOM     21  C   UNL     1       2.046   9.182  17.904  0.00  0.00    +0.000 A 
ATOM     22  C   UNL     1       1.511   8.915  19.158  0.00  0.00    +0.000 A 
ATOM     23  C   UNL     1       1.880   7.748  19.858  0.00  0.00    +0.000 A 
ATOM     24 CL   UNL     1       1.128   7.527  21.397  0.00  0.00    +0.000 Cl
ENDBRANCH  17  18
ENDBRANCH   7  17
TORSDOF 4
ENDMDL
MODEL 4
REMARK VINA RESULT:      -7.6      3.513      6.774
REMARK  Name = 
REMARK  5 active torsions:
REMARK  status: ('A' for Active; 'I' for Inactive)
REMARK    1  A    between atoms: C_1  and  C_2
REMARK    2  A    between atoms: C_7  and  N_8
REMARK    3  A    between atoms: N_8  and  P_9
REMARK    4  A    between atoms: N_15  and  C_16
REMARK    5  A    between atoms: C_16  and  C_17
REMARK                            x       y       z     vdW  Elec       q    Type
REMARK                         _______ _______ _______ _____ _____    ______ ____
ROOT
ATOM      1  P   UNL     1       5.763   6.358  16.458  0.00  0.00    +0.000 P 
ATOM      2  O   UNL     1       4.487   6.991  15.979  0.00  0.00    +0.000 OA
ATOM      3  O   UNL     1       6.617   7.486  17.207  0.00  0.00    +0.000 OA
ATOM      4  C   UNL     1       7.807   7.160  17.856  0.00  0.00    +0.000 C 
ATOM      5  C   UNL     1       7.726   5.851  18.633  0.00  0.00    +0.000 C 
ATOM      6  C   UNL     1       6.330   5.143  18.744  0.00  0.00    +0.000 C 
ATOM      7  N   UNL     1       5.537   5.164  17.525  0.00  0.00    +0.000 NA
ENDROOT
BRANCH   1   8
ATOM      8  N   UNL     1       6.594   5.498  15.370  0.00  0.00    +0.000 N 
ATOM      9  H   UNL     1       7.253   6.187  15.013  0.00  0.00    +0.000 HD
BRANCH   8  16
ATOM     10  C   UNL     1       8.444   5.805  13.461  0.00  0.00    +0.000 C 
ATOM     11  C   UNL     1       7.351   4.787  13.252  0.00  0.00    +0.000 A 
ATOM     12  C   UNL     1       7.236   4.080  12.048  0.00  0.00    +0.000 A 
ATOM     13  C   UNL     1       6.115   3.289  11.793  0.00  0.00    +0.000 A 
ATOM     14  C   UNL     1       5.083   3.268  12.721  0.00  0.00    +0.000 A 
ATOM     15  C   UNL     1       5.199   3.999  13.912  0.00  0.00    +0.000 A 
ATOM     16  C   UNL     1       6.376   4.673  14.249  0.00  0.00    +0.000 A 
ENDBRANCH   8  16
ENDBRANCH   1   8
BRANCH   7  17
ATOM     17  C   UNL     1       4.366   4.313  17.292  0.00  0.00    +0.000 C 
BRANCH  17  18
ATOM     18  C   UNL     1       3.381   4.150  18.453  0.00  0.00    +0.000 A 
ATOM     19  C   UNL     1       2.790   5.315  18.998  0.00  0.00    +0.000 A 
ATOM     20  C   UNL     1       1.836   5.223  20.022  0.00  0.00    +0.000 A 
ATOM     21  C   UNL     1       1.433   3.996  20.538  0.00  0.00    +0.000 A 
ATOM     22  C   UNL     1       1.991   2.835  20.016  0.00  0.00    +0.000 A 
ATOM     23  C   UNL     1       2.953   2.905  18.988  0.00  0.00    +0.000 A 
ATOM     24 CL   UNL     1       3.552   1.390  18.416  0.00  0.00    +0.000 Cl
ENDBRANCH  17  18
ENDBRANCH   7  17
TORSDOF 4
ENDMDL
MODEL 5
REMARK VINA RESULT:      -7.5      2.440      4.560
REMARK  Name = 
REMARK  5 active torsions:
REMARK  status: ('A' for Active; 'I' for Inactive)
REMARK    1  A    between atoms: C_1  and  C_2
REMARK    2  A    between atoms: C_7  and  N_8
REMARK    3  A    between atoms: N_8  and  P_9
REMARK    4  A    between atoms: N_15  and  C_16
REMARK    5  A    between atoms: C_16  and  C_17
REMARK                            x       y       z     vdW  Elec       q    Type
REMARK                         _______ _______ _______ _____ _____    ______ ____
ROOT
ATOM      1  P   UNL     1       5.304   5.387  18.650  0.00  0.00    +0.000 P 
ATOM      2  O   UNL     1       6.096   5.103  19.894  0.00  0.00    +0.000 OA
ATOM      3  O   UNL     1       6.201   6.310  17.698  0.00  0.00    +0.000 OA
ATOM      4  C   UNL     1       5.764   6.643  16.417  0.00  0.00    +0.000 C 
ATOM      5  C   UNL     1       5.115   5.476  15.683  0.00  0.00    +0.000 C 
ATOM      6  C   UNL     1       5.161   4.061  16.359  0.00  0.00    +0.000 C 
ATOM      7  N   UNL     1       4.936   4.063  17.796  0.00  0.00    +0.000 NA
ENDROOT
BRANCH   1   8
ATOM      8  N   UNL     1       3.790   5.914  18.863  0.00  0.00    +0.000 N 
ATOM      9  H   UNL     1       3.261   5.293  18.254  0.00  0.00    +0.000 HD
BRANCH   8  16
ATOM     10  C   UNL     1       2.151   6.225  20.955  0.00  0.00    +0.000 C 
ATOM     11  C   UNL     1       2.205   7.312  19.910  0.00  0.00    +0.000 A 
ATOM     12  C   UNL     1       1.350   8.419  19.969  0.00  0.00    +0.000 A 
ATOM     13  C   UNL     1       1.273   9.315  18.901  0.00  0.00    +0.000 A 
ATOM     14  C   UNL     1       2.005   9.051  17.750  0.00  0.00    +0.000 A 
ATOM     15  C   UNL     1       2.839   7.927  17.695  0.00  0.00    +0.000 A 
ATOM     16  C   UNL     1       3.043   7.107  18.808  0.00  0.00    +0.000 A 
ENDBRANCH   8  16
ENDBRANCH   1   8
BRANCH   7  17
ATOM     17  C   UNL     1       4.621   2.865  18.580  0.00  0.00    +0.000 C 
BRANCH  17  18
ATOM     18  C   UNL     1       3.304   2.871  19.362  0.00  0.00    +0.000 A 
ATOM     19  C   UNL     1       3.351   2.621  20.755  0.00  0.00    +0.000 A 
ATOM     20  C   UNL     1       2.184   2.673  21.531  0.00  0.00    +0.000 A 
ATOM     21  C   UNL     1       0.947   2.972  20.973  0.00  0.00    +0.000 A 
ATOM     22  C   UNL     1       0.872   3.231  19.610  0.00  0.00    +0.000 A 
ATOM     23  C   UNL     1       2.032   3.182  18.810  0.00  0.00    +0.000 A 
ATOM     24 CL   UNL     1       1.805   3.541  17.137  0.00  0.00    +0.000 Cl
ENDBRANCH  17  18
ENDBRANCH   7  17
TORSDOF 4
ENDMDL
MODEL 6
REMARK VINA RESULT:      -7.5      2.614      4.800
REMARK  Name = 
REMARK  5 active torsions:
REMARK  status: ('A' for Active; 'I' for Inactive)
REMARK    1  A    between atoms: C_1  and  C_2
REMARK    2  A    between atoms: C_7  and  N_8
REMARK    3  A    between atoms: N_8  and  P_9
REMARK    4  A    between atoms: N_15  and  C_16
REMARK    5  A    between atoms: C_16  and  C_17
REMARK                            x       y       z     vdW  Elec       q    Type
REMARK                         _______ _______ _______ _____ _____    ______ ____
ROOT
ATOM      1  P   UNL     1       5.181   5.302  18.335  0.00  0.00    +0.000 P 
ATOM      2  O   UNL     1       5.822   4.739  19.572  0.00  0.00    +0.000 OA
ATOM      3  O   UNL     1       6.212   6.336  17.677  0.00  0.00    +0.000 OA
ATOM      4  C   UNL     1       5.930   6.933  16.450  0.00  0.00    +0.000 C 
ATOM      5  C   UNL     1       5.320   5.968  15.440  0.00  0.00    +0.000 C 
ATOM      6  C   UNL     1       5.238   4.449  15.826  0.00  0.00    +0.000 C 
ATOM      7  N   UNL     1       4.859   4.190  17.206  0.00  0.00    +0.000 NA
ENDROOT
BRANCH   1   8
ATOM      8  N   UNL     1       3.674   5.865  18.496  0.00  0.00    +0.000 N 
ATOM      9  H   UNL     1       3.201   5.436  17.704  0.00  0.00    +0.000 HD
BRANCH   8  16
ATOM     10  C   UNL     1       2.128   5.952  20.678  0.00  0.00    +0.000 C 
ATOM     11  C   UNL     1       2.200   7.171  19.793  0.00  0.00    +0.000 A 
ATOM     12  C   UNL     1       1.404   8.297  20.041  0.00  0.00    +0.000 A 
ATOM     13  C   UNL     1       1.335   9.336  19.113  0.00  0.00    +0.000 A 
ATOM     14  C   UNL     1       2.011   9.206  17.907  0.00  0.00    +0.000 A 
ATOM     15  C   UNL     1       2.785   8.064  17.661  0.00  0.00    +0.000 A 
ATOM     16  C   UNL     1       2.987   7.086  18.639  0.00  0.00    +0.000 A 
ENDBRANCH   8  16
ENDBRANCH   1   8
BRANCH   7  17
ATOM     17  C   UNL     1       4.415   2.884  17.703  0.00  0.00    +0.000 C 
BRANCH  17  18
ATOM     18  C   UNL     1       3.130   2.856  18.536  0.00  0.00    +0.000 A 
ATOM     19  C   UNL     1       1.909   3.182  17.896  0.00  0.00    +0.000 A 
ATOM     20  C   UNL     1       0.694   3.115  18.594  0.00  0.00    +0.000 A 
ATOM     21  C   UNL     1       0.638   2.728  19.928  0.00  0.00    +0.000 A 
ATOM     22  C   UNL     1       1.819   2.394  20.579  0.00  0.00    +0.000 A 
ATOM     23  C   UNL     1       3.051   2.457  19.897  0.00  0.00    +0.000 A 
ATOM     24 CL   UNL     1       4.440   1.998  20.815  0.00  0.00    +0.000 Cl
ENDBRANCH  17  18
ENDBRANCH   7  17
TORSDOF 4
ENDMDL
MODEL 7
REMARK VINA RESULT:      -7.4      3.601      6.860
REMARK  Name = 
REMARK  5 active torsions:
REMARK  status: ('A' for Active; 'I' for Inactive)
REMARK    1  A    between atoms: C_1  and  C_2
REMARK    2  A    between atoms: C_7  and  N_8
REMARK    3  A    between atoms: N_8  and  P_9
REMARK    4  A    between atoms: N_15  and  C_16
REMARK    5  A    between atoms: C_16  and  C_17
REMARK                            x       y       z     vdW  Elec       q    Type
REMARK                         _______ _______ _______ _____ _____    ______ ____
ROOT
ATOM      1  P   UNL     1       5.859   6.343  16.240  0.00  0.00    +0.000 P 
ATOM      2  O   UNL     1       4.706   7.075  15.614  0.00  0.00    +0.000 OA
ATOM      3  O   UNL     1       6.746   7.414  17.034  0.00  0.00    +0.000 OA
ATOM      4  C   UNL     1       7.828   7.002  17.810  0.00  0.00    +0.000 C 
ATOM      5  C   UNL     1       7.539   5.743  18.620  0.00  0.00    +0.000 C 
ATOM      6  C   UNL     1       6.075   5.180  18.612  0.00  0.00    +0.000 C 
ATOM      7  N   UNL     1       5.410   5.225  17.320  0.00  0.00    +0.000 NA
ENDROOT
BRANCH   1   8
ATOM      8  N   UNL     1       6.700   5.358  15.272  0.00  0.00    +0.000 N 
ATOM      9  H   UNL     1       7.507   5.931  15.037  0.00  0.00    +0.000 HD
BRANCH   8  16
ATOM     10  C   UNL     1       8.507   5.887  13.371  0.00  0.00    +0.000 C 
ATOM     11  C   UNL     1       7.485   4.808  13.117  0.00  0.00    +0.000 A 
ATOM     12  C   UNL     1       7.408   4.156  11.880  0.00  0.00    +0.000 A 
ATOM     13  C   UNL     1       6.342   3.303  11.591  0.00  0.00    +0.000 A 
ATOM     14  C   UNL     1       5.321   3.166  12.523  0.00  0.00    +0.000 A 
ATOM     15  C   UNL     1       5.398   3.842  13.748  0.00  0.00    +0.000 A 
ATOM     16  C   UNL     1       6.529   4.577  14.113  0.00  0.00    +0.000 A 
ENDBRANCH   8  16
ENDBRANCH   1   8
BRANCH   7  17
ATOM     17  C   UNL     1       4.187   4.482  16.999  0.00  0.00    +0.000 C 
BRANCH  17  18
ATOM     18  C   UNL     1       3.214   4.212  18.150  0.00  0.00    +0.000 A 
ATOM     19  C   UNL     1       3.101   2.887  18.636  0.00  0.00    +0.000 A 
ATOM     20  C   UNL     1       2.271   2.592  19.727  0.00  0.00    +0.000 A 
ATOM     21  C   UNL     1       1.534   3.578  20.373  0.00  0.00    +0.000 A 
ATOM     22  C   UNL     1       1.632   4.889  19.923  0.00  0.00    +0.000 A 
ATOM     23  C   UNL     1       2.459   5.208  18.827  0.00  0.00    +0.000 A 
ATOM     24 CL   UNL     1       2.506   6.875  18.382  0.00  0.00    +0.000 Cl
ENDBRANCH  17  18
ENDBRANCH   7  17
TORSDOF 4
ENDMDL
MODEL 8
REMARK VINA RESULT:      -7.4      1.834      5.184
REMARK  Name = 
REMARK  5 active torsions:
REMARK  status: ('A' for Active; 'I' for Inactive)
REMARK    1  A    between atoms: C_1  and  C_2
REMARK    2  A    between atoms: C_7  and  N_8
REMARK    3  A    between atoms: N_8  and  P_9
REMARK    4  A    between atoms: N_15  and  C_16
REMARK    5  A    between atoms: C_16  and  C_17
REMARK                            x       y       z     vdW  Elec       q    Type
REMARK                         _______ _______ _______ _____ _____    ______ ____
ROOT
ATOM      1  P   UNL     1       3.778   3.223  19.632  0.00  0.00    +0.000 P 
ATOM      2  O   UNL     1       3.839   3.119  21.130  0.00  0.00    +0.000 OA
ATOM      3  O   UNL     1       2.894   2.002  19.092  0.00  0.00    +0.000 OA
ATOM      4  C   UNL     1       2.572   1.904  17.740  0.00  0.00    +0.000 C 
ATOM      5  C   UNL     1       2.193   3.242  17.116  0.00  0.00    +0.000 C 
ATOM      6  C   UNL     1       2.056   4.486  18.063  0.00  0.00    +0.000 C 
ATOM      7  N   UNL     1       3.069   4.576  19.102  0.00  0.00    +0.000 NA
ENDROOT
BRANCH   1   8
ATOM      8  N   UNL     1       5.187   3.422  18.865  0.00  0.00    +0.000 N 
ATOM      9  H   UNL     1       5.773   3.819  19.596  0.00  0.00    +0.000 HD
BRANCH   8  16
ATOM     10  C   UNL     1       6.857   5.451  19.372  0.00  0.00    +0.000 C 
ATOM     11  C   UNL     1       6.613   5.056  17.937  0.00  0.00    +0.000 A 
ATOM     12  C   UNL     1       7.165   5.788  16.878  0.00  0.00    +0.000 A 
ATOM     13  C   UNL     1       6.779   5.533  15.561  0.00  0.00    +0.000 A 
ATOM     14  C   UNL     1       5.787   4.591  15.323  0.00  0.00    +0.000 A 
ATOM     15  C   UNL     1       5.226   3.882  16.393  0.00  0.00    +0.000 A 
ATOM     16  C   UNL     1       5.708   4.016  17.698  0.00  0.00    +0.000 A 
ENDBRANCH   8  16
ENDBRANCH   1   8
BRANCH   7  17
ATOM     17  C   UNL     1       3.334   5.786  19.887  0.00  0.00    +0.000 C 
BRANCH  17  18
ATOM     18  C   UNL     1       2.584   7.058  19.482  0.00  0.00    +0.000 A 
ATOM     19  C   UNL     1       1.673   7.622  20.406  0.00  0.00    +0.000 A 
ATOM     20  C   UNL     1       1.003   8.819  20.112  0.00  0.00    +0.000 A 
ATOM     21  C   UNL     1       1.206   9.495  18.914  0.00  0.00    +0.000 A 
ATOM     22  C   UNL     1       2.101   8.969  17.992  0.00  0.00    +0.000 A 
ATOM     23  C   UNL     1       2.784   7.767  18.266  0.00  0.00    +0.000 A 
ATOM     24 CL   UNL     1       3.882   7.232  17.045  0.00  0.00    +0.000 Cl
ENDBRANCH  17  18
ENDBRANCH   7  17
TORSDOF 4
ENDMDL
MODEL 9
REMARK VINA RESULT:      -7.3      3.362      6.750
REMARK  Name = 
REMARK  5 active torsions:
REMARK  status: ('A' for Active; 'I' for Inactive)
REMARK    1  A    between atoms: C_1  and  C_2
REMARK    2  A    between atoms: C_7  and  N_8
REMARK    3  A    between atoms: N_8  and  P_9
REMARK    4  A    between atoms: N_15  and  C_16
REMARK    5  A    between atoms: C_16  and  C_17
REMARK                            x       y       z     vdW  Elec       q    Type
REMARK                         _______ _______ _______ _____ _____    ______ ____
ROOT
ATOM      1  P   UNL     1       5.829   6.397  16.854  0.00  0.00    +0.000 P 
ATOM      2  O   UNL     1       4.804   7.285  16.208  0.00  0.00    +0.000 OA
ATOM      3  O   UNL     1       6.855   7.332  17.651  0.00  0.00    +0.000 OA
ATOM      4  C   UNL     1       7.856   6.773  18.444  0.00  0.00    +0.000 C 
ATOM      5  C   UNL     1       7.376   5.578  19.259  0.00  0.00    +0.000 C 
ATOM      6  C   UNL     1       5.845   5.235  19.237  0.00  0.00    +0.000 C 
ATOM      7  N   UNL     1       5.209   5.366  17.936  0.00  0.00    +0.000 NA
ENDROOT
BRANCH   1   8
ATOM      8  N   UNL     1       6.528   5.291  15.904  0.00  0.00    +0.000 N 
ATOM      9  H   UNL     1       7.479   5.270  16.265  0.00  0.00    +0.000 HD
BRANCH   8  16
ATOM     10  C   UNL     1       5.278   3.058  15.123  0.00  0.00    +0.000 C 
ATOM     11  C   UNL     1       6.037   3.858  14.095  0.00  0.00    +0.000 A 
ATOM     12  C   UNL     1       6.176   3.404  12.778  0.00  0.00    +0.000 A 
ATOM     13  C   UNL     1       7.038   4.050  11.891  0.00  0.00    +0.000 A 
ATOM     14  C   UNL     1       7.809   5.108  12.355  0.00  0.00    +0.000 A 
ATOM     15  C   UNL     1       7.678   5.539  13.682  0.00  0.00    +0.000 A 
ATOM     16  C   UNL     1       6.712   5.002  14.537  0.00  0.00    +0.000 A 
ENDBRANCH   8  16
ENDBRANCH   1   8
BRANCH   7  17
ATOM     17  C   UNL     1       3.894   4.808  17.605  0.00  0.00    +0.000 C 
BRANCH  17  18
ATOM     18  C   UNL     1       3.037   4.307  18.770  0.00  0.00    +0.000 A 
ATOM     19  C   UNL     1       2.357   5.263  19.562  0.00  0.00    +0.000 A 
ATOM     20  C   UNL     1       1.511   4.858  20.606  0.00  0.00    +0.000 A 
ATOM     21  C   UNL     1       1.305   3.515  20.900  0.00  0.00    +0.000 A 
ATOM     22  C   UNL     1       1.952   2.554  20.134  0.00  0.00    +0.000 A 
ATOM     23  C   UNL     1       2.809   2.939  19.082  0.00  0.00    +0.000 A 
ATOM     24 CL   UNL     1       3.536   1.648  18.196  0.00  0.00    +0.000 Cl
ENDBRANCH  17  18
ENDBRANCH   7  17
TORSDOF 4
ENDMDL
