MODEL 1
REMARK VINA RESULT:      -8.0      0.000      0.000
REMARK  Name = 
REMARK  6 active torsions:
REMARK  status: ('A' for Active; 'I' for Inactive)
REMARK    1  A    between atoms: C_1  and  O_2
REMARK    2  A    between atoms: O_2  and  C_3
REMARK    3  A    between atoms: C_3  and  C_5
REMARK    4  A    between atoms: C_8  and  C_9
REMARK    5  A    between atoms: C_11  and  N_12
REMARK    6  A    between atoms: N_12  and  C_13
REMARK                            x       y       z     vdW  Elec       q    Type
REMARK                         _______ _______ _______ _____ _____    ______ ____
ROOT
ATOM      1  C   UNL     1       2.879   5.721  19.532  0.00  0.00    +0.000 A 
ATOM      2  C   UNL     1       4.090   5.470  18.999  0.00  0.00    +0.000 A 
ATOM      3  C   UNL     1       4.708   4.153  19.056  0.00  0.00    +0.000 A 
ATOM      4  C   UNL     1       4.045   3.182  19.711  0.00  0.00    +0.000 A 
ATOM      5  N   UNL     1       2.815   3.404  20.274  0.00  0.00    +0.000 N 
ATOM      6  C   UNL     1       2.155   4.610  20.233  0.00  0.00    +0.000 A 
ATOM      7  O   UNL     1       1.051   4.754  20.743  0.00  0.00    +0.000 OA
ATOM      8  H   UNL     1       2.332   2.653  20.751  0.00  0.00    +0.000 HD
ENDROOT
BRANCH   1  12
ATOM      9  C   UNL     1       1.106   9.603  19.183  0.00  0.00    +0.000 A 
ATOM     10  C   UNL     1       1.128   8.943  20.420  0.00  0.00    +0.000 A 
ATOM     11  C   UNL     1       1.715   7.680  20.538  0.00  0.00    +0.000 A 
ATOM     12  C   UNL     1       2.291   7.062  19.422  0.00  0.00    +0.000 A 
ATOM     13  C   UNL     1       2.275   7.723  18.188  0.00  0.00    +0.000 A 
ATOM     14  C   UNL     1       1.687   8.987  18.067  0.00  0.00    +0.000 A 
BRANCH   9  15
ATOM     15  C   UNL     1       0.462  10.945  19.112  0.00  0.00    +0.000 C 
ATOM     16  O   UNL     1       1.086  11.980  18.935  0.00  0.00    +0.000 OA
BRANCH  15  18
ATOM     17  C   UNL     1      -1.631  11.056  18.084  0.00  0.00    +0.000 C 
ATOM     18  O   UNL     1      -0.880  10.848  19.281  0.00  0.00    +0.000 OA
ENDBRANCH  15  18
ENDBRANCH   9  15
ENDBRANCH   1  12
BRANCH   3  19
ATOM     19  N   UNL     1       5.945   3.984  18.464  0.00  0.00    +0.000 N 
ATOM     20  H   UNL     1       6.718   4.311  19.038  0.00  0.00    +0.000 HD
BRANCH  19  21
ATOM     21  C   UNL     1       6.224   4.212  17.091  0.00  0.00    +0.000 A 
ATOM     22  C   UNL     1       7.366   4.884  16.636  0.00  0.00    +0.000 A 
ATOM     23  C   UNL     1       7.574   5.118  15.274  0.00  0.00    +0.000 A 
ATOM     24  C   UNL     1       6.629   4.696  14.343  0.00  0.00    +0.000 A 
ATOM     25  C   UNL     1       5.475   4.049  14.775  0.00  0.00    +0.000 A 
ATOM     26  C   UNL     1       5.269   3.818  16.139  0.00  0.00    +0.000 A 
ENDBRANCH  19  21
ENDBRANCH   3  19
TORSDOF 5
ENDMDL
MODEL 2
REMARK VINA RESULT:      -7.9      0.556      1.050
REMARK  Name = 
REMARK  6 active torsions:
REMARK  status: ('A' for Active; 'I' for Inactive)
REMARK    1  A    between atoms: C_1  and  O_2
REMARK    2  A    between atoms: O_2  and  C_3
REMARK    3  A    between atoms: C_3  and  C_5
REMARK    4  A    between atoms: C_8  and  C_9
REMARK    5  A    between atoms: C_11  and  N_12
REMARK    6  A    between atoms: N_12  and  C_13
REMARK                            x       y       z     vdW  Elec       q    Type
REMARK                         _______ _______ _______ _____ _____    ______ ____
ROOT
ATOM      1  C   UNL     1       2.873   5.768  19.496  0.00  0.00    +0.000 A 
ATOM      2  C   UNL     1       4.081   5.500  18.963  0.00  0.00    +0.000 A 
ATOM      3  C   UNL     1       4.691   4.180  19.045  0.00  0.00    +0.000 A 
ATOM      4  C   UNL     1       4.025   3.226  19.721  0.00  0.00    +0.000 A 
ATOM      5  N   UNL     1       2.797   3.467  20.283  0.00  0.00    +0.000 N 
ATOM      6  C   UNL     1       2.145   4.675  20.220  0.00  0.00    +0.000 A 
ATOM      7  O   UNL     1       1.043   4.836  20.731  0.00  0.00    +0.000 OA
ATOM      8  H   UNL     1       2.312   2.729  20.776  0.00  0.00    +0.000 HD
ENDROOT
BRANCH   1  12
ATOM      9  C   UNL     1       1.122   9.653  19.077  0.00  0.00    +0.000 A 
ATOM     10  C   UNL     1       1.157   9.023  20.329  0.00  0.00    +0.000 A 
ATOM     11  C   UNL     1       1.737   7.759  20.470  0.00  0.00    +0.000 A 
ATOM     12  C   UNL     1       2.292   7.110  19.361  0.00  0.00    +0.000 A 
ATOM     13  C   UNL     1       2.263   7.741  18.112  0.00  0.00    +0.000 A 
ATOM     14  C   UNL     1       1.682   9.005  17.968  0.00  0.00    +0.000 A 
BRANCH   9  15
ATOM     15  C   UNL     1       0.486  10.997  18.982  0.00  0.00    +0.000 C 
ATOM     16  O   UNL     1      -0.564  11.203  18.393  0.00  0.00    +0.000 OA
BRANCH  15  18
ATOM     17  C   UNL     1       2.093  12.675  18.752  0.00  0.00    +0.000 C 
ATOM     18  O   UNL     1       1.234  11.933  19.619  0.00  0.00    +0.000 OA
ENDBRANCH  15  18
ENDBRANCH   9  15
ENDBRANCH   1  12
BRANCH   3  19
ATOM     19  N   UNL     1       5.925   3.992  18.452  0.00  0.00    +0.000 N 
ATOM     20  H   UNL     1       6.704   4.304  19.027  0.00  0.00    +0.000 HD
BRANCH  19  21
ATOM     21  C   UNL     1       6.208   4.220  17.079  0.00  0.00    +0.000 A 
ATOM     22  C   UNL     1       7.371   4.855  16.626  0.00  0.00    +0.000 A 
ATOM     23  C   UNL     1       7.583   5.091  15.264  0.00  0.00    +0.000 A 
ATOM     24  C   UNL     1       6.622   4.707  14.333  0.00  0.00    +0.000 A 
ATOM     25  C   UNL     1       5.447   4.097  14.765  0.00  0.00    +0.000 A 
ATOM     26  C   UNL     1       5.237   3.865  16.128  0.00  0.00    +0.000 A 
ENDBRANCH  19  21
ENDBRANCH   3  19
TORSDOF 5
ENDMDL
MODEL 3
REMARK VINA RESULT:      -7.8      0.444      1.082
REMARK  Name = 
REMARK  6 active torsions:
REMARK  status: ('A' for Active; 'I' for Inactive)
REMARK    1  A    between atoms: C_1  and  O_2
REMARK    2  A    between atoms: O_2  and  C_3
REMARK    3  A    between atoms: C_3  and  C_5
REMARK    4  A    between atoms: C_8  and  C_9
REMARK    5  A    between atoms: C_11  and  N_12
REMARK    6  A    between atoms: N_12  and  C_13
REMARK                            x       y       z     vdW  Elec       q    Type
REMARK                         _______ _______ _______ _____ _____    ______ ____
ROOT
ATOM      1  C   UNL     1       2.873   5.721  19.508  0.00  0.00    +0.000 A 
ATOM      2  C   UNL     1       4.086   5.485  18.969  0.00  0.00    +0.000 A 
ATOM      3  C   UNL     1       4.726   4.179  19.037  0.00  0.00    +0.000 A 
ATOM      4  C   UNL     1       4.084   3.204  19.707  0.00  0.00    +0.000 A 
ATOM      5  N   UNL     1       2.853   3.411  20.274  0.00  0.00    +0.000 N 
ATOM      6  C   UNL     1       2.173   4.605  20.225  0.00  0.00    +0.000 A 
ATOM      7  O   UNL     1       1.070   4.736  20.740  0.00  0.00    +0.000 OA
ATOM      8  H   UNL     1       2.386   2.658  20.763  0.00  0.00    +0.000 HD
ENDROOT
BRANCH   1  12
ATOM      9  C   UNL     1       1.149   9.627  19.184  0.00  0.00    +0.000 A 
ATOM     10  C   UNL     1       1.691   8.996  18.056  0.00  0.00    +0.000 A 
ATOM     11  C   UNL     1       2.245   7.717  18.157  0.00  0.00    +0.000 A 
ATOM     12  C   UNL     1       2.262   7.050  19.387  0.00  0.00    +0.000 A 
ATOM     13  C   UNL     1       1.716   7.677  20.514  0.00  0.00    +0.000 A 
ATOM     14  C   UNL     1       1.161   8.958  20.415  0.00  0.00    +0.000 A 
BRANCH   9  15
ATOM     15  C   UNL     1       0.576  10.993  19.022  0.00  0.00    +0.000 C 
ATOM     16  O   UNL     1       1.251  11.977  18.763  0.00  0.00    +0.000 OA
BRANCH  15  18
ATOM     17  C   UNL     1      -1.265  12.130  19.898  0.00  0.00    +0.000 C 
ATOM     18  O   UNL     1      -0.767  10.981  19.211  0.00  0.00    +0.000 OA
ENDBRANCH  15  18
ENDBRANCH   9  15
ENDBRANCH   1  12
BRANCH   3  19
ATOM     19  N   UNL     1       5.962   4.025  18.439  0.00  0.00    +0.000 N 
ATOM     20  H   UNL     1       6.733   4.374  19.003  0.00  0.00    +0.000 HD
BRANCH  19  21
ATOM     21  C   UNL     1       6.228   4.239  17.061  0.00  0.00    +0.000 A 
ATOM     22  C   UNL     1       7.381   4.878  16.587  0.00  0.00    +0.000 A 
ATOM     23  C   UNL     1       7.576   5.099  15.221  0.00  0.00    +0.000 A 
ATOM     24  C   UNL     1       6.607   4.698  14.305  0.00  0.00    +0.000 A 
ATOM     25  C   UNL     1       5.442   4.085  14.757  0.00  0.00    +0.000 A 
ATOM     26  C   UNL     1       5.250   3.866  16.125  0.00  0.00    +0.000 A 
ENDBRANCH  19  21
ENDBRANCH   3  19
TORSDOF 5
ENDMDL
MODEL 4
REMARK VINA RESULT:      -7.8      3.238      7.511
REMARK  Name = 
REMARK  6 active torsions:
REMARK  status: ('A' for Active; 'I' for Inactive)
REMARK    1  A    between atoms: C_1  and  O_2
REMARK    2  A    between atoms: O_2  and  C_3
REMARK    3  A    between atoms: C_3  and  C_5
REMARK    4  A    between atoms: C_8  and  C_9
REMARK    5  A    between atoms: C_11  and  N_12
REMARK    6  A    between atoms: N_12  and  C_13
REMARK                            x       y       z     vdW  Elec       q    Type
REMARK                         _______ _______ _______ _____ _____    ______ ____
ROOT
ATOM      1  C   UNL     1       2.969   5.012  18.450  0.00  0.00    +0.000 A 
ATOM      2  C   UNL     1       2.899   6.109  19.230  0.00  0.00    +0.000 A 
ATOM      3  C   UNL     1       1.962   6.215  20.340  0.00  0.00    +0.000 A 
ATOM      4  C   UNL     1       1.116   5.189  20.542  0.00  0.00    +0.000 A 
ATOM      5  N   UNL     1       1.152   4.062  19.762  0.00  0.00    +0.000 N 
ATOM      6  C   UNL     1       2.028   3.875  18.719  0.00  0.00    +0.000 A 
ATOM      7  O   UNL     1       2.027   2.844  18.058  0.00  0.00    +0.000 OA
ATOM      8  H   UNL     1       0.512   3.299  19.942  0.00  0.00    +0.000 HD
ENDROOT
BRANCH   1  12
ATOM      9  C   UNL     1       5.883   4.843  15.318  0.00  0.00    +0.000 A 
ATOM     10  C   UNL     1       5.461   3.669  15.957  0.00  0.00    +0.000 A 
ATOM     11  C   UNL     1       4.502   3.720  16.973  0.00  0.00    +0.000 A 
ATOM     12  C   UNL     1       3.951   4.947  17.361  0.00  0.00    +0.000 A 
ATOM     13  C   UNL     1       4.367   6.119  16.719  0.00  0.00    +0.000 A 
ATOM     14  C   UNL     1       5.327   6.070  15.703  0.00  0.00    +0.000 A 
BRANCH   9  15
ATOM     15  C   UNL     1       6.912   4.731  14.246  0.00  0.00    +0.000 C 
ATOM     16  O   UNL     1       7.751   5.592  14.028  0.00  0.00    +0.000 OA
BRANCH  15  18
ATOM     17  C   UNL     1       6.010   3.693  12.359  0.00  0.00    +0.000 C 
ATOM     18  O   UNL     1       6.773   3.569  13.560  0.00  0.00    +0.000 OA
ENDBRANCH  15  18
ENDBRANCH   9  15
ENDBRANCH   1  12
BRANCH   3  19
ATOM     19  N   UNL     1       1.976   7.371  21.099  0.00  0.00    +0.000 N 
ATOM     20  H   UNL     1       2.089   7.201  22.095  0.00  0.00    +0.000 HD
BRANCH  19  21
ATOM     21  C   UNL     1       1.131   8.491  20.885  0.00  0.00    +0.000 A 
ATOM     22  C   UNL     1       1.056   9.180  19.668  0.00  0.00    +0.000 A 
ATOM     23  C   UNL     1       0.236  10.303  19.521  0.00  0.00    +0.000 A 
ATOM     24  C   UNL     1      -0.511  10.765  20.601  0.00  0.00    +0.000 A 
ATOM     25  C   UNL     1      -0.431  10.110  21.826  0.00  0.00    +0.000 A 
ATOM     26  C   UNL     1       0.392   8.988  21.970  0.00  0.00    +0.000 A 
ENDBRANCH  19  21
ENDBRANCH   3  19
TORSDOF 5
ENDMDL
MODEL 5
REMARK VINA RESULT:      -7.8      0.324      1.428
REMARK  Name = 
REMARK  6 active torsions:
REMARK  status: ('A' for Active; 'I' for Inactive)
REMARK    1  A    between atoms: C_1  and  O_2
REMARK    2  A    between atoms: O_2  and  C_3
REMARK    3  A    between atoms: C_3  and  C_5
REMARK    4  A    between atoms: C_8  and  C_9
REMARK    5  A    between atoms: C_11  and  N_12
REMARK    6  A    between atoms: N_12  and  C_13
REMARK                            x       y       z     vdW  Elec       q    Type
REMARK                         _______ _______ _______ _____ _____    ______ ____
ROOT
ATOM      1  C   UNL     1       2.866   5.768  19.452  0.00  0.00    +0.000 A 
ATOM      2  C   UNL     1       4.053   5.492  18.876  0.00  0.00    +0.000 A 
ATOM      3  C   UNL     1       4.676   4.179  18.969  0.00  0.00    +0.000 A 
ATOM      4  C   UNL     1       4.046   3.241  19.700  0.00  0.00    +0.000 A 
ATOM      5  N   UNL     1       2.842   3.489  20.307  0.00  0.00    +0.000 N 
ATOM      6  C   UNL     1       2.179   4.692  20.239  0.00  0.00    +0.000 A 
ATOM      7  O   UNL     1       1.099   4.861  20.792  0.00  0.00    +0.000 OA
ATOM      8  H   UNL     1       2.383   2.763  20.842  0.00  0.00    +0.000 HD
ENDROOT
BRANCH   1  12
ATOM      9  C   UNL     1       1.188   9.687  19.052  0.00  0.00    +0.000 A 
ATOM     10  C   UNL     1       1.746   9.039  17.941  0.00  0.00    +0.000 A 
ATOM     11  C   UNL     1       2.285   7.755  18.067  0.00  0.00    +0.000 A 
ATOM     12  C   UNL     1       2.271   7.102  19.305  0.00  0.00    +0.000 A 
ATOM     13  C   UNL     1       1.709   7.746  20.414  0.00  0.00    +0.000 A 
ATOM     14  C   UNL     1       1.170   9.031  20.290  0.00  0.00    +0.000 A 
BRANCH   9  15
ATOM     15  C   UNL     1       0.633  11.057  18.863  0.00  0.00    +0.000 C 
ATOM     16  O   UNL     1       1.323  12.031  18.606  0.00  0.00    +0.000 OA
BRANCH  15  18
ATOM     17  C   UNL     1      -1.351  12.248  18.555  0.00  0.00    +0.000 C 
ATOM     18  O   UNL     1      -0.714  11.060  19.027  0.00  0.00    +0.000 OA
ENDBRANCH  15  18
ENDBRANCH   9  15
ENDBRANCH   1  12
BRANCH   3  19
ATOM     19  N   UNL     1       5.884   3.982  18.329  0.00  0.00    +0.000 N 
ATOM     20  H   UNL     1       6.689   4.254  18.888  0.00  0.00    +0.000 HD
BRANCH  19  21
ATOM     21  C   UNL     1       6.128   4.250  16.956  0.00  0.00    +0.000 A 
ATOM     22  C   UNL     1       5.239   3.900  15.932  0.00  0.00    +0.000 A 
ATOM     23  C   UNL     1       5.544   4.152  14.591  0.00  0.00    +0.000 A 
ATOM     24  C   UNL     1       6.757   4.746  14.253  0.00  0.00    +0.000 A 
ATOM     25  C   UNL     1       7.665   5.079  15.254  0.00  0.00    +0.000 A 
ATOM     26  C   UNL     1       7.357   4.823  16.594  0.00  0.00    +0.000 A 
ENDBRANCH  19  21
ENDBRANCH   3  19
TORSDOF 5
ENDMDL
MODEL 6
REMARK VINA RESULT:      -7.8      3.227      7.466
REMARK  Name = 
REMARK  6 active torsions:
REMARK  status: ('A' for Active; 'I' for Inactive)
REMARK    1  A    between atoms: C_1  and  O_2
REMARK    2  A    between atoms: O_2  and  C_3
REMARK    3  A    between atoms: C_3  and  C_5
REMARK    4  A    between atoms: C_8  and  C_9
REMARK    5  A    between atoms: C_11  and  N_12
REMARK    6  A    between atoms: N_12  and  C_13
REMARK                            x       y       z     vdW  Elec       q    Type
REMARK                         _______ _______ _______ _____ _____    ______ ____
ROOT
ATOM      1  C   UNL     1       3.064   5.006  18.475  0.00  0.00    +0.000 A 
ATOM      2  C   UNL     1       2.937   6.122  19.218  0.00  0.00    +0.000 A 
ATOM      3  C   UNL     1       1.986   6.222  20.316  0.00  0.00    +0.000 A 
ATOM      4  C   UNL     1       1.185   5.165  20.545  0.00  0.00    +0.000 A 
ATOM      5  N   UNL     1       1.280   4.016  19.803  0.00  0.00    +0.000 N 
ATOM      6  C   UNL     1       2.174   3.836  18.773  0.00  0.00    +0.000 A 
ATOM      7  O   UNL     1       2.226   2.785  18.146  0.00  0.00    +0.000 OA
ATOM      8  H   UNL     1       0.674   3.231  20.003  0.00  0.00    +0.000 HD
ENDROOT
BRANCH   1  12
ATOM      9  C   UNL     1       5.912   4.825  15.283  0.00  0.00    +0.000 A 
ATOM     10  C   UNL     1       5.426   6.062  15.729  0.00  0.00    +0.000 A 
ATOM     11  C   UNL     1       4.504   6.124  16.778  0.00  0.00    +0.000 A 
ATOM     12  C   UNL     1       4.058   4.950  17.396  0.00  0.00    +0.000 A 
ATOM     13  C   UNL     1       4.547   3.715  16.955  0.00  0.00    +0.000 A 
ATOM     14  C   UNL     1       5.469   3.650  15.905  0.00  0.00    +0.000 A 
BRANCH   9  15
ATOM     15  C   UNL     1       6.889   4.816  14.158  0.00  0.00    +0.000 C 
ATOM     16  O   UNL     1       7.896   5.507  14.138  0.00  0.00    +0.000 OA
BRANCH  15  18
ATOM     17  C   UNL     1       7.167   4.155  11.936  0.00  0.00    +0.000 C 
ATOM     18  O   UNL     1       6.496   3.960  13.182  0.00  0.00    +0.000 OA
ENDBRANCH  15  18
ENDBRANCH   9  15
ENDBRANCH   1  12
BRANCH   3  19
ATOM     19  N   UNL     1       1.940   7.401  21.037  0.00  0.00    +0.000 N 
ATOM     20  H   UNL     1       1.908   7.260  22.043  0.00  0.00    +0.000 HD
BRANCH  19  21
ATOM     21  C   UNL     1       1.176   8.542  20.677  0.00  0.00    +0.000 A 
ATOM     22  C   UNL     1       0.248   9.150  21.531  0.00  0.00    +0.000 A 
ATOM     23  C   UNL     1      -0.508  10.249  21.113  0.00  0.00    +0.000 A 
ATOM     24  C   UNL     1      -0.358  10.747  19.822  0.00  0.00    +0.000 A 
ATOM     25  C   UNL     1       0.542  10.142  18.949  0.00  0.00    +0.000 A 
ATOM     26  C   UNL     1       1.295   9.041  19.370  0.00  0.00    +0.000 A 
ENDBRANCH  19  21
ENDBRANCH   3  19
TORSDOF 5
ENDMDL
MODEL 7
REMARK VINA RESULT:      -7.7      3.268      7.979
REMARK  Name = 
REMARK  6 active torsions:
REMARK  status: ('A' for Active; 'I' for Inactive)
REMARK    1  A    between atoms: C_1  and  O_2
REMARK    2  A    between atoms: O_2  and  C_3
REMARK    3  A    between atoms: C_3  and  C_5
REMARK    4  A    between atoms: C_8  and  C_9
REMARK    5  A    between atoms: C_11  and  N_12
REMARK    6  A    between atoms: N_12  and  C_13
REMARK                            x       y       z     vdW  Elec       q    Type
REMARK                         _______ _______ _______ _____ _____    ______ ____
ROOT
ATOM      1  C   UNL     1       2.789   7.080  18.695  0.00  0.00    +0.000 A 
ATOM      2  C   UNL     1       2.260   8.285  18.404  0.00  0.00    +0.000 A 
ATOM      3  C   UNL     1       1.396   8.999  19.333  0.00  0.00    +0.000 A 
ATOM      4  C   UNL     1       1.093   8.392  20.495  0.00  0.00    +0.000 A 
ATOM      5  N   UNL     1       1.605   7.162  20.820  0.00  0.00    +0.000 N 
ATOM      6  C   UNL     1       2.452   6.442  20.010  0.00  0.00    +0.000 A 
ATOM      7  O   UNL     1       2.891   5.351  20.350  0.00  0.00    +0.000 OA
ATOM      8  H   UNL     1       1.371   6.732  21.705  0.00  0.00    +0.000 HD
ENDROOT
BRANCH   1  12
ATOM      9  C   UNL     1       5.325   5.143  15.839  0.00  0.00    +0.000 A 
ATOM     10  C   UNL     1       5.468   6.513  16.099  0.00  0.00    +0.000 A 
ATOM     11  C   UNL     1       4.648   7.145  17.039  0.00  0.00    +0.000 A 
ATOM     12  C   UNL     1       3.676   6.415  17.732  0.00  0.00    +0.000 A 
ATOM     13  C   UNL     1       3.536   5.046  17.477  0.00  0.00    +0.000 A 
ATOM     14  C   UNL     1       4.355   4.411  16.537  0.00  0.00    +0.000 A 
BRANCH   9  15
ATOM     15  C   UNL     1       6.220   4.521  14.824  0.00  0.00    +0.000 C 
ATOM     16  O   UNL     1       7.439   4.530  14.909  0.00  0.00    +0.000 OA
BRANCH  15  18
ATOM     17  C   UNL     1       6.289   3.557  12.698  0.00  0.00    +0.000 C 
ATOM     18  O   UNL     1       5.500   3.970  13.815  0.00  0.00    +0.000 OA
ENDBRANCH  15  18
ENDBRANCH   9  15
ENDBRANCH   1  12
BRANCH   3  19
ATOM     19  N   UNL     1       0.916  10.239  18.957  0.00  0.00    +0.000 N 
ATOM     20  H   UNL     1       1.347  11.011  19.460  0.00  0.00    +0.000 HD
BRANCH  19  21
ATOM     21  C   UNL     1      -0.446  10.533  18.684  0.00  0.00    +0.000 A 
ATOM     22  C   UNL     1      -1.174   9.926  17.653  0.00  0.00    +0.000 A 
ATOM     23  C   UNL     1      -2.503  10.280  17.400  0.00  0.00    +0.000 A 
ATOM     24  C   UNL     1      -3.120  11.262  18.169  0.00  0.00    +0.000 A 
ATOM     25  C   UNL     1      -2.406  11.895  19.183  0.00  0.00    +0.000 A 
ATOM     26  C   UNL     1      -1.076  11.541  19.431  0.00  0.00    +0.000 A 
ENDBRANCH  19  21
ENDBRANCH   3  19
TORSDOF 5
ENDMDL
MODEL 8
REMARK VINA RESULT:      -7.7      1.508      2.330
REMARK  Name = 
REMARK  6 active torsions:
REMARK  status: ('A' for Active; 'I' for Inactive)
REMARK    1  A    between atoms: C_1  and  O_2
REMARK    2  A    between atoms: O_2  and  C_3
REMARK    3  A    between atoms: C_3  and  C_5
REMARK    4  A    between atoms: C_8  and  C_9
REMARK    5  A    between atoms: C_11  and  N_12
REMARK    6  A    between atoms: N_12  and  C_13
REMARK                            x       y       z     vdW  Elec       q    Type
REMARK                         _______ _______ _______ _____ _____    ______ ____
ROOT
ATOM      1  C   UNL     1       2.666   5.421  19.778  0.00  0.00    +0.000 A 
ATOM      2  C   UNL     1       3.952   5.312  19.389  0.00  0.00    +0.000 A 
ATOM      3  C   UNL     1       4.603   4.022  19.208  0.00  0.00    +0.000 A 
ATOM      4  C   UNL     1       3.888   2.918  19.491  0.00  0.00    +0.000 A 
ATOM      5  N   UNL     1       2.580   2.992  19.897  0.00  0.00    +0.000 N 
ATOM      6  C   UNL     1       1.889   4.169  20.059  0.00  0.00    +0.000 A 
ATOM      7  O   UNL     1       0.717   4.182  20.416  0.00  0.00    +0.000 OA
ATOM      8  H   UNL     1       2.060   2.145  20.092  0.00  0.00    +0.000 HD
ENDROOT
BRANCH   1  12
ATOM      9  C   UNL     1       0.929   9.309  20.228  0.00  0.00    +0.000 A 
ATOM     10  C   UNL     1       1.565   8.951  19.031  0.00  0.00    +0.000 A 
ATOM     11  C   UNL     1       2.123   7.679  18.877  0.00  0.00    +0.000 A 
ATOM     12  C   UNL     1       2.051   6.747  19.919  0.00  0.00    +0.000 A 
ATOM     13  C   UNL     1       1.411   7.100  21.113  0.00  0.00    +0.000 A 
ATOM     14  C   UNL     1       0.852   8.373  21.268  0.00  0.00    +0.000 A 
BRANCH   9  15
ATOM     15  C   UNL     1       0.355  10.679  20.339  0.00  0.00    +0.000 C 
ATOM     16  O   UNL     1      -0.646  11.039  19.739  0.00  0.00    +0.000 OA
BRANCH  15  18
ATOM     17  C   UNL     1       1.568  12.660  20.580  0.00  0.00    +0.000 C 
ATOM     18  O   UNL     1       1.099  11.449  21.174  0.00  0.00    +0.000 OA
ENDBRANCH  15  18
ENDBRANCH   9  15
ENDBRANCH   1  12
BRANCH   3  19
ATOM     19  N   UNL     1       5.919   4.007  18.788  0.00  0.00    +0.000 N 
ATOM     20  H   UNL     1       6.508   3.369  19.318  0.00  0.00    +0.000 HD
BRANCH  19  21
ATOM     21  C   UNL     1       6.661   5.156  18.407  0.00  0.00    +0.000 A 
ATOM     22  C   UNL     1       7.566   5.807  19.255  0.00  0.00    +0.000 A 
ATOM     23  C   UNL     1       8.243   6.959  18.844  0.00  0.00    +0.000 A 
ATOM     24  C   UNL     1       8.010   7.489  17.579  0.00  0.00    +0.000 A 
ATOM     25  C   UNL     1       7.095   6.873  16.730  0.00  0.00    +0.000 A 
ATOM     26  C   UNL     1       6.418   5.721  17.145  0.00  0.00    +0.000 A 
ENDBRANCH  19  21
ENDBRANCH   3  19
TORSDOF 5
ENDMDL
MODEL 9
REMARK VINA RESULT:      -7.7      1.650      2.147
REMARK  Name = 
REMARK  6 active torsions:
REMARK  status: ('A' for Active; 'I' for Inactive)
REMARK    1  A    between atoms: C_1  and  O_2
REMARK    2  A    between atoms: O_2  and  C_3
REMARK    3  A    between atoms: C_3  and  C_5
REMARK    4  A    between atoms: C_8  and  C_9
REMARK    5  A    between atoms: C_11  and  N_12
REMARK    6  A    between atoms: N_12  and  C_13
REMARK                            x       y       z     vdW  Elec       q    Type
REMARK                         _______ _______ _______ _____ _____    ______ ____
ROOT
ATOM      1  C   UNL     1       2.647   5.453  19.820  0.00  0.00    +0.000 A 
ATOM      2  C   UNL     1       3.933   5.337  19.436  0.00  0.00    +0.000 A 
ATOM      3  C   UNL     1       4.564   4.044  19.210  0.00  0.00    +0.000 A 
ATOM      4  C   UNL     1       3.828   2.942  19.444  0.00  0.00    +0.000 A 
ATOM      5  N   UNL     1       2.519   3.022  19.845  0.00  0.00    +0.000 N 
ATOM      6  C   UNL     1       1.847   4.204  20.048  0.00  0.00    +0.000 A 
ATOM      7  O   UNL     1       0.673   4.223  20.397  0.00  0.00    +0.000 OA
ATOM      8  H   UNL     1       1.984   2.178  20.004  0.00  0.00    +0.000 HD
ENDROOT
BRANCH   1  12
ATOM      9  C   UNL     1       0.860   9.310  20.331  0.00  0.00    +0.000 A 
ATOM     10  C   UNL     1       0.809   8.364  21.364  0.00  0.00    +0.000 A 
ATOM     11  C   UNL     1       1.401   7.107  21.203  0.00  0.00    +0.000 A 
ATOM     12  C   UNL     1       2.053   6.782  20.009  0.00  0.00    +0.000 A 
ATOM     13  C   UNL     1       2.110   7.729  18.978  0.00  0.00    +0.000 A 
ATOM     14  C   UNL     1       1.517   8.986  19.137  0.00  0.00    +0.000 A 
BRANCH   9  15
ATOM     15  C   UNL     1       0.208  10.631  20.553  0.00  0.00    +0.000 C 
ATOM     16  O   UNL     1      -0.436  11.215  19.695  0.00  0.00    +0.000 OA
BRANCH  15  18
ATOM     17  C   UNL     1      -0.744  11.423  22.533  0.00  0.00    +0.000 C 
ATOM     18  O   UNL     1       0.441  11.081  21.812  0.00  0.00    +0.000 OA
ENDBRANCH  15  18
ENDBRANCH   9  15
ENDBRANCH   1  12
BRANCH   3  19
ATOM     19  N   UNL     1       5.883   4.023  18.798  0.00  0.00    +0.000 N 
ATOM     20  H   UNL     1       6.466   3.384  19.333  0.00  0.00    +0.000 HD
BRANCH  19  21
ATOM     21  C   UNL     1       6.631   5.168  18.418  0.00  0.00    +0.000 A 
ATOM     22  C   UNL     1       7.559   5.797  19.258  0.00  0.00    +0.000 A 
ATOM     23  C   UNL     1       8.242   6.946  18.849  0.00  0.00    +0.000 A 
ATOM     24  C   UNL     1       7.993   7.496  17.595  0.00  0.00    +0.000 A 
ATOM     25  C   UNL     1       7.055   6.901  16.755  0.00  0.00    +0.000 A 
ATOM     26  C   UNL     1       6.373   5.752  17.168  0.00  0.00    +0.000 A 
ENDBRANCH  19  21
ENDBRANCH   3  19
TORSDOF 5
ENDMDL
