MODEL 1
REMARK VINA RESULT:      -8.8      0.000      0.000
REMARK  Name = 
REMARK  3 active torsions:
REMARK  status: ('A' for Active; 'I' for Inactive)
REMARK    1  A    between atoms: C_2  and  C_3
REMARK    2  A    between atoms: C_6  and  C_7
REMARK    3  A    between atoms: C_15  and  C_16
REMARK                            x       y       z     vdW  Elec       q    Type
REMARK                         _______ _______ _______ _____ _____    ______ ____
ROOT
ATOM      1  C   UNL     1      -1.465  12.501  18.946  0.00  0.00    +0.000 A 
ATOM      2  C   UNL     1      -2.209  11.763  17.965  0.00  0.00    +0.000 A 
ATOM      3  C   UNL     1      -1.892  11.157  16.725  0.00  0.00    +0.000 A 
ATOM      4  C   UNL     1      -2.905  10.659  15.901  0.00  0.00    +0.000 A 
ATOM      5  C   UNL     1      -4.224  10.674  16.329  0.00  0.00    +0.000 A 
ATOM      6  C   UNL     1      -4.558  11.158  17.596  0.00  0.00    +0.000 A 
ATOM      7  C   UNL     1      -3.542  11.707  18.400  0.00  0.00    +0.000 A 
ATOM      8  N   UNL     1      -3.582  12.258  19.674  0.00  0.00    +0.000 N 
ATOM      9  C   UNL     1      -4.658  12.342  20.582  0.00  0.00    +0.000 A 
ATOM     10  O   UNL     1      -5.755  11.894  20.267  0.00  0.00    +0.000 OA
ATOM     11  C   UNL     1      -4.430  12.946  21.916  0.00  0.00    +0.000 A 
ATOM     12  C   UNL     1      -5.437  13.009  22.882  0.00  0.00    +0.000 A 
ATOM     13  C   UNL     1      -5.147  13.554  24.133  0.00  0.00    +0.000 A 
ATOM     14  C   UNL     1      -3.857  14.008  24.418  0.00  0.00    +0.000 A 
ATOM     15  C   UNL     1      -2.859  13.952  23.442  0.00  0.00    +0.000 A 
ATOM     16  C   UNL     1      -3.141  13.437  22.174  0.00  0.00    +0.000 A 
ATOM     17  N   UNL     1      -2.155  13.403  21.174  0.00  0.00    +0.000 N 
ATOM     18  C   UNL     1      -2.332  12.768  19.987  0.00  0.00    +0.000 A 
ATOM     19  H   UNL     1      -1.249  13.789  21.424  0.00  0.00    +0.000 HD
ENDROOT
BRANCH   1  28
ATOM     20  C   UNL     1       1.094  12.105  18.869  0.00  0.00    +0.000 A 
ATOM     21  N   UNL     1       2.172  12.961  18.764  0.00  0.00    +0.000 N 
ATOM     22  C   UNL     1       1.775  14.267  18.641  0.00  0.00    +0.000 A 
ATOM     23  C   UNL     1       2.546  15.426  18.484  0.00  0.00    +0.000 A 
ATOM     24  C   UNL     1       1.875  16.645  18.360  0.00  0.00    +0.000 A 
ATOM     25  C   UNL     1       0.490  16.705  18.448  0.00  0.00    +0.000 A 
ATOM     26  C   UNL     1      -0.255  15.542  18.664  0.00  0.00    +0.000 A 
ATOM     27  C   UNL     1       0.383  14.279  18.712  0.00  0.00    +0.000 A 
ATOM     28  C   UNL     1      -0.047  12.909  18.829  0.00  0.00    +0.000 A 
ATOM     29  H   UNL     1       3.137  12.666  18.756  0.00  0.00    +0.000 HD
BRANCH  20  33
ATOM     30  C   UNL     1       1.886   7.922  19.311  0.00  0.00    +0.000 A 
ATOM     31  C   UNL     1       2.170   8.565  18.104  0.00  0.00    +0.000 A 
ATOM     32  C   UNL     1       1.884   9.923  17.951  0.00  0.00    +0.000 A 
ATOM     33  C   UNL     1       1.299  10.655  18.997  0.00  0.00    +0.000 A 
ATOM     34  C   UNL     1       0.982   9.984  20.186  0.00  0.00    +0.000 A 
ATOM     35  C   UNL     1       1.295   8.634  20.355  0.00  0.00    +0.000 A 
BRANCH  30  37
ATOM     36  N   UNL     1       2.483   5.415  19.632  0.00  0.00    +0.000 NA
ATOM     37  C   UNL     1       2.224   6.537  19.484  0.00  0.00    +0.000 C 
ENDBRANCH  30  37
ENDBRANCH  20  33
ENDBRANCH   1  28
TORSDOF 3
ENDMDL
MODEL 2
REMARK VINA RESULT:      -8.5      1.684      1.983
REMARK  Name = 
REMARK  3 active torsions:
REMARK  status: ('A' for Active; 'I' for Inactive)
REMARK    1  A    between atoms: C_2  and  C_3
REMARK    2  A    between atoms: C_6  and  C_7
REMARK    3  A    between atoms: C_15  and  C_16
REMARK                            x       y       z     vdW  Elec       q    Type
REMARK                         _______ _______ _______ _____ _____    ______ ____
ROOT
ATOM      1  C   UNL     1      -2.531  12.527  19.759  0.00  0.00    +0.000 A 
ATOM      2  C   UNL     1      -2.788  11.878  18.506  0.00  0.00    +0.000 A 
ATOM      3  C   UNL     1      -1.984  11.464  17.416  0.00  0.00    +0.000 A 
ATOM      4  C   UNL     1      -2.573  11.013  16.233  0.00  0.00    +0.000 A 
ATOM      5  C   UNL     1      -3.951  10.880  16.144  0.00  0.00    +0.000 A 
ATOM      6  C   UNL     1      -4.768  11.168  17.240  0.00  0.00    +0.000 A 
ATOM      7  C   UNL     1      -4.173  11.673  18.412  0.00  0.00    +0.000 A 
ATOM      8  N   UNL     1      -4.727  12.046  19.630  0.00  0.00    +0.000 N 
ATOM      9  C   UNL     1      -6.058  11.936  20.081  0.00  0.00    +0.000 A 
ATOM     10  O   UNL     1      -6.913  11.460  19.342  0.00  0.00    +0.000 OA
ATOM     11  C   UNL     1      -6.391  12.371  21.459  0.00  0.00    +0.000 A 
ATOM     12  C   UNL     1      -7.677  12.237  21.988  0.00  0.00    +0.000 A 
ATOM     13  C   UNL     1      -7.916  12.629  23.305  0.00  0.00    +0.000 A 
ATOM     14  C   UNL     1      -6.872  13.129  24.087  0.00  0.00    +0.000 A 
ATOM     15  C   UNL     1      -5.591  13.271  23.547  0.00  0.00    +0.000 A 
ATOM     16  C   UNL     1      -5.343  12.911  22.220  0.00  0.00    +0.000 A 
ATOM     17  N   UNL     1      -4.067  13.077  21.655  0.00  0.00    +0.000 N 
ATOM     18  C   UNL     1      -3.736  12.594  20.429  0.00  0.00    +0.000 A 
ATOM     19  H   UNL     1      -3.360  13.487  22.258  0.00  0.00    +0.000 HD
ENDROOT
BRANCH   1  28
ATOM     20  C   UNL     1      -0.071  12.322  20.545  0.00  0.00    +0.000 A 
ATOM     21  N   UNL     1       0.864  13.253  20.951  0.00  0.00    +0.000 N 
ATOM     22  C   UNL     1       0.375  14.532  20.878  0.00  0.00    +0.000 A 
ATOM     23  C   UNL     1       1.004  15.749  21.168  0.00  0.00    +0.000 A 
ATOM     24  C   UNL     1       0.271  16.924  20.983  0.00  0.00    +0.000 A 
ATOM     25  C   UNL     1      -1.057  16.875  20.580  0.00  0.00    +0.000 A 
ATOM     26  C   UNL     1      -1.683  15.645  20.352  0.00  0.00    +0.000 A 
ATOM     27  C   UNL     1      -0.948  14.438  20.448  0.00  0.00    +0.000 A 
ATOM     28  C   UNL     1      -1.220  13.043  20.213  0.00  0.00    +0.000 A 
ATOM     29  H   UNL     1       1.803  13.029  21.246  0.00  0.00    +0.000 HD
BRANCH  20  33
ATOM     30  C   UNL     1       1.070   8.197  20.591  0.00  0.00    +0.000 A 
ATOM     31  C   UNL     1       1.303   8.976  19.456  0.00  0.00    +0.000 A 
ATOM     32  C   UNL     1       0.905  10.313  19.431  0.00  0.00    +0.000 A 
ATOM     33  C   UNL     1       0.255  10.889  20.535  0.00  0.00    +0.000 A 
ATOM     34  C   UNL     1      -0.010  10.082  21.650  0.00  0.00    +0.000 A 
ATOM     35  C   UNL     1       0.416   8.752  21.692  0.00  0.00    +0.000 A 
BRANCH  30  37
ATOM     36  N   UNL     1       1.873   5.728  20.670  0.00  0.00    +0.000 NA
ATOM     37  C   UNL     1       1.522   6.835  20.635  0.00  0.00    +0.000 C 
ENDBRANCH  30  37
ENDBRANCH  20  33
ENDBRANCH   1  28
TORSDOF 3
ENDMDL
MODEL 3
REMARK VINA RESULT:      -8.2      0.704      1.086
REMARK  Name = 
REMARK  3 active torsions:
REMARK  status: ('A' for Active; 'I' for Inactive)
REMARK    1  A    between atoms: C_2  and  C_3
REMARK    2  A    between atoms: C_6  and  C_7
REMARK    3  A    between atoms: C_15  and  C_16
REMARK                            x       y       z     vdW  Elec       q    Type
REMARK                         _______ _______ _______ _____ _____    ______ ____
ROOT
ATOM      1  C   UNL     1      -1.549  12.523  19.208  0.00  0.00    +0.000 A 
ATOM      2  C   UNL     1      -2.142  11.576  18.307  0.00  0.00    +0.000 A 
ATOM      3  C   UNL     1      -1.654  10.762  17.257  0.00  0.00    +0.000 A 
ATOM      4  C   UNL     1      -2.539  10.067  16.430  0.00  0.00    +0.000 A 
ATOM      5  C   UNL     1      -3.902  10.096  16.684  0.00  0.00    +0.000 A 
ATOM      6  C   UNL     1      -4.409  10.795  17.783  0.00  0.00    +0.000 A 
ATOM      7  C   UNL     1      -3.518  11.537  18.581  0.00  0.00    +0.000 A 
ATOM      8  N   UNL     1      -3.735  12.317  19.709  0.00  0.00    +0.000 N 
ATOM      9  C   UNL     1      -4.920  12.518  20.446  0.00  0.00    +0.000 A 
ATOM     10  O   UNL     1      -5.956  11.964  20.094  0.00  0.00    +0.000 OA
ATOM     11  C   UNL     1      -4.881  13.375  21.655  0.00  0.00    +0.000 A 
ATOM     12  C   UNL     1      -6.005  13.571  22.461  0.00  0.00    +0.000 A 
ATOM     13  C   UNL     1      -5.892  14.357  23.608  0.00  0.00    +0.000 A 
ATOM     14  C   UNL     1      -4.661  14.921  23.952  0.00  0.00    +0.000 A 
ATOM     15  C   UNL     1      -3.545  14.731  23.134  0.00  0.00    +0.000 A 
ATOM     16  C   UNL     1      -3.649  13.971  21.966  0.00  0.00    +0.000 A 
ATOM     17  N   UNL     1      -2.542  13.797  21.118  0.00  0.00    +0.000 N 
ATOM     18  C   UNL     1      -2.549  12.939  20.065  0.00  0.00    +0.000 A 
ATOM     19  H   UNL     1      -1.686  14.268  21.396  0.00  0.00    +0.000 HD
ENDROOT
BRANCH   1  28
ATOM     20  C   UNL     1       1.015  12.220  19.415  0.00  0.00    +0.000 A 
ATOM     21  N   UNL     1       2.073  13.102  19.327  0.00  0.00    +0.000 N 
ATOM     22  C   UNL     1       1.653  14.375  19.037  0.00  0.00    +0.000 A 
ATOM     23  C   UNL     1       2.402  15.542  18.838  0.00  0.00    +0.000 A 
ATOM     24  C   UNL     1       1.711  16.717  18.531  0.00  0.00    +0.000 A 
ATOM     25  C   UNL     1       0.323  16.731  18.481  0.00  0.00    +0.000 A 
ATOM     26  C   UNL     1      -0.406  15.567  18.740  0.00  0.00    +0.000 A 
ATOM     27  C   UNL     1       0.261  14.340  18.974  0.00  0.00    +0.000 A 
ATOM     28  C   UNL     1      -0.139  12.972  19.186  0.00  0.00    +0.000 A 
ATOM     29  H   UNL     1       3.043  12.845  19.440  0.00  0.00    +0.000 HD
BRANCH  20  33
ATOM     30  C   UNL     1       1.493   8.042  20.213  0.00  0.00    +0.000 A 
ATOM     31  C   UNL     1       1.110   8.912  21.237  0.00  0.00    +0.000 A 
ATOM     32  C   UNL     1       0.982  10.278  20.983  0.00  0.00    +0.000 A 
ATOM     33  C   UNL     1       1.249  10.798  19.705  0.00  0.00    +0.000 A 
ATOM     34  C   UNL     1       1.674   9.918  18.701  0.00  0.00    +0.000 A 
ATOM     35  C   UNL     1       1.772   8.546  18.942  0.00  0.00    +0.000 A 
BRANCH  30  37
ATOM     36  N   UNL     1       1.656   5.492  20.677  0.00  0.00    +0.000 NA
ATOM     37  C   UNL     1       1.578   6.631  20.463  0.00  0.00    +0.000 C 
ENDBRANCH  30  37
ENDBRANCH  20  33
ENDBRANCH   1  28
TORSDOF 3
ENDMDL
MODEL 4
REMARK VINA RESULT:      -8.1      2.557      6.652
REMARK  Name = 
REMARK  3 active torsions:
REMARK  status: ('A' for Active; 'I' for Inactive)
REMARK    1  A    between atoms: C_2  and  C_3
REMARK    2  A    between atoms: C_6  and  C_7
REMARK    3  A    between atoms: C_15  and  C_16
REMARK                            x       y       z     vdW  Elec       q    Type
REMARK                         _______ _______ _______ _____ _____    ______ ____
ROOT
ATOM      1  C   UNL     1      -1.709  12.269  20.020  0.00  0.00    +0.000 A 
ATOM      2  C   UNL     1      -0.864  11.183  20.426  0.00  0.00    +0.000 A 
ATOM      3  C   UNL     1      -1.085   9.835  20.800  0.00  0.00    +0.000 A 
ATOM      4  C   UNL     1      -0.046   9.068  21.331  0.00  0.00    +0.000 A 
ATOM      5  C   UNL     1       1.236   9.590  21.415  0.00  0.00    +0.000 A 
ATOM      6  C   UNL     1       1.515  10.876  20.946  0.00  0.00    +0.000 A 
ATOM      7  C   UNL     1       0.454  11.664  20.462  0.00  0.00    +0.000 A 
ATOM      8  N   UNL     1       0.434  12.955  19.950  0.00  0.00    +0.000 N 
ATOM      9  C   UNL     1       1.507  13.829  19.677  0.00  0.00    +0.000 A 
ATOM     10  O   UNL     1       2.657  13.470  19.910  0.00  0.00    +0.000 OA
ATOM     11  C   UNL     1       1.223  15.156  19.082  0.00  0.00    +0.000 A 
ATOM     12  C   UNL     1       2.242  16.046  18.736  0.00  0.00    +0.000 A 
ATOM     13  C   UNL     1       1.910  17.264  18.142  0.00  0.00    +0.000 A 
ATOM     14  C   UNL     1       0.574  17.575  17.880  0.00  0.00    +0.000 A 
ATOM     15  C   UNL     1      -0.441  16.684  18.240  0.00  0.00    +0.000 A 
ATOM     16  C   UNL     1      -0.126  15.473  18.863  0.00  0.00    +0.000 A 
ATOM     17  N   UNL     1      -1.139  14.582  19.259  0.00  0.00    +0.000 N 
ATOM     18  C   UNL     1      -0.879  13.330  19.716  0.00  0.00    +0.000 A 
ATOM     19  H   UNL     1      -2.093  14.882  19.083  0.00  0.00    +0.000 HD
ENDROOT
BRANCH   1  28
ATOM     20  C   UNL     1      -4.014  11.797  18.935  0.00  0.00    +0.000 A 
ATOM     21  N   UNL     1      -5.310  12.022  19.354  0.00  0.00    +0.000 N 
ATOM     22  C   UNL     1      -5.352  12.571  20.610  0.00  0.00    +0.000 A 
ATOM     23  C   UNL     1      -6.457  12.921  21.398  0.00  0.00    +0.000 A 
ATOM     24  C   UNL     1      -6.212  13.450  22.667  0.00  0.00    +0.000 A 
ATOM     25  C   UNL     1      -4.912  13.672  23.105  0.00  0.00    +0.000 A 
ATOM     26  C   UNL     1      -3.826  13.370  22.277  0.00  0.00    +0.000 A 
ATOM     27  C   UNL     1      -4.033  12.756  21.018  0.00  0.00    +0.000 A 
ATOM     28  C   UNL     1      -3.189  12.242  19.970  0.00  0.00    +0.000 A 
ATOM     29  H   UNL     1      -6.133  11.793  18.816  0.00  0.00    +0.000 HD
BRANCH  20  33
ATOM     30  C   UNL     1      -3.098  10.218  15.064  0.00  0.00    +0.000 A 
ATOM     31  C   UNL     1      -4.152  11.121  15.221  0.00  0.00    +0.000 A 
ATOM     32  C   UNL     1      -4.469  11.613  16.488  0.00  0.00    +0.000 A 
ATOM     33  C   UNL     1      -3.746  11.201  17.619  0.00  0.00    +0.000 A 
ATOM     34  C   UNL     1      -2.720  10.261  17.450  0.00  0.00    +0.000 A 
ATOM     35  C   UNL     1      -2.378   9.791  16.180  0.00  0.00    +0.000 A 
BRANCH  30  37
ATOM     36  N   UNL     1      -2.455   9.384  12.690  0.00  0.00    +0.000 NA
ATOM     37  C   UNL     1      -2.743   9.749  13.755  0.00  0.00    +0.000 C 
ENDBRANCH  30  37
ENDBRANCH  20  33
ENDBRANCH   1  28
TORSDOF 3
ENDMDL
MODEL 5
REMARK VINA RESULT:      -7.9      2.687      5.401
REMARK  Name = 
REMARK  3 active torsions:
REMARK  status: ('A' for Active; 'I' for Inactive)
REMARK    1  A    between atoms: C_2  and  C_3
REMARK    2  A    between atoms: C_6  and  C_7
REMARK    3  A    between atoms: C_15  and  C_16
REMARK                            x       y       z     vdW  Elec       q    Type
REMARK                         _______ _______ _______ _____ _____    ______ ____
ROOT
ATOM      1  C   UNL     1      -3.893  13.251  21.912  0.00  0.00    +0.000 A 
ATOM      2  C   UNL     1      -5.229  13.257  22.435  0.00  0.00    +0.000 A 
ATOM      3  C   UNL     1      -5.840  13.780  23.600  0.00  0.00    +0.000 A 
ATOM      4  C   UNL     1      -7.160  13.452  23.916  0.00  0.00    +0.000 A 
ATOM      5  C   UNL     1      -7.917  12.682  23.045  0.00  0.00    +0.000 A 
ATOM      6  C   UNL     1      -7.382  12.246  21.830  0.00  0.00    +0.000 A 
ATOM      7  C   UNL     1      -6.035  12.534  21.542  0.00  0.00    +0.000 A 
ATOM      8  N   UNL     1      -5.252  12.228  20.436  0.00  0.00    +0.000 N 
ATOM      9  C   UNL     1      -5.615  11.608  19.223  0.00  0.00    +0.000 A 
ATOM     10  O   UNL     1      -6.775  11.248  19.048  0.00  0.00    +0.000 OA
ATOM     11  C   UNL     1      -4.589  11.431  18.168  0.00  0.00    +0.000 A 
ATOM     12  C   UNL     1      -4.895  10.876  16.923  0.00  0.00    +0.000 A 
ATOM     13  C   UNL     1      -3.892  10.775  15.958  0.00  0.00    +0.000 A 
ATOM     14  C   UNL     1      -2.606  11.244  16.233  0.00  0.00    +0.000 A 
ATOM     15  C   UNL     1      -2.305  11.786  17.484  0.00  0.00    +0.000 A 
ATOM     16  C   UNL     1      -3.291  11.868  18.472  0.00  0.00    +0.000 A 
ATOM     17  N   UNL     1      -2.994  12.383  19.745  0.00  0.00    +0.000 N 
ATOM     18  C   UNL     1      -3.948  12.632  20.679  0.00  0.00    +0.000 A 
ATOM     19  H   UNL     1      -2.031  12.666  19.901  0.00  0.00    +0.000 HD
ENDROOT
BRANCH   1  28
ATOM     20  C   UNL     1      -1.448  13.181  22.767  0.00  0.00    +0.000 A 
ATOM     21  N   UNL     1      -0.689  14.065  23.505  0.00  0.00    +0.000 N 
ATOM     22  C   UNL     1      -1.381  15.211  23.799  0.00  0.00    +0.000 A 
ATOM     23  C   UNL     1      -0.968  16.354  24.496  0.00  0.00    +0.000 A 
ATOM     24  C   UNL     1      -1.882  17.401  24.635  0.00  0.00    +0.000 A 
ATOM     25  C   UNL     1      -3.176  17.283  24.143  0.00  0.00    +0.000 A 
ATOM     26  C   UNL     1      -3.584  16.109  23.502  0.00  0.00    +0.000 A 
ATOM     27  C   UNL     1      -2.661  15.060  23.270  0.00  0.00    +0.000 A 
ATOM     28  C   UNL     1      -2.694  13.788  22.595  0.00  0.00    +0.000 A 
ATOM     29  H   UNL     1       0.269  13.903  23.782  0.00  0.00    +0.000 HD
BRANCH  20  33
ATOM     30  C   UNL     1       0.357   9.475  21.614  0.00  0.00    +0.000 A 
ATOM     31  C   UNL     1       0.509  10.608  20.811  0.00  0.00    +0.000 A 
ATOM     32  C   UNL     1      -0.104  11.809  21.173  0.00  0.00    +0.000 A 
ATOM     33  C   UNL     1      -0.889  11.892  22.335  0.00  0.00    +0.000 A 
ATOM     34  C   UNL     1      -1.066  10.736  23.105  0.00  0.00    +0.000 A 
ATOM     35  C   UNL     1      -0.429   9.540  22.765  0.00  0.00    +0.000 A 
BRANCH  30  37
ATOM     36  N   UNL     1       1.572   7.263  21.002  0.00  0.00    +0.000 NA
ATOM     37  C   UNL     1       1.026   8.254  21.268  0.00  0.00    +0.000 C 
ENDBRANCH  30  37
ENDBRANCH  20  33
ENDBRANCH   1  28
TORSDOF 3
ENDMDL
MODEL 6
REMARK VINA RESULT:      -7.8      1.594      4.102
REMARK  Name = 
REMARK  3 active torsions:
REMARK  status: ('A' for Active; 'I' for Inactive)
REMARK    1  A    between atoms: C_2  and  C_3
REMARK    2  A    between atoms: C_6  and  C_7
REMARK    3  A    between atoms: C_15  and  C_16
REMARK                            x       y       z     vdW  Elec       q    Type
REMARK                         _______ _______ _______ _____ _____    ______ ____
ROOT
ATOM      1  C   UNL     1      -1.736  13.991  21.034  0.00  0.00    +0.000 A 
ATOM      2  C   UNL     1      -1.882  14.401  22.402  0.00  0.00    +0.000 A 
ATOM      3  C   UNL     1      -1.094  15.156  23.304  0.00  0.00    +0.000 A 
ATOM      4  C   UNL     1      -1.437  15.226  24.656  0.00  0.00    +0.000 A 
ATOM      5  C   UNL     1      -2.602  14.629  25.114  0.00  0.00    +0.000 A 
ATOM      6  C   UNL     1      -3.464  13.974  24.229  0.00  0.00    +0.000 A 
ATOM      7  C   UNL     1      -3.087  13.861  22.878  0.00  0.00    +0.000 A 
ATOM      8  N   UNL     1      -3.729  13.271  21.797  0.00  0.00    +0.000 N 
ATOM      9  C   UNL     1      -5.010  12.685  21.724  0.00  0.00    +0.000 A 
ATOM     10  O   UNL     1      -5.717  12.644  22.726  0.00  0.00    +0.000 OA
ATOM     11  C   UNL     1      -5.488  12.157  20.424  0.00  0.00    +0.000 A 
ATOM     12  C   UNL     1      -6.767  11.616  20.271  0.00  0.00    +0.000 A 
ATOM     13  C   UNL     1      -7.172  11.173  19.012  0.00  0.00    +0.000 A 
ATOM     14  C   UNL     1      -6.312  11.292  17.917  0.00  0.00    +0.000 A 
ATOM     15  C   UNL     1      -5.031  11.823  18.082  0.00  0.00    +0.000 A 
ATOM     16  C   UNL     1      -4.599  12.244  19.343  0.00  0.00    +0.000 A 
ATOM     17  N   UNL     1      -3.302  12.751  19.528  0.00  0.00    +0.000 N 
ATOM     18  C   UNL     1      -2.894  13.321  20.691  0.00  0.00    +0.000 A 
ATOM     19  H   UNL     1      -2.707  12.772  18.706  0.00  0.00    +0.000 HD
ENDROOT
BRANCH   1  28
ATOM     20  C   UNL     1       0.415  13.312  19.761  0.00  0.00    +0.000 A 
ATOM     21  N   UNL     1       1.335  14.032  19.026  0.00  0.00    +0.000 N 
ATOM     22  C   UNL     1       0.996  15.357  18.942  0.00  0.00    +0.000 A 
ATOM     23  C   UNL     1       1.641  16.406  18.272  0.00  0.00    +0.000 A 
ATOM     24  C   UNL     1       1.060  17.675  18.334  0.00  0.00    +0.000 A 
ATOM     25  C   UNL     1      -0.089  17.894  19.083  0.00  0.00    +0.000 A 
ATOM     26  C   UNL     1      -0.682  16.844  19.791  0.00  0.00    +0.000 A 
ATOM     27  C   UNL     1      -0.169  15.528  19.686  0.00  0.00    +0.000 A 
ATOM     28  C   UNL     1      -0.550  14.230  20.181  0.00  0.00    +0.000 A 
ATOM     29  H   UNL     1       2.150  13.633  18.583  0.00  0.00    +0.000 HD
BRANCH  20  33
ATOM     30  C   UNL     1       1.115   9.133  20.367  0.00  0.00    +0.000 A 
ATOM     31  C   UNL     1       1.124   9.665  19.076  0.00  0.00    +0.000 A 
ATOM     32  C   UNL     1       0.867  11.022  18.876  0.00  0.00    +0.000 A 
ATOM     33  C   UNL     1       0.584  11.866  19.963  0.00  0.00    +0.000 A 
ATOM     34  C   UNL     1       0.537  11.308  21.248  0.00  0.00    +0.000 A 
ATOM     35  C   UNL     1       0.825   9.957  21.455  0.00  0.00    +0.000 A 
BRANCH  30  37
ATOM     36  N   UNL     1       1.663   6.624  20.750  0.00  0.00    +0.000 NA
ATOM     37  C   UNL     1       1.426   7.747  20.576  0.00  0.00    +0.000 C 
ENDBRANCH  30  37
ENDBRANCH  20  33
ENDBRANCH   1  28
TORSDOF 3
ENDMDL
MODEL 7
REMARK VINA RESULT:      -7.8      1.872      4.439
REMARK  Name = 
REMARK  3 active torsions:
REMARK  status: ('A' for Active; 'I' for Inactive)
REMARK    1  A    between atoms: C_2  and  C_3
REMARK    2  A    between atoms: C_6  and  C_7
REMARK    3  A    between atoms: C_15  and  C_16
REMARK                            x       y       z     vdW  Elec       q    Type
REMARK                         _______ _______ _______ _____ _____    ______ ____
ROOT
ATOM      1  C   UNL     1      -2.196  14.420  21.094  0.00  0.00    +0.000 A 
ATOM      2  C   UNL     1      -2.273  14.800  22.475  0.00  0.00    +0.000 A 
ATOM      3  C   UNL     1      -1.505  15.635  23.322  0.00  0.00    +0.000 A 
ATOM      4  C   UNL     1      -1.739  15.655  24.699  0.00  0.00    +0.000 A 
ATOM      5  C   UNL     1      -2.786  14.924  25.241  0.00  0.00    +0.000 A 
ATOM      6  C   UNL     1      -3.638  14.181  24.419  0.00  0.00    +0.000 A 
ATOM      7  C   UNL     1      -3.364  14.122  23.040  0.00  0.00    +0.000 A 
ATOM      8  N   UNL     1      -4.022  13.469  22.005  0.00  0.00    +0.000 N 
ATOM      9  C   UNL     1      -5.229  12.739  22.028  0.00  0.00    +0.000 A 
ATOM     10  O   UNL     1      -5.841  12.610  23.083  0.00  0.00    +0.000 OA
ATOM     11  C   UNL     1      -5.750  12.168  20.763  0.00  0.00    +0.000 A 
ATOM     12  C   UNL     1      -6.967  11.484  20.706  0.00  0.00    +0.000 A 
ATOM     13  C   UNL     1      -7.422  11.005  19.477  0.00  0.00    +0.000 A 
ATOM     14  C   UNL     1      -6.675  11.231  18.318  0.00  0.00    +0.000 A 
ATOM     15  C   UNL     1      -5.454  11.905  18.386  0.00  0.00    +0.000 A 
ATOM     16  C   UNL     1      -4.970  12.364  19.614  0.00  0.00    +0.000 A 
ATOM     17  N   UNL     1      -3.729  13.017  19.701  0.00  0.00    +0.000 N 
ATOM     18  C   UNL     1      -3.293  13.622  20.836  0.00  0.00    +0.000 A 
ATOM     19  H   UNL     1      -3.210  13.112  18.833  0.00  0.00    +0.000 HD
ENDROOT
BRANCH   1  28
ATOM     20  C   UNL     1      -0.047  14.026  19.701  0.00  0.00    +0.000 A 
ATOM     21  N   UNL     1       0.697  14.844  18.875  0.00  0.00    +0.000 N 
ATOM     22  C   UNL     1       0.144  16.093  18.762  0.00  0.00    +0.000 A 
ATOM     23  C   UNL     1       0.567  17.195  18.007  0.00  0.00    +0.000 A 
ATOM     24  C   UNL     1      -0.206  18.357  18.058  0.00  0.00    +0.000 A 
ATOM     25  C   UNL     1      -1.326  18.429  18.877  0.00  0.00    +0.000 A 
ATOM     26  C   UNL     1      -1.696  17.336  19.667  0.00  0.00    +0.000 A 
ATOM     27  C   UNL     1      -0.985  16.114  19.579  0.00  0.00    +0.000 A 
ATOM     28  C   UNL     1      -1.119  14.799  20.151  0.00  0.00    +0.000 A 
ATOM     29  H   UNL     1       1.536  14.557  18.392  0.00  0.00    +0.000 HD
BRANCH  20  33
ATOM     30  C   UNL     1       0.956   9.922  20.388  0.00  0.00    +0.000 A 
ATOM     31  C   UNL     1       0.555  10.733  21.453  0.00  0.00    +0.000 A 
ATOM     32  C   UNL     1       0.257  12.079  21.233  0.00  0.00    +0.000 A 
ATOM     33  C   UNL     1       0.366  12.637  19.949  0.00  0.00    +0.000 A 
ATOM     34  C   UNL     1       0.810  11.820  18.901  0.00  0.00    +0.000 A 
ATOM     35  C   UNL     1       1.079  10.466  19.109  0.00  0.00    +0.000 A 
BRANCH  30  37
ATOM     36  N   UNL     1       1.444   7.402  20.784  0.00  0.00    +0.000 NA
ATOM     37  C   UNL     1       1.217   8.527  20.606  0.00  0.00    +0.000 C 
ENDBRANCH  30  37
ENDBRANCH  20  33
ENDBRANCH   1  28
TORSDOF 3
ENDMDL
MODEL 8
REMARK VINA RESULT:      -7.8      2.337      5.431
REMARK  Name = 
REMARK  3 active torsions:
REMARK  status: ('A' for Active; 'I' for Inactive)
REMARK    1  A    between atoms: C_2  and  C_3
REMARK    2  A    between atoms: C_6  and  C_7
REMARK    3  A    between atoms: C_15  and  C_16
REMARK                            x       y       z     vdW  Elec       q    Type
REMARK                         _______ _______ _______ _____ _____    ______ ____
ROOT
ATOM      1  C   UNL     1      -1.617  12.672  20.641  0.00  0.00    +0.000 A 
ATOM      2  C   UNL     1      -0.793  11.660  20.044  0.00  0.00    +0.000 A 
ATOM      3  C   UNL     1       0.506  11.156  20.300  0.00  0.00    +0.000 A 
ATOM      4  C   UNL     1       1.111  10.273  19.403  0.00  0.00    +0.000 A 
ATOM      5  C   UNL     1       0.412   9.810  18.298  0.00  0.00    +0.000 A 
ATOM      6  C   UNL     1      -0.913  10.196  18.079  0.00  0.00    +0.000 A 
ATOM      7  C   UNL     1      -1.500  11.127  18.956  0.00  0.00    +0.000 A 
ATOM      8  N   UNL     1      -2.772  11.686  18.978  0.00  0.00    +0.000 N 
ATOM      9  C   UNL     1      -3.890  11.403  18.166  0.00  0.00    +0.000 A 
ATOM     10  O   UNL     1      -3.801  10.559  17.281  0.00  0.00    +0.000 OA
ATOM     11  C   UNL     1      -5.165  12.115  18.423  0.00  0.00    +0.000 A 
ATOM     12  C   UNL     1      -6.324  11.843  17.693  0.00  0.00    +0.000 A 
ATOM     13  C   UNL     1      -7.503  12.518  18.011  0.00  0.00    +0.000 A 
ATOM     14  C   UNL     1      -7.521  13.439  19.061  0.00  0.00    +0.000 A 
ATOM     15  C   UNL     1      -6.354  13.715  19.778  0.00  0.00    +0.000 A 
ATOM     16  C   UNL     1      -5.158  13.068  19.452  0.00  0.00    +0.000 A 
ATOM     17  N   UNL     1      -3.971  13.359  20.144  0.00  0.00    +0.000 N 
ATOM     18  C   UNL     1      -2.828  12.645  19.977  0.00  0.00    +0.000 A 
ATOM     19  H   UNL     1      -4.035  14.069  20.867  0.00  0.00    +0.000 HD
ENDROOT
BRANCH   1  28
ATOM     20  C   UNL     1      -0.050  14.340  21.855  0.00  0.00    +0.000 A 
ATOM     21  N   UNL     1      -0.125  14.976  23.077  0.00  0.00    +0.000 N 
ATOM     22  C   UNL     1      -1.287  14.673  23.739  0.00  0.00    +0.000 A 
ATOM     23  C   UNL     1      -1.756  15.127  24.979  0.00  0.00    +0.000 A 
ATOM     24  C   UNL     1      -3.002  14.669  25.414  0.00  0.00    +0.000 A 
ATOM     25  C   UNL     1      -3.721  13.748  24.662  0.00  0.00    +0.000 A 
ATOM     26  C   UNL     1      -3.206  13.264  23.455  0.00  0.00    +0.000 A 
ATOM     27  C   UNL     1      -1.986  13.768  22.942  0.00  0.00    +0.000 A 
ATOM     28  C   UNL     1      -1.215  13.579  21.740  0.00  0.00    +0.000 A 
ATOM     29  H   UNL     1       0.576  15.607  23.437  0.00  0.00    +0.000 HD
BRANCH  20  33
ATOM     30  C   UNL     1       3.315  14.720  19.237  0.00  0.00    +0.000 A 
ATOM     31  C   UNL     1       3.499  14.313  20.560  0.00  0.00    +0.000 A 
ATOM     32  C   UNL     1       2.405  14.217  21.421  0.00  0.00    +0.000 A 
ATOM     33  C   UNL     1       1.112  14.539  20.977  0.00  0.00    +0.000 A 
ATOM     34  C   UNL     1       0.951  14.987  19.659  0.00  0.00    +0.000 A 
ATOM     35  C   UNL     1       2.038  15.053  18.784  0.00  0.00    +0.000 A 
BRANCH  30  37
ATOM     36  N   UNL     1       5.331  14.827  17.604  0.00  0.00    +0.000 NA
ATOM     37  C   UNL     1       4.433  14.773  18.338  0.00  0.00    +0.000 C 
ENDBRANCH  30  37
ENDBRANCH  20  33
ENDBRANCH   1  28
TORSDOF 3
ENDMDL
MODEL 9
REMARK VINA RESULT:      -7.7      6.329      9.222
REMARK  Name = 
REMARK  3 active torsions:
REMARK  status: ('A' for Active; 'I' for Inactive)
REMARK    1  A    between atoms: C_2  and  C_3
REMARK    2  A    between atoms: C_6  and  C_7
REMARK    3  A    between atoms: C_15  and  C_16
REMARK                            x       y       z     vdW  Elec       q    Type
REMARK                         _______ _______ _______ _____ _____    ______ ____
ROOT
ATOM      1  C   UNL     1       7.452  14.709  20.186  0.00  0.00    +0.000 A 
ATOM      2  C   UNL     1       7.678  14.181  21.500  0.00  0.00    +0.000 A 
ATOM      3  C   UNL     1       8.822  13.748  22.216  0.00  0.00    +0.000 A 
ATOM      4  C   UNL     1       8.684  13.100  23.445  0.00  0.00    +0.000 A 
ATOM      5  C   UNL     1       7.430  12.953  24.022  0.00  0.00    +0.000 A 
ATOM      6  C   UNL     1       6.293  13.473  23.399  0.00  0.00    +0.000 A 
ATOM      7  C   UNL     1       6.431  14.077  22.135  0.00  0.00    +0.000 A 
ATOM      8  N   UNL     1       5.493  14.663  21.295  0.00  0.00    +0.000 N 
ATOM      9  C   UNL     1       4.121  14.906  21.513  0.00  0.00    +0.000 A 
ATOM     10  O   UNL     1       3.605  14.570  22.575  0.00  0.00    +0.000 OA
ATOM     11  C   UNL     1       3.335  15.595  20.462  0.00  0.00    +0.000 A 
ATOM     12  C   UNL     1       1.986  15.917  20.638  0.00  0.00    +0.000 A 
ATOM     13  C   UNL     1       1.313  16.602  19.626  0.00  0.00    +0.000 A 
ATOM     14  C   UNL     1       1.990  16.978  18.463  0.00  0.00    +0.000 A 
ATOM     15  C   UNL     1       3.335  16.642  18.291  0.00  0.00    +0.000 A 
ATOM     16  C   UNL     1       4.016  15.929  19.282  0.00  0.00    +0.000 A 
ATOM     17  N   UNL     1       5.360  15.558  19.108  0.00  0.00    +0.000 N 
ATOM     18  C   UNL     1       6.107  15.012  20.103  0.00  0.00    +0.000 A 
ATOM     19  H   UNL     1       5.786  15.819  18.225  0.00  0.00    +0.000 HD
ENDROOT
BRANCH   1  28
ATOM     20  C   UNL     1       9.113  13.868  18.385  0.00  0.00    +0.000 A 
ATOM     21  N   UNL     1      10.011  14.518  17.563  0.00  0.00    +0.000 N 
ATOM     22  C   UNL     1       9.966  15.877  17.731  0.00  0.00    +0.000 A 
ATOM     23  C   UNL     1      10.686  16.886  17.077  0.00  0.00    +0.000 A 
ATOM     24  C   UNL     1      10.425  18.211  17.433  0.00  0.00    +0.000 A 
ATOM     25  C   UNL     1       9.519  18.509  18.443  0.00  0.00    +0.000 A 
ATOM     26  C   UNL     1       8.855  17.483  19.122  0.00  0.00    +0.000 A 
ATOM     27  C   UNL     1       9.032  16.133  18.733  0.00  0.00    +0.000 A 
ATOM     28  C   UNL     1       8.475  14.864  19.127  0.00  0.00    +0.000 A 
ATOM     29  H   UNL     1      10.617  14.056  16.900  0.00  0.00    +0.000 HD
BRANCH  20  33
ATOM     30  C   UNL     1       8.601   9.619  18.427  0.00  0.00    +0.000 A 
ATOM     31  C   UNL     1       9.464  10.230  19.340  0.00  0.00    +0.000 A 
ATOM     32  C   UNL     1       9.653  11.612  19.307  0.00  0.00    +0.000 A 
ATOM     33  C   UNL     1       8.993  12.404  18.353  0.00  0.00    +0.000 A 
ATOM     34  C   UNL     1       8.164  11.769  17.417  0.00  0.00    +0.000 A 
ATOM     35  C   UNL     1       7.947  10.391  17.467  0.00  0.00    +0.000 A 
BRANCH  30  37
ATOM     36  N   UNL     1       8.186   7.059  18.561  0.00  0.00    +0.000 NA
ATOM     37  C   UNL     1       8.371   8.203  18.493  0.00  0.00    +0.000 C 
ENDBRANCH  30  37
ENDBRANCH  20  33
ENDBRANCH   1  28
TORSDOF 3
ENDMDL
