MODEL 1
REMARK VINA RESULT:      -7.7      0.000      0.000
REMARK  Name = 
REMARK  8 active torsions:
REMARK  status: ('A' for Active; 'I' for Inactive)
REMARK    1  A    between atoms: C_1  and  C_2
REMARK    2  A    between atoms: C_2  and  O_3
REMARK    3  A    between atoms: O_3  and  C_4
REMARK    4  A    between atoms: C_4  and  C_6
REMARK    5  A    between atoms: C_6  and  C_8
REMARK    6  A    between atoms: C_8  and  C_9
REMARK    7  A    between atoms: C_18  and  C_19
REMARK    8  A    between atoms: C_23  and  C_24
REMARK                            x       y       z     vdW  Elec       q    Type
REMARK                         _______ _______ _______ _____ _____    ______ ____
ROOT
ATOM      1  C   UNL     1       5.772   4.570  18.204  0.00  0.00    +0.000 C 
ATOM      2  N   UNL     1       5.309   3.703  19.054  0.00  0.00    +0.000 NA
ATOM      3  C   UNL     1       3.922   3.489  19.205  0.00  0.00    +0.000 A 
ATOM      4  C   UNL     1       3.426   3.528  20.514  0.00  0.00    +0.000 A 
ATOM      5  C   UNL     1       2.084   3.261  20.796  0.00  0.00    +0.000 A 
ATOM      6  C   UNL     1       1.212   2.939  19.761  0.00  0.00    +0.000 A 
ATOM      7  C   UNL     1       1.686   2.888  18.451  0.00  0.00    +0.000 A 
ATOM      8  C   UNL     1       3.031   3.167  18.163  0.00  0.00    +0.000 A 
ATOM      9  S   UNL     1       3.533   2.978  16.464  0.00  0.00    +0.000 S 
ATOM     10  C   UNL     1       4.320   4.610  16.104  0.00  0.00    +0.000 C 
ATOM     11  C   UNL     1       4.906   5.399  17.283  0.00  0.00    +0.000 C 
ENDROOT
BRANCH  10  12
ATOM     12  C   UNL     1       5.306   4.429  14.955  0.00  0.00    +0.000 A 
ATOM     13  C   UNL     1       6.514   5.142  14.952  0.00  0.00    +0.000 A 
ATOM     14  C   UNL     1       7.392   5.050  13.871  0.00  0.00    +0.000 A 
ATOM     15  C   UNL     1       7.089   4.225  12.789  0.00  0.00    +0.000 A 
ATOM     16  C   UNL     1       5.907   3.482  12.779  0.00  0.00    +0.000 A 
ATOM     17  C   UNL     1       5.595   2.541  11.652  0.00  0.00    +0.000 C 
ATOM     18  C   UNL     1       5.020   3.596  13.858  0.00  0.00    +0.000 A 
ENDBRANCH  10  12
BRANCH   1  19
ATOM     19  C   UNL     1       7.272   4.774  18.165  0.00  0.00    +0.000 C 
BRANCH  19  20
ATOM     20  C   UNL     1       7.727   5.961  18.974  0.00  0.00    +0.000 C 
ATOM     21  O   UNL     1       7.807   5.951  20.199  0.00  0.00    +0.000 OA
BRANCH  20  22
ATOM     22  C   UNL     1       7.985   7.250  18.176  0.00  0.00    +0.000 C 
ATOM     23  O   UNL     1       7.559   7.411  17.045  0.00  0.00    +0.000 OA
BRANCH  22  24
ATOM     24  O   UNL     1       8.694   8.133  18.908  0.00  0.00    +0.000 OA
BRANCH  24  26
ATOM     25  C   UNL     1       9.340  10.408  19.476  0.00  0.00    +0.000 C 
ATOM     26  C   UNL     1       8.695   9.495  18.449  0.00  0.00    +0.000 C 
ENDBRANCH  24  26
ENDBRANCH  22  24
ENDBRANCH  20  22
ENDBRANCH  19  20
ENDBRANCH   1  19
TORSDOF 6
ENDMDL
MODEL 2
REMARK VINA RESULT:      -7.3      4.248      7.517
REMARK  Name = 
REMARK  8 active torsions:
REMARK  status: ('A' for Active; 'I' for Inactive)
REMARK    1  A    between atoms: C_1  and  C_2
REMARK    2  A    between atoms: C_2  and  O_3
REMARK    3  A    between atoms: O_3  and  C_4
REMARK    4  A    between atoms: C_4  and  C_6
REMARK    5  A    between atoms: C_6  and  C_8
REMARK    6  A    between atoms: C_8  and  C_9
REMARK    7  A    between atoms: C_18  and  C_19
REMARK    8  A    between atoms: C_23  and  C_24
REMARK                            x       y       z     vdW  Elec       q    Type
REMARK                         _______ _______ _______ _____ _____    ______ ____
ROOT
ATOM      1  C   UNL     1       3.307   5.286  19.079  0.00  0.00    +0.000 C 
ATOM      2  N   UNL     1       4.531   4.998  18.747  0.00  0.00    +0.000 NA
ATOM      3  C   UNL     1       4.975   5.104  17.411  0.00  0.00    +0.000 A 
ATOM      4  C   UNL     1       5.640   3.988  16.887  0.00  0.00    +0.000 A 
ATOM      5  C   UNL     1       6.187   4.000  15.602  0.00  0.00    +0.000 A 
ATOM      6  C   UNL     1       6.082   5.145  14.818  0.00  0.00    +0.000 A 
ATOM      7  C   UNL     1       5.429   6.268  15.322  0.00  0.00    +0.000 A 
ATOM      8  C   UNL     1       4.869   6.256  16.608  0.00  0.00    +0.000 A 
ATOM      9  S   UNL     1       4.144   7.783  17.171  0.00  0.00    +0.000 S 
ATOM     10  C   UNL     1       2.453   7.247  17.686  0.00  0.00    +0.000 C 
ATOM     11  C   UNL     1       2.261   5.783  18.108  0.00  0.00    +0.000 C 
ENDROOT
BRANCH  10  12
ATOM     12  C   UNL     1       1.921   8.241  18.713  0.00  0.00    +0.000 A 
ATOM     13  C   UNL     1       1.789   7.856  20.055  0.00  0.00    +0.000 A 
ATOM     14  C   UNL     1       1.230   8.725  20.993  0.00  0.00    +0.000 A 
ATOM     15  C   UNL     1       0.819  10.001  20.611  0.00  0.00    +0.000 A 
ATOM     16  C   UNL     1       0.965  10.420  19.287  0.00  0.00    +0.000 A 
ATOM     17  C   UNL     1       0.587  11.812  18.871  0.00  0.00    +0.000 C 
ATOM     18  C   UNL     1       1.507   9.534  18.346  0.00  0.00    +0.000 A 
ENDBRANCH  10  12
BRANCH   1  19
ATOM     19  C   UNL     1       2.911   5.075  20.526  0.00  0.00    +0.000 C 
BRANCH  19  20
ATOM     20  C   UNL     1       1.751   4.127  20.688  0.00  0.00    +0.000 C 
ATOM     21  O   UNL     1       0.578   4.486  20.658  0.00  0.00    +0.000 OA
BRANCH  20  22
ATOM     22  C   UNL     1       2.123   2.670  21.012  0.00  0.00    +0.000 C 
ATOM     23  O   UNL     1       2.787   2.371  21.991  0.00  0.00    +0.000 OA
BRANCH  22  24
ATOM     24  O   UNL     1       1.596   1.826  20.102  0.00  0.00    +0.000 OA
BRANCH  24  26
ATOM     25  C   UNL     1       3.469   1.525  18.582  0.00  0.00    +0.000 C 
ATOM     26  C   UNL     1       2.034   1.990  18.743  0.00  0.00    +0.000 C 
ENDBRANCH  24  26
ENDBRANCH  22  24
ENDBRANCH  20  22
ENDBRANCH  19  20
ENDBRANCH   1  19
TORSDOF 6
ENDMDL
MODEL 3
REMARK VINA RESULT:      -7.3      4.306      7.558
REMARK  Name = 
REMARK  8 active torsions:
REMARK  status: ('A' for Active; 'I' for Inactive)
REMARK    1  A    between atoms: C_1  and  C_2
REMARK    2  A    between atoms: C_2  and  O_3
REMARK    3  A    between atoms: O_3  and  C_4
REMARK    4  A    between atoms: C_4  and  C_6
REMARK    5  A    between atoms: C_6  and  C_8
REMARK    6  A    between atoms: C_8  and  C_9
REMARK    7  A    between atoms: C_18  and  C_19
REMARK    8  A    between atoms: C_23  and  C_24
REMARK                            x       y       z     vdW  Elec       q    Type
REMARK                         _______ _______ _______ _____ _____    ______ ____
ROOT
ATOM      1  C   UNL     1       2.969   5.447  19.455  0.00  0.00    +0.000 C 
ATOM      2  N   UNL     1       4.247   5.209  19.457  0.00  0.00    +0.000 NA
ATOM      3  C   UNL     1       5.015   5.311  18.277  0.00  0.00    +0.000 A 
ATOM      4  C   UNL     1       5.836   4.217  17.974  0.00  0.00    +0.000 A 
ATOM      5  C   UNL     1       6.694   4.230  16.872  0.00  0.00    +0.000 A 
ATOM      6  C   UNL     1       6.750   5.354  16.054  0.00  0.00    +0.000 A 
ATOM      7  C   UNL     1       5.946   6.455  16.340  0.00  0.00    +0.000 A 
ATOM      8  C   UNL     1       5.074   6.442  17.440  0.00  0.00    +0.000 A 
ATOM      9  S   UNL     1       4.170   7.944  17.753  0.00  0.00    +0.000 S 
ATOM     10  C   UNL     1       2.425   7.342  17.833  0.00  0.00    +0.000 C 
ATOM     11  C   UNL     1       2.189   5.879  18.235  0.00  0.00    +0.000 C 
ENDROOT
BRANCH  10  12
ATOM     12  C   UNL     1       1.609   8.330  18.660  0.00  0.00    +0.000 A 
ATOM     13  C   UNL     1       0.862   9.328  18.019  0.00  0.00    +0.000 A 
ATOM     14  C   UNL     1       0.174  10.289  18.760  0.00  0.00    +0.000 A 
ATOM     15  C   UNL     1       0.200  10.253  20.154  0.00  0.00    +0.000 A 
ATOM     16  C   UNL     1       0.914   9.252  20.818  0.00  0.00    +0.000 A 
ATOM     17  C   UNL     1       0.901   9.160  22.316  0.00  0.00    +0.000 C 
ATOM     18  C   UNL     1       1.620   8.304  20.067  0.00  0.00    +0.000 A 
ENDBRANCH  10  12
BRANCH   1  19
ATOM     19  C   UNL     1       2.222   5.246  20.758  0.00  0.00    +0.000 C 
BRANCH  19  20
ATOM     20  C   UNL     1       2.050   3.794  21.121  0.00  0.00    +0.000 C 
ATOM     21  O   UNL     1       2.548   3.285  22.120  0.00  0.00    +0.000 OA
BRANCH  20  22
ATOM     22  C   UNL     1       1.295   2.936  20.090  0.00  0.00    +0.000 C 
ATOM     23  O   UNL     1       0.250   3.303  19.580  0.00  0.00    +0.000 OA
BRANCH  22  24
ATOM     24  O   UNL     1       1.962   1.791  19.838  0.00  0.00    +0.000 OA
BRANCH  24  26
ATOM     25  C   UNL     1       2.650   2.209  17.544  0.00  0.00    +0.000 C 
ATOM     26  C   UNL     1       3.095   1.887  18.959  0.00  0.00    +0.000 C 
ENDBRANCH  24  26
ENDBRANCH  22  24
ENDBRANCH  20  22
ENDBRANCH  19  20
ENDBRANCH   1  19
TORSDOF 6
ENDMDL
MODEL 4
REMARK VINA RESULT:      -7.3      4.165      7.493
REMARK  Name = 
REMARK  8 active torsions:
REMARK  status: ('A' for Active; 'I' for Inactive)
REMARK    1  A    between atoms: C_1  and  C_2
REMARK    2  A    between atoms: C_2  and  O_3
REMARK    3  A    between atoms: O_3  and  C_4
REMARK    4  A    between atoms: C_4  and  C_6
REMARK    5  A    between atoms: C_6  and  C_8
REMARK    6  A    between atoms: C_8  and  C_9
REMARK    7  A    between atoms: C_18  and  C_19
REMARK    8  A    between atoms: C_23  and  C_24
REMARK                            x       y       z     vdW  Elec       q    Type
REMARK                         _______ _______ _______ _____ _____    ______ ____
ROOT
ATOM      1  C   UNL     1       3.183   5.422  19.064  0.00  0.00    +0.000 C 
ATOM      2  N   UNL     1       4.423   5.117  18.820  0.00  0.00    +0.000 NA
ATOM      3  C   UNL     1       4.946   5.162  17.510  0.00  0.00    +0.000 A 
ATOM      4  C   UNL     1       5.637   4.023  17.077  0.00  0.00    +0.000 A 
ATOM      5  C   UNL     1       6.260   3.976  15.828  0.00  0.00    +0.000 A 
ATOM      6  C   UNL     1       6.208   5.085  14.989  0.00  0.00    +0.000 A 
ATOM      7  C   UNL     1       5.532   6.231  15.402  0.00  0.00    +0.000 A 
ATOM      8  C   UNL     1       4.895   6.278  16.651  0.00  0.00    +0.000 A 
ATOM      9  S   UNL     1       4.145   7.829  17.101  0.00  0.00    +0.000 S 
ATOM     10  C   UNL     1       2.423   7.321  17.536  0.00  0.00    +0.000 C 
ATOM     11  C   UNL     1       2.199   5.878  18.011  0.00  0.00    +0.000 C 
ENDROOT
BRANCH  10  12
ATOM     12  C   UNL     1       1.835   8.361  18.484  0.00  0.00    +0.000 A 
ATOM     13  C   UNL     1       1.462   9.621  17.994  0.00  0.00    +0.000 A 
ATOM     14  C   UNL     1       0.998  10.612  18.860  0.00  0.00    +0.000 A 
ATOM     15  C   UNL     1       0.875  10.352  20.224  0.00  0.00    +0.000 A 
ATOM     16  C   UNL     1       1.213   9.096  20.735  0.00  0.00    +0.000 A 
ATOM     17  C   UNL     1       1.027   8.778  22.189  0.00  0.00    +0.000 C 
ATOM     18  C   UNL     1       1.699   8.114  19.862  0.00  0.00    +0.000 A 
ENDBRANCH  10  12
BRANCH   1  19
ATOM     19  C   UNL     1       2.699   5.277  20.492  0.00  0.00    +0.000 C 
BRANCH  19  20
ATOM     20  C   UNL     1       1.647   4.211  20.653  0.00  0.00    +0.000 C 
ATOM     21  O   UNL     1       0.443   4.442  20.615  0.00  0.00    +0.000 OA
BRANCH  20  22
ATOM     22  C   UNL     1       2.171   2.804  20.989  0.00  0.00    +0.000 C 
ATOM     23  O   UNL     1       2.700   2.544  22.056  0.00  0.00    +0.000 OA
BRANCH  22  24
ATOM     24  O   UNL     1       1.932   1.949  19.974  0.00  0.00    +0.000 OA
BRANCH  24  26
ATOM     25  C   UNL     1       2.470   2.171  17.613  0.00  0.00    +0.000 C 
ATOM     26  C   UNL     1       2.975   1.803  18.996  0.00  0.00    +0.000 C 
ENDBRANCH  24  26
ENDBRANCH  22  24
ENDBRANCH  20  22
ENDBRANCH  19  20
ENDBRANCH   1  19
TORSDOF 6
ENDMDL
MODEL 5
REMARK VINA RESULT:      -7.2      4.327      7.574
REMARK  Name = 
REMARK  8 active torsions:
REMARK  status: ('A' for Active; 'I' for Inactive)
REMARK    1  A    between atoms: C_1  and  C_2
REMARK    2  A    between atoms: C_2  and  O_3
REMARK    3  A    between atoms: O_3  and  C_4
REMARK    4  A    between atoms: C_4  and  C_6
REMARK    5  A    between atoms: C_6  and  C_8
REMARK    6  A    between atoms: C_8  and  C_9
REMARK    7  A    between atoms: C_18  and  C_19
REMARK    8  A    between atoms: C_23  and  C_24
REMARK                            x       y       z     vdW  Elec       q    Type
REMARK                         _______ _______ _______ _____ _____    ______ ____
ROOT
ATOM      1  C   UNL     1       3.040   5.213  19.364  0.00  0.00    +0.000 C 
ATOM      2  N   UNL     1       4.268   4.912  19.063  0.00  0.00    +0.000 NA
ATOM      3  C   UNL     1       4.762   5.069  17.750  0.00  0.00    +0.000 A 
ATOM      4  C   UNL     1       5.423   3.964  17.199  0.00  0.00    +0.000 A 
ATOM      5  C   UNL     1       6.016   4.022  15.936  0.00  0.00    +0.000 A 
ATOM      6  C   UNL     1       5.965   5.204  15.202  0.00  0.00    +0.000 A 
ATOM      7  C   UNL     1       5.318   6.317  15.734  0.00  0.00    +0.000 A 
ATOM      8  C   UNL     1       4.711   6.259  16.998  0.00  0.00    +0.000 A 
ATOM      9  S   UNL     1       3.998   7.775  17.606  0.00  0.00    +0.000 S 
ATOM     10  C   UNL     1       2.278   7.255  18.035  0.00  0.00    +0.000 C 
ATOM     11  C   UNL     1       2.040   5.778  18.381  0.00  0.00    +0.000 C 
ENDROOT
BRANCH  10  12
ATOM     12  C   UNL     1       1.731   8.213  19.087  0.00  0.00    +0.000 A 
ATOM     13  C   UNL     1       1.728   7.838  20.439  0.00  0.00    +0.000 A 
ATOM     14  C   UNL     1       1.159   8.668  21.406  0.00  0.00    +0.000 A 
ATOM     15  C   UNL     1       0.607   9.895  21.042  0.00  0.00    +0.000 A 
ATOM     16  C   UNL     1       0.623  10.306  19.707  0.00  0.00    +0.000 A 
ATOM     17  C   UNL     1       0.091  11.651  19.306  0.00  0.00    +0.000 C 
ATOM     18  C   UNL     1       1.176   9.458  18.739  0.00  0.00    +0.000 A 
ENDBRANCH  10  12
BRANCH   1  19
ATOM     19  C   UNL     1       2.587   4.945  20.784  0.00  0.00    +0.000 C 
BRANCH  19  20
ATOM     20  C   UNL     1       2.323   3.487  21.055  0.00  0.00    +0.000 C 
ATOM     21  O   UNL     1       2.913   2.844  21.917  0.00  0.00    +0.000 OA
BRANCH  20  22
ATOM     22  C   UNL     1       1.332   2.802  20.097  0.00  0.00    +0.000 C 
ATOM     23  O   UNL     1       0.261   3.303  19.802  0.00  0.00    +0.000 OA
BRANCH  22  24
ATOM     24  O   UNL     1       1.835   1.636  19.641  0.00  0.00    +0.000 OA
BRANCH  24  26
ATOM     25  C   UNL     1       2.460   2.198  17.359  0.00  0.00    +0.000 C 
ATOM     26  C   UNL     1       2.935   1.727  18.721  0.00  0.00    +0.000 C 
ENDBRANCH  24  26
ENDBRANCH  22  24
ENDBRANCH  20  22
ENDBRANCH  19  20
ENDBRANCH   1  19
TORSDOF 6
ENDMDL
MODEL 6
REMARK VINA RESULT:      -7.2      3.401      5.992
REMARK  Name = 
REMARK  8 active torsions:
REMARK  status: ('A' for Active; 'I' for Inactive)
REMARK    1  A    between atoms: C_1  and  C_2
REMARK    2  A    between atoms: C_2  and  O_3
REMARK    3  A    between atoms: O_3  and  C_4
REMARK    4  A    between atoms: C_4  and  C_6
REMARK    5  A    between atoms: C_6  and  C_8
REMARK    6  A    between atoms: C_8  and  C_9
REMARK    7  A    between atoms: C_18  and  C_19
REMARK    8  A    between atoms: C_23  and  C_24
REMARK                            x       y       z     vdW  Elec       q    Type
REMARK                         _______ _______ _______ _____ _____    ______ ____
ROOT
ATOM      1  C   UNL     1       4.240   5.736  17.797  0.00  0.00    +0.000 C 
ATOM      2  N   UNL     1       3.956   4.594  17.245  0.00  0.00    +0.000 NA
ATOM      3  C   UNL     1       3.477   3.508  18.009  0.00  0.00    +0.000 A 
ATOM      4  C   UNL     1       4.135   2.284  17.829  0.00  0.00    +0.000 A 
ATOM      5  C   UNL     1       3.708   1.122  18.475  0.00  0.00    +0.000 A 
ATOM      6  C   UNL     1       2.598   1.167  19.313  0.00  0.00    +0.000 A 
ATOM      7  C   UNL     1       1.924   2.372  19.501  0.00  0.00    +0.000 A 
ATOM      8  C   UNL     1       2.358   3.544  18.863  0.00  0.00    +0.000 A 
ATOM      9  S   UNL     1       1.358   4.998  19.110  0.00  0.00    +0.000 S 
ATOM     10  C   UNL     1       2.602   6.234  19.691  0.00  0.00    +0.000 C 
ATOM     11  C   UNL     1       4.064   6.033  19.269  0.00  0.00    +0.000 C 
ENDROOT
BRANCH  10  12
ATOM     12  C   UNL     1       2.076   7.632  19.383  0.00  0.00    +0.000 A 
ATOM     13  C   UNL     1       2.248   8.176  18.102  0.00  0.00    +0.000 A 
ATOM     14  C   UNL     1       1.845   9.483  17.825  0.00  0.00    +0.000 A 
ATOM     15  C   UNL     1       1.241  10.257  18.815  0.00  0.00    +0.000 A 
ATOM     16  C   UNL     1       1.031   9.729  20.091  0.00  0.00    +0.000 A 
ATOM     17  C   UNL     1       0.326  10.525  21.150  0.00  0.00    +0.000 C 
ATOM     18  C   UNL     1       1.459   8.424  20.368  0.00  0.00    +0.000 A 
ENDBRANCH  10  12
BRANCH   1  19
ATOM     19  C   UNL     1       4.811   6.818  16.904  0.00  0.00    +0.000 C 
BRANCH  19  20
ATOM     20  C   UNL     1       6.310   6.747  16.775  0.00  0.00    +0.000 C 
ATOM     21  O   UNL     1       7.059   7.660  17.108  0.00  0.00    +0.000 OA
BRANCH  20  22
ATOM     22  C   UNL     1       6.860   5.486  16.085  0.00  0.00    +0.000 C 
ATOM     23  O   UNL     1       7.640   4.729  16.638  0.00  0.00    +0.000 OA
BRANCH  22  24
ATOM     24  O   UNL     1       6.338   5.350  14.849  0.00  0.00    +0.000 OA
BRANCH  24  26
ATOM     25  C   UNL     1       6.343   3.844  12.941  0.00  0.00    +0.000 C 
ATOM     26  C   UNL     1       6.044   4.011  14.419  0.00  0.00    +0.000 C 
ENDBRANCH  24  26
ENDBRANCH  22  24
ENDBRANCH  20  22
ENDBRANCH  19  20
ENDBRANCH   1  19
TORSDOF 6
ENDMDL
MODEL 7
REMARK VINA RESULT:      -7.1      3.441      5.582
REMARK  Name = 
REMARK  8 active torsions:
REMARK  status: ('A' for Active; 'I' for Inactive)
REMARK    1  A    between atoms: C_1  and  C_2
REMARK    2  A    between atoms: C_2  and  O_3
REMARK    3  A    between atoms: O_3  and  C_4
REMARK    4  A    between atoms: C_4  and  C_6
REMARK    5  A    between atoms: C_6  and  C_8
REMARK    6  A    between atoms: C_8  and  C_9
REMARK    7  A    between atoms: C_18  and  C_19
REMARK    8  A    between atoms: C_23  and  C_24
REMARK                            x       y       z     vdW  Elec       q    Type
REMARK                         _______ _______ _______ _____ _____    ______ ____
ROOT
ATOM      1  C   UNL     1       4.114   5.755  17.794  0.00  0.00    +0.000 C 
ATOM      2  N   UNL     1       3.807   4.611  17.259  0.00  0.00    +0.000 NA
ATOM      3  C   UNL     1       3.348   3.531  18.044  0.00  0.00    +0.000 A 
ATOM      4  C   UNL     1       3.994   2.304  17.850  0.00  0.00    +0.000 A 
ATOM      5  C   UNL     1       3.583   1.147  18.516  0.00  0.00    +0.000 A 
ATOM      6  C   UNL     1       2.500   1.202  19.390  0.00  0.00    +0.000 A 
ATOM      7  C   UNL     1       1.840   2.412  19.593  0.00  0.00    +0.000 A 
ATOM      8  C   UNL     1       2.257   3.578  18.934  0.00  0.00    +0.000 A 
ATOM      9  S   UNL     1       1.274   5.038  19.206  0.00  0.00    +0.000 S 
ATOM     10  C   UNL     1       2.542   6.271  19.738  0.00  0.00    +0.000 C 
ATOM     11  C   UNL     1       3.989   6.061  19.269  0.00  0.00    +0.000 C 
ENDROOT
BRANCH  10  12
ATOM     12  C   UNL     1       2.013   7.670  19.439  0.00  0.00    +0.000 A 
ATOM     13  C   UNL     1       2.166   8.215  18.156  0.00  0.00    +0.000 A 
ATOM     14  C   UNL     1       1.760   9.523  17.886  0.00  0.00    +0.000 A 
ATOM     15  C   UNL     1       1.172  10.297  18.886  0.00  0.00    +0.000 A 
ATOM     16  C   UNL     1       0.982   9.768  20.165  0.00  0.00    +0.000 A 
ATOM     17  C   UNL     1       0.294  10.564  21.235  0.00  0.00    +0.000 C 
ATOM     18  C   UNL     1       1.412   8.463  20.434  0.00  0.00    +0.000 A 
ENDBRANCH  10  12
BRANCH   1  19
ATOM     19  C   UNL     1       4.661   6.828  16.876  0.00  0.00    +0.000 C 
BRANCH  19  20
ATOM     20  C   UNL     1       5.710   6.313  15.925  0.00  0.00    +0.000 C 
ATOM     21  O   UNL     1       5.485   6.061  14.746  0.00  0.00    +0.000 OA
BRANCH  20  22
ATOM     22  C   UNL     1       7.082   6.007  16.551  0.00  0.00    +0.000 C 
ATOM     23  O   UNL     1       7.436   4.871  16.816  0.00  0.00    +0.000 OA
BRANCH  22  24
ATOM     24  O   UNL     1       7.796   7.138  16.718  0.00  0.00    +0.000 OA
BRANCH  24  26
ATOM     25  C   UNL     1       8.292   9.101  18.063  0.00  0.00    +0.000 C 
ATOM     26  C   UNL     1       7.916   7.631  18.062  0.00  0.00    +0.000 C 
ENDBRANCH  24  26
ENDBRANCH  22  24
ENDBRANCH  20  22
ENDBRANCH  19  20
ENDBRANCH   1  19
TORSDOF 6
ENDMDL
MODEL 8
REMARK VINA RESULT:      -6.9      3.446      5.713
REMARK  Name = 
REMARK  8 active torsions:
REMARK  status: ('A' for Active; 'I' for Inactive)
REMARK    1  A    between atoms: C_1  and  C_2
REMARK    2  A    between atoms: C_2  and  O_3
REMARK    3  A    between atoms: O_3  and  C_4
REMARK    4  A    between atoms: C_4  and  C_6
REMARK    5  A    between atoms: C_6  and  C_8
REMARK    6  A    between atoms: C_8  and  C_9
REMARK    7  A    between atoms: C_18  and  C_19
REMARK    8  A    between atoms: C_23  and  C_24
REMARK                            x       y       z     vdW  Elec       q    Type
REMARK                         _______ _______ _______ _____ _____    ______ ____
ROOT
ATOM      1  C   UNL     1       4.076   5.817  17.705  0.00  0.00    +0.000 C 
ATOM      2  N   UNL     1       3.772   4.652  17.216  0.00  0.00    +0.000 NA
ATOM      3  C   UNL     1       3.377   3.584  18.051  0.00  0.00    +0.000 A 
ATOM      4  C   UNL     1       4.043   2.367  17.859  0.00  0.00    +0.000 A 
ATOM      5  C   UNL     1       3.692   1.221  18.576  0.00  0.00    +0.000 A 
ATOM      6  C   UNL     1       2.651   1.275  19.499  0.00  0.00    +0.000 A 
ATOM      7  C   UNL     1       1.972   2.474  19.700  0.00  0.00    +0.000 A 
ATOM      8  C   UNL     1       2.329   3.631  18.991  0.00  0.00    +0.000 A 
ATOM      9  S   UNL     1       1.324   5.075  19.270  0.00  0.00    +0.000 S 
ATOM     10  C   UNL     1       2.586   6.352  19.707  0.00  0.00    +0.000 C 
ATOM     11  C   UNL     1       4.013   6.161  19.175  0.00  0.00    +0.000 C 
ENDROOT
BRANCH  10  12
ATOM     12  C   UNL     1       2.009   7.729  19.396  0.00  0.00    +0.000 A 
ATOM     13  C   UNL     1       2.163   8.277  18.115  0.00  0.00    +0.000 A 
ATOM     14  C   UNL     1       1.712   9.568  17.835  0.00  0.00    +0.000 A 
ATOM     15  C   UNL     1       1.079  10.321  18.823  0.00  0.00    +0.000 A 
ATOM     16  C   UNL     1       0.888   9.788  20.100  0.00  0.00    +0.000 A 
ATOM     17  C   UNL     1       0.153  10.559  21.157  0.00  0.00    +0.000 C 
ATOM     18  C   UNL     1       1.363   8.500  20.379  0.00  0.00    +0.000 A 
ENDBRANCH  10  12
BRANCH   1  19
ATOM     19  C   UNL     1       4.552   6.876  16.732  0.00  0.00    +0.000 C 
BRANCH  19  20
ATOM     20  C   UNL     1       5.773   6.458  15.956  0.00  0.00    +0.000 C 
ATOM     21  O   UNL     1       5.721   5.933  14.848  0.00  0.00    +0.000 OA
BRANCH  20  22
ATOM     22  C   UNL     1       7.116   6.625  16.688  0.00  0.00    +0.000 C 
ATOM     23  O   UNL     1       7.510   7.708  17.087  0.00  0.00    +0.000 OA
BRANCH  22  24
ATOM     24  O   UNL     1       7.734   5.435  16.833  0.00  0.00    +0.000 OA
BRANCH  24  26
ATOM     25  C   UNL     1       7.801   5.674  19.252  0.00  0.00    +0.000 C 
ATOM     26  C   UNL     1       7.526   4.750  18.079  0.00  0.00    +0.000 C 
ENDBRANCH  24  26
ENDBRANCH  22  24
ENDBRANCH  20  22
ENDBRANCH  19  20
ENDBRANCH   1  19
TORSDOF 6
ENDMDL
MODEL 9
REMARK VINA RESULT:      -6.9      3.517      6.286
REMARK  Name = 
REMARK  8 active torsions:
REMARK  status: ('A' for Active; 'I' for Inactive)
REMARK    1  A    between atoms: C_1  and  C_2
REMARK    2  A    between atoms: C_2  and  O_3
REMARK    3  A    between atoms: O_3  and  C_4
REMARK    4  A    between atoms: C_4  and  C_6
REMARK    5  A    between atoms: C_6  and  C_8
REMARK    6  A    between atoms: C_8  and  C_9
REMARK    7  A    between atoms: C_18  and  C_19
REMARK    8  A    between atoms: C_23  and  C_24
REMARK                            x       y       z     vdW  Elec       q    Type
REMARK                         _______ _______ _______ _____ _____    ______ ____
ROOT
ATOM      1  C   UNL     1       3.834   6.014  18.079  0.00  0.00    +0.000 C 
ATOM      2  N   UNL     1       3.547   4.940  17.407  0.00  0.00    +0.000 NA
ATOM      3  C   UNL     1       3.238   3.726  18.058  0.00  0.00    +0.000 A 
ATOM      4  C   UNL     1       3.937   2.593  17.624  0.00  0.00    +0.000 A 
ATOM      5  C   UNL     1       3.667   1.324  18.143  0.00  0.00    +0.000 A 
ATOM      6  C   UNL     1       2.676   1.169  19.108  0.00  0.00    +0.000 A 
ATOM      7  C   UNL     1       1.964   2.283  19.549  0.00  0.00    +0.000 A 
ATOM      8  C   UNL     1       2.240   3.560  19.038  0.00  0.00    +0.000 A 
ATOM      9  S   UNL     1       1.198   4.886  19.614  0.00  0.00    +0.000 S 
ATOM     10  C   UNL     1       2.433   6.123  20.211  0.00  0.00    +0.000 C 
ATOM     11  C   UNL     1       3.837   6.094  19.589  0.00  0.00    +0.000 C 
ENDROOT
BRANCH  10  12
ATOM     12  C   UNL     1       1.790   7.506  20.175  0.00  0.00    +0.000 A 
ATOM     13  C   UNL     1       1.816   8.257  18.991  0.00  0.00    +0.000 A 
ATOM     14  C   UNL     1       1.304   9.555  18.961  0.00  0.00    +0.000 A 
ATOM     15  C   UNL     1       0.735  10.112  20.105  0.00  0.00    +0.000 A 
ATOM     16  C   UNL     1       0.671   9.375  21.290  0.00  0.00    +0.000 A 
ATOM     17  C   UNL     1       0.006   9.935  22.513  0.00  0.00    +0.000 C 
ATOM     18  C   UNL     1       1.207   8.081  21.318  0.00  0.00    +0.000 A 
ENDBRANCH  10  12
BRANCH   1  19
ATOM     19  C   UNL     1       4.218   7.248  17.288  0.00  0.00    +0.000 C 
BRANCH  19  20
ATOM     20  C   UNL     1       5.283   6.980  16.258  0.00  0.00    +0.000 C 
ATOM     21  O   UNL     1       5.061   6.946  15.051  0.00  0.00    +0.000 OA
BRANCH  20  22
ATOM     22  C   UNL     1       6.674   6.632  16.815  0.00  0.00    +0.000 C 
ATOM     23  O   UNL     1       7.094   7.102  17.859  0.00  0.00    +0.000 OA
BRANCH  22  24
ATOM     24  O   UNL     1       7.302   5.745  16.017  0.00  0.00    +0.000 OA
BRANCH  24  26
ATOM     25  C   UNL     1       6.308   3.784  14.980  0.00  0.00    +0.000 C 
ATOM     26  C   UNL     1       6.977   4.359  16.214  0.00  0.00    +0.000 C 
ENDBRANCH  24  26
ENDBRANCH  22  24
ENDBRANCH  20  22
ENDBRANCH  19  20
ENDBRANCH   1  19
TORSDOF 6
ENDMDL
