MODEL 1
REMARK VINA RESULT:      -9.6      0.000      0.000
REMARK  Name = 
REMARK  5 active torsions:
REMARK  status: ('A' for Active; 'I' for Inactive)
REMARK    1  A    between atoms: C_1  and  C_2
REMARK    2  A    between atoms: C_4  and  S_5
REMARK    3  A    between atoms: S_5  and  N_8
REMARK    4  A    between atoms: C_16  and  C_17
REMARK    5  A    between atoms: C_22  and  C_23
REMARK                            x       y       z     vdW  Elec       q    Type
REMARK                         _______ _______ _______ _____ _____    ______ ____
ROOT
ATOM      1  C   UNL     1       0.853   8.890  20.933  0.00  0.00    +0.000 A 
ATOM      2  C   UNL     1       1.008   9.055  22.316  0.00  0.00    +0.000 A 
ATOM      3  N   UNL     1       0.347   9.921  23.134  0.00  0.00    +0.000 NA
ATOM      4  C   UNL     1      -0.479  10.733  22.458  0.00  0.00    +0.000 A 
ATOM      5  N   UNL     1      -1.229  11.724  23.020  0.00  0.00    +0.000 N 
ATOM      6  C   UNL     1      -1.862  12.473  22.046  0.00  0.00    +0.000 A 
ATOM      7  C   UNL     1      -1.585  11.836  20.842  0.00  0.00    +0.000 A 
ATOM      8  C   UNL     1      -0.717  10.744  21.096  0.00  0.00    +0.000 A 
ATOM      9  C   UNL     1      -0.065   9.770  20.322  0.00  0.00    +0.000 A 
ATOM     10  H   UNL     1      -1.230  11.925  24.009  0.00  0.00    +0.000 HD
ENDROOT
BRANCH   6  11
ATOM     11  C   UNL     1      -2.651  13.685  22.326  0.00  0.00    +0.000 A 
ATOM     12  C   UNL     1      -4.055  13.626  22.255  0.00  0.00    +0.000 A 
ATOM     13  F   UNL     1      -4.678  12.467  21.972  0.00  0.00    +0.000 F 
ATOM     14  C   UNL     1      -4.861  14.742  22.476  0.00  0.00    +0.000 A 
ATOM     15  C   UNL     1      -4.280  15.965  22.781  0.00  0.00    +0.000 A 
ATOM     16  C   UNL     1      -2.893  16.060  22.862  0.00  0.00    +0.000 A 
ATOM     17  C   UNL     1      -2.083  14.938  22.638  0.00  0.00    +0.000 A 
ATOM     18 CL   UNL     1      -0.373  15.210  22.738  0.00  0.00    +0.000 Cl
ENDBRANCH   6  11
BRANCH   1  25
ATOM     19  C   UNL     1       1.999   9.494  18.099  0.00  0.00    +0.000 C 
ATOM     20  C   UNL     1       2.156   8.174  18.814  0.00  0.00    +0.000 A 
ATOM     21  C   UNL     1       2.878   7.165  18.129  0.00  0.00    +0.000 A 
ATOM     22  C   UNL     1       3.134   5.936  18.735  0.00  0.00    +0.000 A 
ATOM     23  C   UNL     1       2.679   5.680  20.020  0.00  0.00    +0.000 A 
ATOM     24  C   UNL     1       1.928   6.653  20.681  0.00  0.00    +0.000 A 
ATOM     25  C   UNL     1       1.643   7.921  20.115  0.00  0.00    +0.000 A 
BRANCH  22  26
ATOM     26  S   UNL     1       4.103   4.705  17.891  0.00  0.00    +0.000 S 
ATOM     27  O   UNL     1       4.844   3.985  18.900  0.00  0.00    +0.000 OA
ATOM     28  O   UNL     1       3.232   4.004  16.966  0.00  0.00    +0.000 OA
BRANCH  26  29
ATOM     29  N   UNL     1       5.211   5.604  16.969  0.00  0.00    +0.000 NA
ATOM     30  C   UNL     1       5.514   5.133  15.581  0.00  0.00    +0.000 C 
ATOM     31  C   UNL     1       6.563   4.016  15.559  0.00  0.00    +0.000 C 
ATOM     32  O   UNL     1       7.763   4.404  16.240  0.00  0.00    +0.000 OA
ATOM     33  C   UNL     1       7.493   4.764  17.603  0.00  0.00    +0.000 C 
ATOM     34  C   UNL     1       6.491   5.923  17.683  0.00  0.00    +0.000 C 
ENDBRANCH  26  29
ENDBRANCH  22  26
ENDBRANCH   1  25
TORSDOF 4
ENDMDL
MODEL 2
REMARK VINA RESULT:      -9.6      1.199      1.355
REMARK  Name = 
REMARK  5 active torsions:
REMARK  status: ('A' for Active; 'I' for Inactive)
REMARK    1  A    between atoms: C_1  and  C_2
REMARK    2  A    between atoms: C_4  and  S_5
REMARK    3  A    between atoms: S_5  and  N_8
REMARK    4  A    between atoms: C_16  and  C_17
REMARK    5  A    between atoms: C_22  and  C_23
REMARK                            x       y       z     vdW  Elec       q    Type
REMARK                         _______ _______ _______ _____ _____    ______ ____
ROOT
ATOM      1  C   UNL     1       0.868   8.885  20.950  0.00  0.00    +0.000 A 
ATOM      2  C   UNL     1       1.096   9.103  22.315  0.00  0.00    +0.000 A 
ATOM      3  N   UNL     1       0.452   9.975  23.141  0.00  0.00    +0.000 NA
ATOM      4  C   UNL     1      -0.440  10.735  22.489  0.00  0.00    +0.000 A 
ATOM      5  N   UNL     1      -1.191  11.719  23.061  0.00  0.00    +0.000 N 
ATOM      6  C   UNL     1      -1.905  12.412  22.102  0.00  0.00    +0.000 A 
ATOM      7  C   UNL     1      -1.675  11.743  20.906  0.00  0.00    +0.000 A 
ATOM      8  C   UNL     1      -0.755  10.690  21.144  0.00  0.00    +0.000 A 
ATOM      9  C   UNL     1      -0.116   9.712  20.365  0.00  0.00    +0.000 A 
ATOM     10  H   UNL     1      -1.142  11.954  24.041  0.00  0.00    +0.000 HD
ENDROOT
BRANCH   6  11
ATOM     11  C   UNL     1      -2.720  13.605  22.388  0.00  0.00    +0.000 A 
ATOM     12  C   UNL     1      -2.483  14.791  21.669  0.00  0.00    +0.000 A 
ATOM     13  F   UNL     1      -1.549  14.830  20.701  0.00  0.00    +0.000 F 
ATOM     14  C   UNL     1      -3.195  15.965  21.911  0.00  0.00    +0.000 A 
ATOM     15  C   UNL     1      -4.178  15.988  22.891  0.00  0.00    +0.000 A 
ATOM     16  C   UNL     1      -4.442  14.832  23.621  0.00  0.00    +0.000 A 
ATOM     17  C   UNL     1      -3.724  13.652  23.378  0.00  0.00    +0.000 A 
ATOM     18 CL   UNL     1      -4.133  12.300  24.384  0.00  0.00    +0.000 Cl
ENDBRANCH   6  11
BRANCH   1  25
ATOM     19  C   UNL     1       2.022   9.509  18.123  0.00  0.00    +0.000 C 
ATOM     20  C   UNL     1       2.160   8.178  18.821  0.00  0.00    +0.000 A 
ATOM     21  C   UNL     1       2.867   7.167  18.123  0.00  0.00    +0.000 A 
ATOM     22  C   UNL     1       3.104   5.927  18.713  0.00  0.00    +0.000 A 
ATOM     23  C   UNL     1       2.645   5.661  19.994  0.00  0.00    +0.000 A 
ATOM     24  C   UNL     1       1.909   6.636  20.668  0.00  0.00    +0.000 A 
ATOM     25  C   UNL     1       1.643   7.915  20.119  0.00  0.00    +0.000 A 
BRANCH  22  26
ATOM     26  S   UNL     1       4.055   4.693  17.852  0.00  0.00    +0.000 S 
ATOM     27  O   UNL     1       4.815   3.974  18.849  0.00  0.00    +0.000 OA
ATOM     28  O   UNL     1       3.165   3.990  16.947  0.00  0.00    +0.000 OA
BRANCH  26  29
ATOM     29  N   UNL     1       5.145   5.588  16.906  0.00  0.00    +0.000 NA
ATOM     30  C   UNL     1       5.448   5.093  15.527  0.00  0.00    +0.000 C 
ATOM     31  C   UNL     1       6.513   3.991  15.524  0.00  0.00    +0.000 C 
ATOM     32  O   UNL     1       7.711   4.411  16.190  0.00  0.00    +0.000 OA
ATOM     33  C   UNL     1       7.442   4.794  17.546  0.00  0.00    +0.000 C 
ATOM     34  C   UNL     1       6.424   5.941  17.608  0.00  0.00    +0.000 C 
ENDBRANCH  26  29
ENDBRANCH  22  26
ENDBRANCH   1  25
TORSDOF 4
ENDMDL
MODEL 3
REMARK VINA RESULT:      -9.1      5.979     11.543
REMARK  Name = 
REMARK  5 active torsions:
REMARK  status: ('A' for Active; 'I' for Inactive)
REMARK    1  A    between atoms: C_1  and  C_2
REMARK    2  A    between atoms: C_4  and  S_5
REMARK    3  A    between atoms: S_5  and  N_8
REMARK    4  A    between atoms: C_16  and  C_17
REMARK    5  A    between atoms: C_22  and  C_23
REMARK                            x       y       z     vdW  Elec       q    Type
REMARK                         _______ _______ _______ _____ _____    ______ ____
ROOT
ATOM      1  C   UNL     1       0.563   9.933  19.783  0.00  0.00    +0.000 A 
ATOM      2  C   UNL     1       1.009  10.539  18.601  0.00  0.00    +0.000 A 
ATOM      3  N   UNL     1       1.830  10.011  17.650  0.00  0.00    +0.000 NA
ATOM      4  C   UNL     1       2.287   8.796  17.986  0.00  0.00    +0.000 A 
ATOM      5  N   UNL     1       3.160   8.059  17.240  0.00  0.00    +0.000 N 
ATOM      6  C   UNL     1       3.547   6.921  17.921  0.00  0.00    +0.000 A 
ATOM      7  C   UNL     1       2.784   6.899  19.083  0.00  0.00    +0.000 A 
ATOM      8  C   UNL     1       1.993   8.075  19.127  0.00  0.00    +0.000 A 
ATOM      9  C   UNL     1       1.075   8.641  20.027  0.00  0.00    +0.000 A 
ATOM     10  H   UNL     1       3.532   8.369  16.355  0.00  0.00    +0.000 HD
ENDROOT
BRANCH   6  11
ATOM     11  C   UNL     1       4.570   5.979  17.432  0.00  0.00    +0.000 A 
ATOM     12  C   UNL     1       5.883   6.435  17.219  0.00  0.00    +0.000 A 
ATOM     13  F   UNL     1       6.218   7.709  17.495  0.00  0.00    +0.000 F 
ATOM     14  C   UNL     1       6.891   5.607  16.728  0.00  0.00    +0.000 A 
ATOM     15  C   UNL     1       6.611   4.280  16.432  0.00  0.00    +0.000 A 
ATOM     16  C   UNL     1       5.323   3.792  16.632  0.00  0.00    +0.000 A 
ATOM     17  C   UNL     1       4.310   4.627  17.125  0.00  0.00    +0.000 A 
ATOM     18 CL   UNL     1       2.745   3.897  17.292  0.00  0.00    +0.000 Cl
ENDBRANCH   6  11
BRANCH   1  25
ATOM     19  C   UNL     1       0.595   9.358  22.846  0.00  0.00    +0.000 C 
ATOM     20  C   UNL     1      -0.337  10.339  22.176  0.00  0.00    +0.000 A 
ATOM     21  C   UNL     1      -1.242  11.030  23.020  0.00  0.00    +0.000 A 
ATOM     22  C   UNL     1      -2.095  12.004  22.505  0.00  0.00    +0.000 A 
ATOM     23  C   UNL     1      -2.074  12.308  21.152  0.00  0.00    +0.000 A 
ATOM     24  C   UNL     1      -1.218  11.599  20.309  0.00  0.00    +0.000 A 
ATOM     25  C   UNL     1      -0.326  10.603  20.779  0.00  0.00    +0.000 A 
BRANCH  22  26
ATOM     26  S   UNL     1      -3.175  12.913  23.588  0.00  0.00    +0.000 S 
ATOM     27  O   UNL     1      -3.922  11.942  24.353  0.00  0.00    +0.000 OA
ATOM     28  O   UNL     1      -2.389  13.938  24.250  0.00  0.00    +0.000 OA
BRANCH  26  29
ATOM     29  N   UNL     1      -4.257  13.697  22.538  0.00  0.00    +0.000 NA
ATOM     30  C   UNL     1      -4.484  15.164  22.732  0.00  0.00    +0.000 C 
ATOM     31  C   UNL     1      -5.507  15.456  23.835  0.00  0.00    +0.000 C 
ATOM     32  O   UNL     1      -6.746  14.774  23.601  0.00  0.00    +0.000 OA
ATOM     33  C   UNL     1      -6.549  13.356  23.513  0.00  0.00    +0.000 C 
ATOM     34  C   UNL     1      -5.577  13.000  22.380  0.00  0.00    +0.000 C 
ENDBRANCH  26  29
ENDBRANCH  22  26
ENDBRANCH   1  25
TORSDOF 4
ENDMDL
MODEL 4
REMARK VINA RESULT:      -9.1      2.243      2.870
REMARK  Name = 
REMARK  5 active torsions:
REMARK  status: ('A' for Active; 'I' for Inactive)
REMARK    1  A    between atoms: C_1  and  C_2
REMARK    2  A    between atoms: C_4  and  S_5
REMARK    3  A    between atoms: S_5  and  N_8
REMARK    4  A    between atoms: C_16  and  C_17
REMARK    5  A    between atoms: C_22  and  C_23
REMARK                            x       y       z     vdW  Elec       q    Type
REMARK                         _______ _______ _______ _____ _____    ______ ____
ROOT
ATOM      1  C   UNL     1       0.532  10.329  19.011  0.00  0.00    +0.000 A 
ATOM      2  C   UNL     1      -0.861  10.274  18.874  0.00  0.00    +0.000 A 
ATOM      3  N   UNL     1      -1.752  11.300  18.973  0.00  0.00    +0.000 NA
ATOM      4  C   UNL     1      -1.165  12.455  19.320  0.00  0.00    +0.000 A 
ATOM      5  N   UNL     1      -1.824  13.631  19.533  0.00  0.00    +0.000 N 
ATOM      6  C   UNL     1      -0.960  14.596  20.014  0.00  0.00    +0.000 A 
ATOM      7  C   UNL     1       0.305  14.022  19.977  0.00  0.00    +0.000 A 
ATOM      8  C   UNL     1       0.181  12.679  19.543  0.00  0.00    +0.000 A 
ATOM      9  C   UNL     1       1.054  11.597  19.342  0.00  0.00    +0.000 A 
ATOM     10  H   UNL     1      -2.823  13.731  19.437  0.00  0.00    +0.000 HD
ENDROOT
BRANCH   6  11
ATOM     11  C   UNL     1      -1.389  15.936  20.451  0.00  0.00    +0.000 A 
ATOM     12  C   UNL     1      -1.942  16.101  21.733  0.00  0.00    +0.000 A 
ATOM     13  F   UNL     1      -2.045  15.055  22.573  0.00  0.00    +0.000 F 
ATOM     14  C   UNL     1      -2.397  17.334  22.198  0.00  0.00    +0.000 A 
ATOM     15  C   UNL     1      -2.311  18.454  21.382  0.00  0.00    +0.000 A 
ATOM     16  C   UNL     1      -1.767  18.330  20.107  0.00  0.00    +0.000 A 
ATOM     17  C   UNL     1      -1.311  17.089  19.641  0.00  0.00    +0.000 A 
ATOM     18 CL   UNL     1      -0.689  17.074  18.021  0.00  0.00    +0.000 Cl
ENDBRANCH   6  11
BRANCH   1  25
ATOM     19  C   UNL     1       0.930   8.209  21.261  0.00  0.00    +0.000 C 
ATOM     20  C   UNL     1       1.635   8.173  19.926  0.00  0.00    +0.000 A 
ATOM     21  C   UNL     1       2.527   7.092  19.710  0.00  0.00    +0.000 A 
ATOM     22  C   UNL     1       3.173   6.936  18.485  0.00  0.00    +0.000 A 
ATOM     23  C   UNL     1       2.955   7.842  17.458  0.00  0.00    +0.000 A 
ATOM     24  C   UNL     1       2.114   8.932  17.680  0.00  0.00    +0.000 A 
ATOM     25  C   UNL     1       1.428   9.138  18.903  0.00  0.00    +0.000 A 
BRANCH  22  26
ATOM     26  S   UNL     1       4.234   5.535  18.204  0.00  0.00    +0.000 S 
ATOM     27  O   UNL     1       4.788   5.160  19.484  0.00  0.00    +0.000 OA
ATOM     28  O   UNL     1       3.504   4.573  17.399  0.00  0.00    +0.000 OA
BRANCH  26  29
ATOM     29  N   UNL     1       5.495   6.150  17.247  0.00  0.00    +0.000 NA
ATOM     30  C   UNL     1       5.685   5.573  15.879  0.00  0.00    +0.000 C 
ATOM     31  C   UNL     1       6.482   4.265  15.903  0.00  0.00    +0.000 C 
ATOM     32  O   UNL     1       7.742   4.425  16.569  0.00  0.00    +0.000 OA
ATOM     33  C   UNL     1       7.562   4.886  17.915  0.00  0.00    +0.000 C 
ATOM     34  C   UNL     1       6.819   6.228  17.949  0.00  0.00    +0.000 C 
ENDBRANCH  26  29
ENDBRANCH  22  26
ENDBRANCH   1  25
TORSDOF 4
ENDMDL
MODEL 5
REMARK VINA RESULT:      -9.1      2.373      3.007
REMARK  Name = 
REMARK  5 active torsions:
REMARK  status: ('A' for Active; 'I' for Inactive)
REMARK    1  A    between atoms: C_1  and  C_2
REMARK    2  A    between atoms: C_4  and  S_5
REMARK    3  A    between atoms: S_5  and  N_8
REMARK    4  A    between atoms: C_16  and  C_17
REMARK    5  A    between atoms: C_22  and  C_23
REMARK                            x       y       z     vdW  Elec       q    Type
REMARK                         _______ _______ _______ _____ _____    ______ ____
ROOT
ATOM      1  C   UNL     1       0.536  10.315  19.006  0.00  0.00    +0.000 A 
ATOM      2  C   UNL     1      -0.862  10.245  18.951  0.00  0.00    +0.000 A 
ATOM      3  N   UNL     1      -1.755  11.269  19.059  0.00  0.00    +0.000 NA
ATOM      4  C   UNL     1      -1.160  12.441  19.325  0.00  0.00    +0.000 A 
ATOM      5  N   UNL     1      -1.816  13.620  19.528  0.00  0.00    +0.000 N 
ATOM      6  C   UNL     1      -0.935  14.610  19.920  0.00  0.00    +0.000 A 
ATOM      7  C   UNL     1       0.331  14.043  19.834  0.00  0.00    +0.000 A 
ATOM      8  C   UNL     1       0.194  12.682  19.462  0.00  0.00    +0.000 A 
ATOM      9  C   UNL     1       1.065  11.599  19.255  0.00  0.00    +0.000 A 
ATOM     10  H   UNL     1      -2.820  13.710  19.485  0.00  0.00    +0.000 HD
ENDROOT
BRANCH   6  11
ATOM     11  C   UNL     1      -1.350  15.964  20.326  0.00  0.00    +0.000 A 
ATOM     12  C   UNL     1      -1.302  17.011  19.388  0.00  0.00    +0.000 A 
ATOM     13  F   UNL     1      -0.917  16.777  18.120  0.00  0.00    +0.000 F 
ATOM     14  C   UNL     1      -1.650  18.321  19.713  0.00  0.00    +0.000 A 
ATOM     15  C   UNL     1      -2.063  18.627  21.003  0.00  0.00    +0.000 A 
ATOM     16  C   UNL     1      -2.126  17.615  21.958  0.00  0.00    +0.000 A 
ATOM     17  C   UNL     1      -1.774  16.298  21.630  0.00  0.00    +0.000 A 
ATOM     18 CL   UNL     1      -1.867  15.148  22.925  0.00  0.00    +0.000 Cl
ENDBRANCH   6  11
BRANCH   1  25
ATOM     19  C   UNL     1       0.960   8.205  21.260  0.00  0.00    +0.000 C 
ATOM     20  C   UNL     1       1.654   8.166  19.920  0.00  0.00    +0.000 A 
ATOM     21  C   UNL     1       2.547   7.088  19.700  0.00  0.00    +0.000 A 
ATOM     22  C   UNL     1       3.183   6.928  18.470  0.00  0.00    +0.000 A 
ATOM     23  C   UNL     1       2.953   7.830  17.442  0.00  0.00    +0.000 A 
ATOM     24  C   UNL     1       2.111   8.918  17.667  0.00  0.00    +0.000 A 
ATOM     25  C   UNL     1       1.435   9.127  18.895  0.00  0.00    +0.000 A 
BRANCH  22  26
ATOM     26  S   UNL     1       4.246   5.530  18.186  0.00  0.00    +0.000 S 
ATOM     27  O   UNL     1       4.775   5.133  19.470  0.00  0.00    +0.000 OA
ATOM     28  O   UNL     1       3.530   4.584  17.351  0.00  0.00    +0.000 OA
BRANCH  26  29
ATOM     29  N   UNL     1       5.527   6.159  17.264  0.00  0.00    +0.000 NA
ATOM     30  C   UNL     1       5.710   5.641  15.872  0.00  0.00    +0.000 C 
ATOM     31  C   UNL     1       6.476   4.314  15.838  0.00  0.00    +0.000 C 
ATOM     32  O   UNL     1       7.735   4.413  16.516  0.00  0.00    +0.000 OA
ATOM     33  C   UNL     1       7.559   4.815  17.882  0.00  0.00    +0.000 C 
ATOM     34  C   UNL     1       6.849   6.173  17.974  0.00  0.00    +0.000 C 
ENDBRANCH  26  29
ENDBRANCH  22  26
ENDBRANCH   1  25
TORSDOF 4
ENDMDL
MODEL 6
REMARK VINA RESULT:      -9.0      1.038      1.052
REMARK  Name = 
REMARK  5 active torsions:
REMARK  status: ('A' for Active; 'I' for Inactive)
REMARK    1  A    between atoms: C_1  and  C_2
REMARK    2  A    between atoms: C_4  and  S_5
REMARK    3  A    between atoms: S_5  and  N_8
REMARK    4  A    between atoms: C_16  and  C_17
REMARK    5  A    between atoms: C_22  and  C_23
REMARK                            x       y       z     vdW  Elec       q    Type
REMARK                         _______ _______ _______ _____ _____    ______ ____
ROOT
ATOM      1  C   UNL     1       0.640   9.398  20.426  0.00  0.00    +0.000 A 
ATOM      2  C   UNL     1       0.802   9.842  21.745  0.00  0.00    +0.000 A 
ATOM      3  N   UNL     1       0.064  10.776  22.409  0.00  0.00    +0.000 NA
ATOM      4  C   UNL     1      -0.858  11.352  21.624  0.00  0.00    +0.000 A 
ATOM      5  N   UNL     1      -1.702  12.349  22.016  0.00  0.00    +0.000 N 
ATOM      6  C   UNL     1      -2.431  12.825  20.943  0.00  0.00    +0.000 A 
ATOM      7  C   UNL     1      -2.108  12.000  19.873  0.00  0.00    +0.000 A 
ATOM      8  C   UNL     1      -1.121  11.075  20.295  0.00  0.00    +0.000 A 
ATOM      9  C   UNL     1      -0.381  10.043  19.695  0.00  0.00    +0.000 A 
ATOM     10  H   UNL     1      -1.708  12.736  22.948  0.00  0.00    +0.000 HD
ENDROOT
BRANCH   6  11
ATOM     11  C   UNL     1      -3.344  13.979  21.019  0.00  0.00    +0.000 A 
ATOM     12  C   UNL     1      -4.732  13.759  21.080  0.00  0.00    +0.000 A 
ATOM     13  F   UNL     1      -5.225  12.507  21.109  0.00  0.00    +0.000 F 
ATOM     14  C   UNL     1      -5.653  14.805  21.121  0.00  0.00    +0.000 A 
ATOM     15  C   UNL     1      -5.207  16.119  21.103  0.00  0.00    +0.000 A 
ATOM     16  C   UNL     1      -3.839  16.376  21.045  0.00  0.00    +0.000 A 
ATOM     17  C   UNL     1      -2.915  15.323  21.002  0.00  0.00    +0.000 A 
ATOM     18 CL   UNL     1      -1.247  15.788  20.897  0.00  0.00    +0.000 Cl
ENDBRANCH   6  11
BRANCH   1  25
ATOM     19  C   UNL     1       2.075   9.787  17.687  0.00  0.00    +0.000 C 
ATOM     20  C   UNL     1       2.163   8.531  18.519  0.00  0.00    +0.000 A 
ATOM     21  C   UNL     1       2.958   7.480  17.998  0.00  0.00    +0.000 A 
ATOM     22  C   UNL     1       3.154   6.308  18.726  0.00  0.00    +0.000 A 
ATOM     23  C   UNL     1       2.568   6.151  19.972  0.00  0.00    +0.000 A 
ATOM     24  C   UNL     1       1.747   7.163  20.470  0.00  0.00    +0.000 A 
ATOM     25  C   UNL     1       1.516   8.377  19.776  0.00  0.00    +0.000 A 
BRANCH  22  26
ATOM     26  S   UNL     1       4.213   5.026  18.090  0.00  0.00    +0.000 S 
ATOM     27  O   UNL     1       4.848   4.401  19.227  0.00  0.00    +0.000 OA
ATOM     28  O   UNL     1       3.448   4.241  17.140  0.00  0.00    +0.000 OA
BRANCH  26  29
ATOM     29  N   UNL     1       5.407   5.863  17.218  0.00  0.00    +0.000 NA
ATOM     30  C   UNL     1       5.635   5.475  15.791  0.00  0.00    +0.000 C 
ATOM     31  C   UNL     1       6.545   4.250  15.657  0.00  0.00    +0.000 C 
ATOM     32  O   UNL     1       7.791   4.440  16.339  0.00  0.00    +0.000 OA
ATOM     33  C   UNL     1       7.583   4.715  17.732  0.00  0.00    +0.000 C 
ATOM     34  C   UNL     1       6.725   5.973  17.927  0.00  0.00    +0.000 C 
ENDBRANCH  26  29
ENDBRANCH  22  26
ENDBRANCH   1  25
TORSDOF 4
ENDMDL
MODEL 7
REMARK VINA RESULT:      -9.0      6.024     11.478
REMARK  Name = 
REMARK  5 active torsions:
REMARK  status: ('A' for Active; 'I' for Inactive)
REMARK    1  A    between atoms: C_1  and  C_2
REMARK    2  A    between atoms: C_4  and  S_5
REMARK    3  A    between atoms: S_5  and  N_8
REMARK    4  A    between atoms: C_16  and  C_17
REMARK    5  A    between atoms: C_22  and  C_23
REMARK                            x       y       z     vdW  Elec       q    Type
REMARK                         _______ _______ _______ _____ _____    ______ ____
ROOT
ATOM      1  C   UNL     1       0.304   9.739  20.245  0.00  0.00    +0.000 A 
ATOM      2  C   UNL     1       0.518   8.728  21.190  0.00  0.00    +0.000 A 
ATOM      3  N   UNL     1       1.390   7.683  21.114  0.00  0.00    +0.000 NA
ATOM      4  C   UNL     1       2.030   7.636  19.937  0.00  0.00    +0.000 A 
ATOM      5  N   UNL     1       2.924   6.671  19.574  0.00  0.00    +0.000 N 
ATOM      6  C   UNL     1       3.299   6.822  18.253  0.00  0.00    +0.000 A 
ATOM      7  C   UNL     1       2.703   8.002  17.824  0.00  0.00    +0.000 A 
ATOM      8  C   UNL     1       1.906   8.515  18.878  0.00  0.00    +0.000 A 
ATOM      9  C   UNL     1       1.052   9.617  19.054  0.00  0.00    +0.000 A 
ATOM     10  H   UNL     1       3.188   5.906  20.176  0.00  0.00    +0.000 HD
ENDROOT
BRANCH   6  11
ATOM     11  C   UNL     1       4.162   5.871  17.531  0.00  0.00    +0.000 A 
ATOM     12  C   UNL     1       5.450   6.272  17.134  0.00  0.00    +0.000 A 
ATOM     13  F   UNL     1       5.910   7.499  17.441  0.00  0.00    +0.000 F 
ATOM     14  C   UNL     1       6.307   5.435  16.421  0.00  0.00    +0.000 A 
ATOM     15  C   UNL     1       5.896   4.153  16.081  0.00  0.00    +0.000 A 
ATOM     16  C   UNL     1       4.628   3.720  16.460  0.00  0.00    +0.000 A 
ATOM     17  C   UNL     1       3.767   4.564  17.176  0.00  0.00    +0.000 A 
ATOM     18 CL   UNL     1       2.206   3.906  17.551  0.00  0.00    +0.000 Cl
ENDBRANCH   6  11
BRANCH   1  25
ATOM     19  C   UNL     1      -1.794  10.560  18.091  0.00  0.00    +0.000 C 
ATOM     20  C   UNL     1      -1.644  11.237  19.432  0.00  0.00    +0.000 A 
ATOM     21  C   UNL     1      -2.530  12.310  19.701  0.00  0.00    +0.000 A 
ATOM     22  C   UNL     1      -2.515  12.953  20.937  0.00  0.00    +0.000 A 
ATOM     23  C   UNL     1      -1.625  12.555  21.923  0.00  0.00    +0.000 A 
ATOM     24  C   UNL     1      -0.719  11.530  21.647  0.00  0.00    +0.000 A 
ATOM     25  C   UNL     1      -0.694  10.838  20.411  0.00  0.00    +0.000 A 
BRANCH  22  26
ATOM     26  S   UNL     1      -3.682  14.251  21.287  0.00  0.00    +0.000 S 
ATOM     27  O   UNL     1      -2.966  15.502  21.186  0.00  0.00    +0.000 OA
ATOM     28  O   UNL     1      -4.873  14.010  20.495  0.00  0.00    +0.000 OA
BRANCH  26  29
ATOM     29  N   UNL     1      -4.095  14.015  22.918  0.00  0.00    +0.000 NA
ATOM     30  C   UNL     1      -5.247  13.111  23.226  0.00  0.00    +0.000 C 
ATOM     31  C   UNL     1      -6.598  13.822  23.095  0.00  0.00    +0.000 C 
ATOM     32  O   UNL     1      -6.651  15.008  23.899  0.00  0.00    +0.000 OA
ATOM     33  C   UNL     1      -5.606  15.924  23.541  0.00  0.00    +0.000 C 
ATOM     34  C   UNL     1      -4.222  15.282  23.711  0.00  0.00    +0.000 C 
ENDBRANCH  26  29
ENDBRANCH  22  26
ENDBRANCH   1  25
TORSDOF 4
ENDMDL
MODEL 8
REMARK VINA RESULT:      -9.0      6.014     11.400
REMARK  Name = 
REMARK  5 active torsions:
REMARK  status: ('A' for Active; 'I' for Inactive)
REMARK    1  A    between atoms: C_1  and  C_2
REMARK    2  A    between atoms: C_4  and  S_5
REMARK    3  A    between atoms: S_5  and  N_8
REMARK    4  A    between atoms: C_16  and  C_17
REMARK    5  A    between atoms: C_22  and  C_23
REMARK                            x       y       z     vdW  Elec       q    Type
REMARK                         _______ _______ _______ _____ _____    ______ ____
ROOT
ATOM      1  C   UNL     1       0.597   9.222  20.384  0.00  0.00    +0.000 A 
ATOM      2  C   UNL     1       0.774   8.085  21.183  0.00  0.00    +0.000 A 
ATOM      3  N   UNL     1       1.634   7.047  20.981  0.00  0.00    +0.000 NA
ATOM      4  C   UNL     1       2.303   7.155  19.824  0.00  0.00    +0.000 A 
ATOM      5  N   UNL     1       3.193   6.236  19.350  0.00  0.00    +0.000 N 
ATOM      6  C   UNL     1       3.603   6.565  18.072  0.00  0.00    +0.000 A 
ATOM      7  C   UNL     1       3.034   7.803  17.800  0.00  0.00    +0.000 A 
ATOM      8  C   UNL     1       2.216   8.177  18.897  0.00  0.00    +0.000 A 
ATOM      9  C   UNL     1       1.373   9.257  19.207  0.00  0.00    +0.000 A 
ATOM     10  H   UNL     1       3.431   5.390  19.844  0.00  0.00    +0.000 HD
ENDROOT
BRANCH   6  11
ATOM     11  C   UNL     1       4.472   5.710  17.244  0.00  0.00    +0.000 A 
ATOM     12  C   UNL     1       5.712   6.207  16.805  0.00  0.00    +0.000 A 
ATOM     13  F   UNL     1       6.124   7.436  17.167  0.00  0.00    +0.000 F 
ATOM     14  C   UNL     1       6.569   5.465  15.994  0.00  0.00    +0.000 A 
ATOM     15  C   UNL     1       6.206   4.186  15.593  0.00  0.00    +0.000 A 
ATOM     16  C   UNL     1       4.986   3.660  16.010  0.00  0.00    +0.000 A 
ATOM     17  C   UNL     1       4.125   4.409  16.825  0.00  0.00    +0.000 A 
ATOM     18 CL   UNL     1       2.624   3.643  17.239  0.00  0.00    +0.000 Cl
ENDBRANCH   6  11
BRANCH   1  25
ATOM     19  C   UNL     1      -1.267  10.541  18.263  0.00  0.00    +0.000 C 
ATOM     20  C   UNL     1      -1.234  10.929  19.722  0.00  0.00    +0.000 A 
ATOM     21  C   UNL     1      -2.121  11.959  20.123  0.00  0.00    +0.000 A 
ATOM     22  C   UNL     1      -2.212  12.339  21.461  0.00  0.00    +0.000 A 
ATOM     23  C   UNL     1      -1.428  11.716  22.421  0.00  0.00    +0.000 A 
ATOM     24  C   UNL     1      -0.521  10.733  22.025  0.00  0.00    +0.000 A 
ATOM     25  C   UNL     1      -0.390  10.304  20.680  0.00  0.00    +0.000 A 
BRANCH  22  26
ATOM     26  S   UNL     1      -3.381  13.585  21.961  0.00  0.00    +0.000 S 
ATOM     27  O   UNL     1      -2.874  14.175  23.178  0.00  0.00    +0.000 OA
ATOM     28  O   UNL     1      -3.683  14.407  20.805  0.00  0.00    +0.000 OA
BRANCH  26  29
ATOM     29  N   UNL     1      -4.785  12.710  22.348  0.00  0.00    +0.000 NA
ATOM     30  C   UNL     1      -5.834  12.564  21.291  0.00  0.00    +0.000 C 
ATOM     31  C   UNL     1      -6.748  13.790  21.203  0.00  0.00    +0.000 C 
ATOM     32  O   UNL     1      -7.341  14.100  22.472  0.00  0.00    +0.000 OA
ATOM     33  C   UNL     1      -6.337  14.338  23.469  0.00  0.00    +0.000 C 
ATOM     34  C   UNL     1      -5.426  13.115  23.642  0.00  0.00    +0.000 C 
ENDBRANCH  26  29
ENDBRANCH  22  26
ENDBRANCH   1  25
TORSDOF 4
ENDMDL
MODEL 9
REMARK VINA RESULT:      -8.9      1.906      2.489
REMARK  Name = 
REMARK  5 active torsions:
REMARK  status: ('A' for Active; 'I' for Inactive)
REMARK    1  A    between atoms: C_1  and  C_2
REMARK    2  A    between atoms: C_4  and  S_5
REMARK    3  A    between atoms: S_5  and  N_8
REMARK    4  A    between atoms: C_16  and  C_17
REMARK    5  A    between atoms: C_22  and  C_23
REMARK                            x       y       z     vdW  Elec       q    Type
REMARK                         _______ _______ _______ _____ _____    ______ ____
ROOT
ATOM      1  C   UNL     1       0.479  10.090  19.189  0.00  0.00    +0.000 A 
ATOM      2  C   UNL     1      -0.596  10.350  18.329  0.00  0.00    +0.000 A 
ATOM      3  N   UNL     1      -1.500  11.367  18.404  0.00  0.00    +0.000 NA
ATOM      4  C   UNL     1      -1.326  12.126  19.496  0.00  0.00    +0.000 A 
ATOM      5  N   UNL     1      -2.115  13.183  19.843  0.00  0.00    +0.000 N 
ATOM      6  C   UNL     1      -1.766  13.667  21.090  0.00  0.00    +0.000 A 
ATOM      7  C   UNL     1      -0.635  12.954  21.468  0.00  0.00    +0.000 A 
ATOM      8  C   UNL     1      -0.356  11.985  20.470  0.00  0.00    +0.000 A 
ATOM      9  C   UNL     1       0.594  10.967  20.289  0.00  0.00    +0.000 A 
ATOM     10  H   UNL     1      -2.903  13.491  19.293  0.00  0.00    +0.000 HD
ENDROOT
BRANCH   6  11
ATOM     11  C   UNL     1      -2.505  14.729  21.794  0.00  0.00    +0.000 A 
ATOM     12  C   UNL     1      -2.361  16.064  21.376  0.00  0.00    +0.000 A 
ATOM     13  F   UNL     1      -1.587  16.370  20.318  0.00  0.00    +0.000 F 
ATOM     14  C   UNL     1      -3.005  17.122  22.016  0.00  0.00    +0.000 A 
ATOM     15  C   UNL     1      -3.824  16.872  23.109  0.00  0.00    +0.000 A 
ATOM     16  C   UNL     1      -3.993  15.562  23.550  0.00  0.00    +0.000 A 
ATOM     17  C   UNL     1      -3.343  14.500  22.906  0.00  0.00    +0.000 A 
ATOM     18 CL   UNL     1      -3.616  12.926  23.583  0.00  0.00    +0.000 Cl
ENDBRANCH   6  11
BRANCH   1  25
ATOM     19  C   UNL     1       0.954   7.906  21.361  0.00  0.00    +0.000 C 
ATOM     20  C   UNL     1       1.651   7.938  20.023  0.00  0.00    +0.000 A 
ATOM     21  C   UNL     1       2.573   6.893  19.764  0.00  0.00    +0.000 A 
ATOM     22  C   UNL     1       3.215   6.798  18.531  0.00  0.00    +0.000 A 
ATOM     23  C   UNL     1       2.964   7.732  17.537  0.00  0.00    +0.000 A 
ATOM     24  C   UNL     1       2.092   8.788  17.802  0.00  0.00    +0.000 A 
ATOM     25  C   UNL     1       1.409   8.931  19.035  0.00  0.00    +0.000 A 
BRANCH  22  26
ATOM     26  S   UNL     1       4.315   5.440  18.195  0.00  0.00    +0.000 S 
ATOM     27  O   UNL     1       4.855   5.010  19.464  0.00  0.00    +0.000 OA
ATOM     28  O   UNL     1       3.624   4.506  17.326  0.00  0.00    +0.000 OA
BRANCH  26  29
ATOM     29  N   UNL     1       5.578   6.136  17.297  0.00  0.00    +0.000 NA
ATOM     30  C   UNL     1       5.749   5.702  15.875  0.00  0.00    +0.000 C 
ATOM     31  C   UNL     1       6.529   4.388  15.755  0.00  0.00    +0.000 C 
ATOM     32  O   UNL     1       7.796   4.463  16.422  0.00  0.00    +0.000 OA
ATOM     33  C   UNL     1       7.632   4.782  17.811  0.00  0.00    +0.000 C 
ATOM     34  C   UNL     1       6.908   6.123  17.991  0.00  0.00    +0.000 C 
ENDBRANCH  26  29
ENDBRANCH  22  26
ENDBRANCH   1  25
TORSDOF 4
ENDMDL
