MODEL 1
REMARK VINA RESULT:      -7.8      0.000      0.000
REMARK  Name = 
REMARK  15 active torsions:
REMARK  status: ('A' for Active; 'I' for Inactive)
REMARK    1  A    between atoms: C_1  and  C_2
REMARK    2  A    between atoms: C_2  and  C_3
REMARK    3  A    between atoms: C_4  and  C_5
REMARK    4  A    between atoms: C_5  and  C_6
REMARK    5  A    between atoms: C_6  and  C_7
REMARK    6  A    between atoms: C_7  and  C_8
REMARK    7  A    between atoms: C_9  and  C_10
REMARK    8  A    between atoms: C_10  and  C_11
REMARK    9  A    between atoms: C_11  and  C_12
REMARK   10  A    between atoms: C_12  and  C_13
REMARK   11  A    between atoms: C_14  and  C_15
REMARK   12  A    between atoms: C_15  and  C_16
REMARK   13  A    between atoms: C_16  and  C_17
REMARK   14  A    between atoms: C_21  and  C_22
REMARK   15  A    between atoms: C_23  and  O_24
REMARK                            x       y       z     vdW  Elec       q    Type
REMARK                         _______ _______ _______ _____ _____    ______ ____
ROOT
ATOM      1  C   UNL     1       1.999   5.239  19.324  0.00  0.00    +0.000 C 
ATOM      2  C   UNL     1       1.333   3.886  19.326  0.00  0.00    +0.000 C 
ATOM      3  C   UNL     1       2.954   5.562  18.430  0.00  0.00    +0.000 C 
ENDROOT
BRANCH   1   4
ATOM      4  C   UNL     1       1.558   6.226  20.389  0.00  0.00    +0.000 C 
BRANCH   4   5
ATOM      5  C   UNL     1       2.194   7.603  20.183  0.00  0.00    +0.000 C 
BRANCH   5   8
ATOM      6  C   UNL     1       1.028   9.424  18.919  0.00  0.00    +0.000 C 
ATOM      7  C   UNL     1       1.852   9.072  17.703  0.00  0.00    +0.000 C 
ATOM      8  C   UNL     1       1.207   8.735  20.067  0.00  0.00    +0.000 C 
BRANCH   6   9
ATOM      9  C   UNL     1       0.014  10.556  18.865  0.00  0.00    +0.000 C 
BRANCH   9  10
ATOM     10  C   UNL     1      -1.429  10.133  18.580  0.00  0.00    +0.000 C 
BRANCH  10  14
ATOM     11  C   UNL     1      -2.905  10.197  14.978  0.00  0.00    +0.000 C 
ATOM     12  C   UNL     1      -2.771  10.412  16.455  0.00  0.00    +0.000 C 
ATOM     13  C   UNL     1      -3.857  11.200  17.141  0.00  0.00    +0.000 C 
ATOM     14  C   UNL     1      -1.718   9.909  17.122  0.00  0.00    +0.000 C 
ENDBRANCH  10  14
ENDBRANCH   9  10
ENDBRANCH   6   9
ENDBRANCH   5   8
ENDBRANCH   4   5
ENDBRANCH   1   4
BRANCH   3  15
ATOM     15  C   UNL     1       3.533   4.632  17.387  0.00  0.00    +0.000 C 
BRANCH  15  16
ATOM     16  C   UNL     1       4.998   4.871  16.951  0.00  0.00    +0.000 C 
ATOM     17  C   UNL     1       5.343   3.904  15.807  0.00  0.00    +0.000 C 
ATOM     18  S   UNL     1       5.264   6.575  16.313  0.00  0.00    +0.000 S 
ATOM     19  C   UNL     1       6.700   6.818  17.279  0.00  0.00    +0.000 C 
ATOM     20  O   UNL     1       7.455   7.766  17.141  0.00  0.00    +0.000 OA
ATOM     21  C   UNL     1       6.881   5.737  18.268  0.00  0.00    +0.000 C 
ATOM     22  C   UNL     1       7.964   5.822  19.282  0.00  0.00    +0.000 C 
ATOM     23  C   UNL     1       5.998   4.746  18.078  0.00  0.00    +0.000 C 
BRANCH  23  24
ATOM     24  O   UNL     1       5.928   3.609  18.854  0.00  0.00    +0.000 OA
ATOM     25  H   UNL     1       5.421   3.794  19.663  0.00  0.00    +0.000 HD
ENDBRANCH  23  24
ENDBRANCH  15  16
ENDBRANCH   3  15
TORSDOF 9
ENDMDL
MODEL 2
REMARK VINA RESULT:      -6.9      4.691      8.415
REMARK  Name = 
REMARK  15 active torsions:
REMARK  status: ('A' for Active; 'I' for Inactive)
REMARK    1  A    between atoms: C_1  and  C_2
REMARK    2  A    between atoms: C_2  and  C_3
REMARK    3  A    between atoms: C_4  and  C_5
REMARK    4  A    between atoms: C_5  and  C_6
REMARK    5  A    between atoms: C_6  and  C_7
REMARK    6  A    between atoms: C_7  and  C_8
REMARK    7  A    between atoms: C_9  and  C_10
REMARK    8  A    between atoms: C_10  and  C_11
REMARK    9  A    between atoms: C_11  and  C_12
REMARK   10  A    between atoms: C_12  and  C_13
REMARK   11  A    between atoms: C_14  and  C_15
REMARK   12  A    between atoms: C_15  and  C_16
REMARK   13  A    between atoms: C_16  and  C_17
REMARK   14  A    between atoms: C_21  and  C_22
REMARK   15  A    between atoms: C_23  and  O_24
REMARK                            x       y       z     vdW  Elec       q    Type
REMARK                         _______ _______ _______ _____ _____    ______ ____
ROOT
ATOM      1  C   UNL     1       7.020   5.993  17.503  0.00  0.00    +0.000 C 
ATOM      2  C   UNL     1       7.177   4.706  16.734  0.00  0.00    +0.000 C 
ATOM      3  C   UNL     1       6.227   6.082  18.589  0.00  0.00    +0.000 C 
ENDROOT
BRANCH   1   4
ATOM      4  C   UNL     1       7.785   7.200  16.992  0.00  0.00    +0.000 C 
BRANCH   4   5
ATOM      5  C   UNL     1       8.086   8.196  18.113  0.00  0.00    +0.000 C 
BRANCH   5   8
ATOM      6  C   UNL     1       8.849  10.568  18.371  0.00  0.00    +0.000 C 
ATOM      7  C   UNL     1       9.519  10.185  19.670  0.00  0.00    +0.000 C 
ATOM      8  C   UNL     1       8.178   9.631  17.665  0.00  0.00    +0.000 C 
BRANCH   6   9
ATOM      9  C   UNL     1       8.907  12.001  17.864  0.00  0.00    +0.000 C 
BRANCH   9  10
ATOM     10  C   UNL     1      10.308  12.534  17.559  0.00  0.00    +0.000 C 
BRANCH  10  14
ATOM     11  C   UNL     1      11.072  15.963  19.238  0.00  0.00    +0.000 C 
ATOM     12  C   UNL     1      10.840  14.492  19.068  0.00  0.00    +0.000 C 
ATOM     13  C   UNL     1      11.022  13.619  20.284  0.00  0.00    +0.000 C 
ATOM     14  C   UNL     1      10.482  13.994  17.873  0.00  0.00    +0.000 C 
ENDBRANCH  10  14
ENDBRANCH   9  10
ENDBRANCH   6   9
ENDBRANCH   5   8
ENDBRANCH   4   5
ENDBRANCH   1   4
BRANCH   3  15
ATOM     15  C   UNL     1       5.352   4.974  19.132  0.00  0.00    +0.000 C 
BRANCH  15  16
ATOM     16  C   UNL     1       3.905   4.875  18.591  0.00  0.00    +0.000 C 
ATOM     17  C   UNL     1       3.627   6.086  17.686  0.00  0.00    +0.000 C 
ATOM     18  S   UNL     1       3.647   3.369  17.569  0.00  0.00    +0.000 S 
ATOM     19  C   UNL     1       2.164   2.946  18.392  0.00  0.00    +0.000 C 
ATOM     20  O   UNL     1       1.403   2.073  18.009  0.00  0.00    +0.000 OA
ATOM     21  C   UNL     1       1.952   3.777  19.594  0.00  0.00    +0.000 C 
ATOM     22  C   UNL     1       0.822   3.489  20.516  0.00  0.00    +0.000 C 
ATOM     23  C   UNL     1       2.856   4.764  19.674  0.00  0.00    +0.000 C 
BRANCH  23  24
ATOM     24  O   UNL     1       2.906   5.692  20.692  0.00  0.00    +0.000 OA
ATOM     25  H   UNL     1       2.082   5.658  21.207  0.00  0.00    +0.000 HD
ENDBRANCH  23  24
ENDBRANCH  15  16
ENDBRANCH   3  15
TORSDOF 9
ENDMDL
MODEL 3
REMARK VINA RESULT:      -6.9      2.459      3.302
REMARK  Name = 
REMARK  15 active torsions:
REMARK  status: ('A' for Active; 'I' for Inactive)
REMARK    1  A    between atoms: C_1  and  C_2
REMARK    2  A    between atoms: C_2  and  C_3
REMARK    3  A    between atoms: C_4  and  C_5
REMARK    4  A    between atoms: C_5  and  C_6
REMARK    5  A    between atoms: C_6  and  C_7
REMARK    6  A    between atoms: C_7  and  C_8
REMARK    7  A    between atoms: C_9  and  C_10
REMARK    8  A    between atoms: C_10  and  C_11
REMARK    9  A    between atoms: C_11  and  C_12
REMARK   10  A    between atoms: C_12  and  C_13
REMARK   11  A    between atoms: C_14  and  C_15
REMARK   12  A    between atoms: C_15  and  C_16
REMARK   13  A    between atoms: C_16  and  C_17
REMARK   14  A    between atoms: C_21  and  C_22
REMARK   15  A    between atoms: C_23  and  O_24
REMARK                            x       y       z     vdW  Elec       q    Type
REMARK                         _______ _______ _______ _____ _____    ______ ____
ROOT
ATOM      1  C   UNL     1       2.301   6.116  19.803  0.00  0.00    +0.000 C 
ATOM      2  C   UNL     1       2.168   4.807  20.540  0.00  0.00    +0.000 C 
ATOM      3  C   UNL     1       2.763   6.178  18.539  0.00  0.00    +0.000 C 
ENDROOT
BRANCH   1   4
ATOM      4  C   UNL     1       1.904   7.373  20.554  0.00  0.00    +0.000 C 
BRANCH   4   5
ATOM      5  C   UNL     1       1.479   8.492  19.602  0.00  0.00    +0.000 C 
BRANCH   5   8
ATOM      6  C   UNL     1      -0.079  10.450  19.727  0.00  0.00    +0.000 C 
ATOM      7  C   UNL     1      -0.616  10.077  18.365  0.00  0.00    +0.000 C 
ATOM      8  C   UNL     1       0.904   9.706  20.282  0.00  0.00    +0.000 C 
BRANCH   6   9
ATOM      9  C   UNL     1      -0.619  11.664  20.466  0.00  0.00    +0.000 C 
BRANCH   9  10
ATOM     10  C   UNL     1      -0.433  11.646  21.985  0.00  0.00    +0.000 C 
BRANCH  10  14
ATOM     11  C   UNL     1      -3.691  12.473  23.949  0.00  0.00    +0.000 C 
ATOM     12  C   UNL     1      -2.359  12.644  23.284  0.00  0.00    +0.000 C 
ATOM     13  C   UNL     1      -1.778  14.035  23.245  0.00  0.00    +0.000 C 
ATOM     14  C   UNL     1      -1.724  11.585  22.752  0.00  0.00    +0.000 C 
ENDBRANCH  10  14
ENDBRANCH   9  10
ENDBRANCH   6   9
ENDBRANCH   5   8
ENDBRANCH   4   5
ENDBRANCH   1   4
BRANCH   3  15
ATOM     15  C   UNL     1       3.270   5.006  17.729  0.00  0.00    +0.000 C 
BRANCH  15  16
ATOM     16  C   UNL     1       4.710   5.093  17.169  0.00  0.00    +0.000 C 
ATOM     17  C   UNL     1       4.860   4.086  16.018  0.00  0.00    +0.000 C 
ATOM     18  S   UNL     1       5.088   6.756  16.482  0.00  0.00    +0.000 S 
ATOM     19  C   UNL     1       6.617   6.863  17.322  0.00  0.00    +0.000 C 
ATOM     20  O   UNL     1       7.449   7.729  17.106  0.00  0.00    +0.000 OA
ATOM     21  C   UNL     1       6.773   5.778  18.311  0.00  0.00    +0.000 C 
ATOM     22  C   UNL     1       7.940   5.763  19.231  0.00  0.00    +0.000 C 
ATOM     23  C   UNL     1       5.783   4.878  18.213  0.00  0.00    +0.000 C 
BRANCH  23  24
ATOM     24  O   UNL     1       5.666   3.761  19.011  0.00  0.00    +0.000 OA
ATOM     25  H   UNL     1       4.731   3.500  19.074  0.00  0.00    +0.000 HD
ENDBRANCH  23  24
ENDBRANCH  15  16
ENDBRANCH   3  15
TORSDOF 9
ENDMDL
MODEL 4
REMARK VINA RESULT:      -6.8      1.502      2.755
REMARK  Name = 
REMARK  15 active torsions:
REMARK  status: ('A' for Active; 'I' for Inactive)
REMARK    1  A    between atoms: C_1  and  C_2
REMARK    2  A    between atoms: C_2  and  C_3
REMARK    3  A    between atoms: C_4  and  C_5
REMARK    4  A    between atoms: C_5  and  C_6
REMARK    5  A    between atoms: C_6  and  C_7
REMARK    6  A    between atoms: C_7  and  C_8
REMARK    7  A    between atoms: C_9  and  C_10
REMARK    8  A    between atoms: C_10  and  C_11
REMARK    9  A    between atoms: C_11  and  C_12
REMARK   10  A    between atoms: C_12  and  C_13
REMARK   11  A    between atoms: C_14  and  C_15
REMARK   12  A    between atoms: C_15  and  C_16
REMARK   13  A    between atoms: C_16  and  C_17
REMARK   14  A    between atoms: C_21  and  C_22
REMARK   15  A    between atoms: C_23  and  O_24
REMARK                            x       y       z     vdW  Elec       q    Type
REMARK                         _______ _______ _______ _____ _____    ______ ____
ROOT
ATOM      1  C   UNL     1       2.393   7.910  18.432  0.00  0.00    +0.000 C 
ATOM      2  C   UNL     1       2.050   7.587  19.864  0.00  0.00    +0.000 C 
ATOM      3  C   UNL     1       2.784   6.959  17.561  0.00  0.00    +0.000 C 
ENDROOT
BRANCH   1   4
ATOM      4  C   UNL     1       2.294   9.365  18.010  0.00  0.00    +0.000 C 
BRANCH   4   5
ATOM      5  C   UNL     1       1.027  10.028  18.554  0.00  0.00    +0.000 C 
BRANCH   5   8
ATOM      6  C   UNL     1      -1.416  10.289  18.064  0.00  0.00    +0.000 C 
ATOM      7  C   UNL     1      -1.534  11.194  19.267  0.00  0.00    +0.000 C 
ATOM      8  C   UNL     1      -0.217   9.748  17.753  0.00  0.00    +0.000 C 
BRANCH   6   9
ATOM      9  C   UNL     1      -2.635   9.969  17.213  0.00  0.00    +0.000 C 
BRANCH   9  10
ATOM     10  C   UNL     1      -3.987  10.291  17.855  0.00  0.00    +0.000 C 
BRANCH  10  14
ATOM     11  C   UNL     1      -6.400  13.237  17.044  0.00  0.00    +0.000 C 
ATOM     12  C   UNL     1      -5.895  11.925  17.563  0.00  0.00    +0.000 C 
ATOM     13  C   UNL     1      -6.857  11.078  18.356  0.00  0.00    +0.000 C 
ATOM     14  C   UNL     1      -4.631  11.537  17.315  0.00  0.00    +0.000 C 
ENDBRANCH  10  14
ENDBRANCH   9  10
ENDBRANCH   6   9
ENDBRANCH   5   8
ENDBRANCH   4   5
ENDBRANCH   1   4
BRANCH   3  15
ATOM     15  C   UNL     1       3.004   5.500  17.892  0.00  0.00    +0.000 C 
BRANCH  15  16
ATOM     16  C   UNL     1       4.391   4.895  17.567  0.00  0.00    +0.000 C 
ATOM     17  C   UNL     1       4.264   3.365  17.495  0.00  0.00    +0.000 C 
ATOM     18  S   UNL     1       5.030   5.459  15.938  0.00  0.00    +0.000 S 
ATOM     19  C   UNL     1       6.608   5.850  16.582  0.00  0.00    +0.000 C 
ATOM     20  O   UNL     1       7.572   6.127  15.889  0.00  0.00    +0.000 OA
ATOM     21  C   UNL     1       6.623   5.794  18.057  0.00  0.00    +0.000 C 
ATOM     22  C   UNL     1       7.828   6.226  18.812  0.00  0.00    +0.000 C 
ATOM     23  C   UNL     1       5.475   5.297  18.542  0.00  0.00    +0.000 C 
BRANCH  23  24
ATOM     24  O   UNL     1       5.203   5.134  19.882  0.00  0.00    +0.000 OA
ATOM     25  H   UNL     1       4.813   5.950  20.241  0.00  0.00    +0.000 HD
ENDBRANCH  23  24
ENDBRANCH  15  16
ENDBRANCH   3  15
TORSDOF 9
ENDMDL
MODEL 5
REMARK VINA RESULT:      -6.8      3.938      8.221
REMARK  Name = 
REMARK  15 active torsions:
REMARK  status: ('A' for Active; 'I' for Inactive)
REMARK    1  A    between atoms: C_1  and  C_2
REMARK    2  A    between atoms: C_2  and  C_3
REMARK    3  A    between atoms: C_4  and  C_5
REMARK    4  A    between atoms: C_5  and  C_6
REMARK    5  A    between atoms: C_6  and  C_7
REMARK    6  A    between atoms: C_7  and  C_8
REMARK    7  A    between atoms: C_9  and  C_10
REMARK    8  A    between atoms: C_10  and  C_11
REMARK    9  A    between atoms: C_11  and  C_12
REMARK   10  A    between atoms: C_12  and  C_13
REMARK   11  A    between atoms: C_14  and  C_15
REMARK   12  A    between atoms: C_15  and  C_16
REMARK   13  A    between atoms: C_16  and  C_17
REMARK   14  A    between atoms: C_21  and  C_22
REMARK   15  A    between atoms: C_23  and  O_24
REMARK                            x       y       z     vdW  Elec       q    Type
REMARK                         _______ _______ _______ _____ _____    ______ ____
ROOT
ATOM      1  C   UNL     1       2.194   8.399  18.425  0.00  0.00    +0.000 C 
ATOM      2  C   UNL     1       2.014   7.817  19.804  0.00  0.00    +0.000 C 
ATOM      3  C   UNL     1       1.425   9.409  17.972  0.00  0.00    +0.000 C 
ENDROOT
BRANCH   1   4
ATOM      4  C   UNL     1       3.275   7.788  17.554  0.00  0.00    +0.000 C 
BRANCH   4   5
ATOM      5  C   UNL     1       3.810   6.482  18.146  0.00  0.00    +0.000 C 
BRANCH   5   8
ATOM      6  C   UNL     1       3.586   4.069  17.515  0.00  0.00    +0.000 C 
ATOM      7  C   UNL     1       5.091   3.948  17.542  0.00  0.00    +0.000 C 
ATOM      8  C   UNL     1       3.008   5.259  17.789  0.00  0.00    +0.000 C 
BRANCH   6   9
ATOM      9  C   UNL     1       2.719   2.870  17.162  0.00  0.00    +0.000 C 
BRANCH   9  10
ATOM     10  C   UNL     1       1.544   2.607  18.108  0.00  0.00    +0.000 C 
BRANCH  10  14
ATOM     11  C   UNL     1       2.055   2.599  21.968  0.00  0.00    +0.000 C 
ATOM     12  C   UNL     1       1.665   3.053  20.594  0.00  0.00    +0.000 C 
ATOM     13  C   UNL     1       0.942   4.371  20.480  0.00  0.00    +0.000 C 
ATOM     14  C   UNL     1       1.960   2.302  19.519  0.00  0.00    +0.000 C 
ENDBRANCH  10  14
ENDBRANCH   9  10
ENDBRANCH   6   9
ENDBRANCH   5   8
ENDBRANCH   4   5
ENDBRANCH   1   4
BRANCH   3  15
ATOM     15  C   UNL     1       0.265  10.033  18.715  0.00  0.00    +0.000 C 
BRANCH  15  16
ATOM     16  C   UNL     1       0.435  11.488  19.213  0.00  0.00    +0.000 C 
ATOM     17  C   UNL     1       1.785  12.030  18.719  0.00  0.00    +0.000 C 
ATOM     18  S   UNL     1      -0.868  12.605  18.553  0.00  0.00    +0.000 S 
ATOM     19  C   UNL     1      -1.201  13.303  20.120  0.00  0.00    +0.000 C 
ATOM     20  O   UNL     1      -1.904  14.286  20.287  0.00  0.00    +0.000 OA
ATOM     21  C   UNL     1      -0.524  12.562  21.202  0.00  0.00    +0.000 C 
ATOM     22  C   UNL     1      -0.785  12.906  22.624  0.00  0.00    +0.000 C 
ATOM     23  C   UNL     1       0.314  11.636  20.713  0.00  0.00    +0.000 C 
BRANCH  23  24
ATOM     24  O   UNL     1       1.077  10.791  21.489  0.00  0.00    +0.000 OA
ATOM     25  H   UNL     1       0.602   9.953  21.627  0.00  0.00    +0.000 HD
ENDBRANCH  23  24
ENDBRANCH  15  16
ENDBRANCH   3  15
TORSDOF 9
ENDMDL
MODEL 6
REMARK VINA RESULT:      -6.8      4.964      8.077
REMARK  Name = 
REMARK  15 active torsions:
REMARK  status: ('A' for Active; 'I' for Inactive)
REMARK    1  A    between atoms: C_1  and  C_2
REMARK    2  A    between atoms: C_2  and  C_3
REMARK    3  A    between atoms: C_4  and  C_5
REMARK    4  A    between atoms: C_5  and  C_6
REMARK    5  A    between atoms: C_6  and  C_7
REMARK    6  A    between atoms: C_7  and  C_8
REMARK    7  A    between atoms: C_9  and  C_10
REMARK    8  A    between atoms: C_10  and  C_11
REMARK    9  A    between atoms: C_11  and  C_12
REMARK   10  A    between atoms: C_12  and  C_13
REMARK   11  A    between atoms: C_14  and  C_15
REMARK   12  A    between atoms: C_15  and  C_16
REMARK   13  A    between atoms: C_16  and  C_17
REMARK   14  A    between atoms: C_21  and  C_22
REMARK   15  A    between atoms: C_23  and  O_24
REMARK                            x       y       z     vdW  Elec       q    Type
REMARK                         _______ _______ _______ _____ _____    ______ ____
ROOT
ATOM      1  C   UNL     1       7.153   6.510  18.165  0.00  0.00    +0.000 C 
ATOM      2  C   UNL     1       7.992   5.738  19.153  0.00  0.00    +0.000 C 
ATOM      3  C   UNL     1       5.873   6.180  17.906  0.00  0.00    +0.000 C 
ENDROOT
BRANCH   1   4
ATOM      4  C   UNL     1       7.820   7.674  17.456  0.00  0.00    +0.000 C 
BRANCH   4   5
ATOM      5  C   UNL     1       8.292   8.744  18.443  0.00  0.00    +0.000 C 
BRANCH   5   8
ATOM      6  C   UNL     1       9.224  11.069  18.463  0.00  0.00    +0.000 C 
ATOM      7  C   UNL     1       9.776  10.808  19.845  0.00  0.00    +0.000 C 
ATOM      8  C   UNL     1       8.527  10.099  17.830  0.00  0.00    +0.000 C 
BRANCH   6   9
ATOM      9  C   UNL     1       9.429  12.417  17.790  0.00  0.00    +0.000 C 
BRANCH   9  10
ATOM     10  C   UNL     1       9.910  13.544  18.707  0.00  0.00    +0.000 C 
BRANCH  10  14
ATOM     11  C   UNL     1       7.727  16.764  18.552  0.00  0.00    +0.000 C 
ATOM     12  C   UNL     1       8.855  15.808  18.311  0.00  0.00    +0.000 C 
ATOM     13  C   UNL     1       9.938  16.241  17.355  0.00  0.00    +0.000 C 
ATOM     14  C   UNL     1       8.883  14.617  18.935  0.00  0.00    +0.000 C 
ENDBRANCH  10  14
ENDBRANCH   9  10
ENDBRANCH   6   9
ENDBRANCH   5   8
ENDBRANCH   4   5
ENDBRANCH   1   4
BRANCH   3  15
ATOM     15  C   UNL     1       5.137   4.990  18.482  0.00  0.00    +0.000 C 
BRANCH  15  16
ATOM     16  C   UNL     1       3.601   4.943  18.300  0.00  0.00    +0.000 C 
ATOM     17  C   UNL     1       3.147   6.212  17.561  0.00  0.00    +0.000 C 
ATOM     18  S   UNL     1       3.066   3.508  17.284  0.00  0.00    +0.000 S 
ATOM     19  C   UNL     1       1.812   3.051  18.413  0.00  0.00    +0.000 C 
ATOM     20  O   UNL     1       0.959   2.213  18.174  0.00  0.00    +0.000 OA
ATOM     21  C   UNL     1       1.916   3.807  19.677  0.00  0.00    +0.000 C 
ATOM     22  C   UNL     1       1.032   3.474  20.825  0.00  0.00    +0.000 C 
ATOM     23  C   UNL     1       2.839   4.776  19.595  0.00  0.00    +0.000 C 
BRANCH  23  24
ATOM     24  O   UNL     1       3.156   5.637  20.623  0.00  0.00    +0.000 OA
ATOM     25  H   UNL     1       3.940   6.160  20.384  0.00  0.00    +0.000 HD
ENDBRANCH  23  24
ENDBRANCH  15  16
ENDBRANCH   3  15
TORSDOF 9
ENDMDL
MODEL 7
REMARK VINA RESULT:      -6.7      1.759      2.468
REMARK  Name = 
REMARK  15 active torsions:
REMARK  status: ('A' for Active; 'I' for Inactive)
REMARK    1  A    between atoms: C_1  and  C_2
REMARK    2  A    between atoms: C_2  and  C_3
REMARK    3  A    between atoms: C_4  and  C_5
REMARK    4  A    between atoms: C_5  and  C_6
REMARK    5  A    between atoms: C_6  and  C_7
REMARK    6  A    between atoms: C_7  and  C_8
REMARK    7  A    between atoms: C_9  and  C_10
REMARK    8  A    between atoms: C_10  and  C_11
REMARK    9  A    between atoms: C_11  and  C_12
REMARK   10  A    between atoms: C_12  and  C_13
REMARK   11  A    between atoms: C_14  and  C_15
REMARK   12  A    between atoms: C_15  and  C_16
REMARK   13  A    between atoms: C_16  and  C_17
REMARK   14  A    between atoms: C_21  and  C_22
REMARK   15  A    between atoms: C_23  and  O_24
REMARK                            x       y       z     vdW  Elec       q    Type
REMARK                         _______ _______ _______ _____ _____    ______ ____
ROOT
ATOM      1  C   UNL     1       2.317   5.235  19.616  0.00  0.00    +0.000 C 
ATOM      2  C   UNL     1       2.485   3.900  20.297  0.00  0.00    +0.000 C 
ATOM      3  C   UNL     1       2.705   5.439  18.341  0.00  0.00    +0.000 C 
ENDROOT
BRANCH   1   4
ATOM      4  C   UNL     1       1.703   6.355  20.435  0.00  0.00    +0.000 C 
BRANCH   4   5
ATOM      5  C   UNL     1       2.138   7.732  19.930  0.00  0.00    +0.000 C 
BRANCH   5   8
ATOM      6  C   UNL     1       0.648   9.443  20.994  0.00  0.00    +0.000 C 
ATOM      7  C   UNL     1       1.316   9.162  22.319  0.00  0.00    +0.000 C 
ATOM      8  C   UNL     1       1.038   8.760  19.894  0.00  0.00    +0.000 C 
BRANCH   6   9
ATOM      9  C   UNL     1      -0.468  10.470  20.891  0.00  0.00    +0.000 C 
BRANCH   9  10
ATOM     10  C   UNL     1      -0.791  10.951  19.475  0.00  0.00    +0.000 C 
BRANCH  10  14
ATOM     11  C   UNL     1      -0.066  14.707  18.748  0.00  0.00    +0.000 C 
ATOM     12  C   UNL     1       0.148  13.234  18.927  0.00  0.00    +0.000 C 
ATOM     13  C   UNL     1       1.522  12.693  18.624  0.00  0.00    +0.000 C 
ATOM     14  C   UNL     1      -0.859  12.447  19.344  0.00  0.00    +0.000 C 
ENDBRANCH  10  14
ENDBRANCH   9  10
ENDBRANCH   6   9
ENDBRANCH   5   8
ENDBRANCH   4   5
ENDBRANCH   1   4
BRANCH   3  15
ATOM     15  C   UNL     1       3.407   4.427  17.464  0.00  0.00    +0.000 C 
BRANCH  15  16
ATOM     16  C   UNL     1       4.858   4.745  17.027  0.00  0.00    +0.000 C 
ATOM     17  C   UNL     1       5.260   3.786  15.896  0.00  0.00    +0.000 C 
ATOM     18  S   UNL     1       5.027   6.454  16.370  0.00  0.00    +0.000 S 
ATOM     19  C   UNL     1       6.444   6.790  17.336  0.00  0.00    +0.000 C 
ATOM     20  O   UNL     1       7.145   7.777  17.189  0.00  0.00    +0.000 OA
ATOM     21  C   UNL     1       6.685   5.732  18.338  0.00  0.00    +0.000 C 
ATOM     22  C   UNL     1       7.758   5.890  19.353  0.00  0.00    +0.000 C 
ATOM     23  C   UNL     1       5.860   4.690  18.158  0.00  0.00    +0.000 C 
BRANCH  23  24
ATOM     24  O   UNL     1       5.853   3.560  18.946  0.00  0.00    +0.000 OA
ATOM     25  H   UNL     1       5.578   2.791  18.416  0.00  0.00    +0.000 HD
ENDBRANCH  23  24
ENDBRANCH  15  16
ENDBRANCH   3  15
TORSDOF 9
ENDMDL
MODEL 8
REMARK VINA RESULT:      -6.7      2.038      2.948
REMARK  Name = 
REMARK  15 active torsions:
REMARK  status: ('A' for Active; 'I' for Inactive)
REMARK    1  A    between atoms: C_1  and  C_2
REMARK    2  A    between atoms: C_2  and  C_3
REMARK    3  A    between atoms: C_4  and  C_5
REMARK    4  A    between atoms: C_5  and  C_6
REMARK    5  A    between atoms: C_6  and  C_7
REMARK    6  A    between atoms: C_7  and  C_8
REMARK    7  A    between atoms: C_9  and  C_10
REMARK    8  A    between atoms: C_10  and  C_11
REMARK    9  A    between atoms: C_11  and  C_12
REMARK   10  A    between atoms: C_12  and  C_13
REMARK   11  A    between atoms: C_14  and  C_15
REMARK   12  A    between atoms: C_15  and  C_16
REMARK   13  A    between atoms: C_16  and  C_17
REMARK   14  A    between atoms: C_21  and  C_22
REMARK   15  A    between atoms: C_23  and  O_24
REMARK                            x       y       z     vdW  Elec       q    Type
REMARK                         _______ _______ _______ _____ _____    ______ ____
ROOT
ATOM      1  C   UNL     1       2.099   5.698  19.996  0.00  0.00    +0.000 C 
ATOM      2  C   UNL     1       2.002   4.392  20.743  0.00  0.00    +0.000 C 
ATOM      3  C   UNL     1       2.623   5.774  18.757  0.00  0.00    +0.000 C 
ENDROOT
BRANCH   1   4
ATOM      4  C   UNL     1       1.594   6.939  20.709  0.00  0.00    +0.000 C 
BRANCH   4   5
ATOM      5  C   UNL     1       1.962   8.217  19.952  0.00  0.00    +0.000 C 
BRANCH   5   8
ATOM      6  C   UNL     1       0.831  10.249  19.022  0.00  0.00    +0.000 C 
ATOM      7  C   UNL     1       1.879  10.304  17.936  0.00  0.00    +0.000 C 
ATOM      8  C   UNL     1       0.892   9.276  19.958  0.00  0.00    +0.000 C 
BRANCH   6   9
ATOM      9  C   UNL     1      -0.276  11.290  19.082  0.00  0.00    +0.000 C 
BRANCH   9  10
ATOM     10  C   UNL     1      -1.095  11.304  20.375  0.00  0.00    +0.000 C 
BRANCH  10  14
ATOM     11  C   UNL     1      -1.019  14.006  23.177  0.00  0.00    +0.000 C 
ATOM     12  C   UNL     1      -1.301  12.722  22.459  0.00  0.00    +0.000 C 
ATOM     13  C   UNL     1      -1.993  11.631  23.237  0.00  0.00    +0.000 C 
ATOM     14  C   UNL     1      -0.946  12.570  21.171  0.00  0.00    +0.000 C 
ENDBRANCH  10  14
ENDBRANCH   9  10
ENDBRANCH   6   9
ENDBRANCH   5   8
ENDBRANCH   4   5
ENDBRANCH   1   4
BRANCH   3  15
ATOM     15  C   UNL     1       3.237   4.623  17.990  0.00  0.00    +0.000 C 
BRANCH  15  16
ATOM     16  C   UNL     1       4.629   4.851  17.353  0.00  0.00    +0.000 C 
ATOM     17  C   UNL     1       4.805   3.878  16.177  0.00  0.00    +0.000 C 
ATOM     18  S   UNL     1       4.814   6.551  16.678  0.00  0.00    +0.000 S 
ATOM     19  C   UNL     1       6.372   6.788  17.434  0.00  0.00    +0.000 C 
ATOM     20  O   UNL     1       7.107   7.729  17.189  0.00  0.00    +0.000 OA
ATOM     21  C   UNL     1       6.682   5.708  18.393  0.00  0.00    +0.000 C 
ATOM     22  C   UNL     1       7.895   5.788  19.247  0.00  0.00    +0.000 C 
ATOM     23  C   UNL     1       5.775   4.722  18.332  0.00  0.00    +0.000 C 
BRANCH  23  24
ATOM     24  O   UNL     1       5.805   3.589  19.114  0.00  0.00    +0.000 OA
ATOM     25  H   UNL     1       5.060   3.008  18.881  0.00  0.00    +0.000 HD
ENDBRANCH  23  24
ENDBRANCH  15  16
ENDBRANCH   3  15
TORSDOF 9
ENDMDL
MODEL 9
REMARK VINA RESULT:      -6.6      2.270      3.858
REMARK  Name = 
REMARK  15 active torsions:
REMARK  status: ('A' for Active; 'I' for Inactive)
REMARK    1  A    between atoms: C_1  and  C_2
REMARK    2  A    between atoms: C_2  and  C_3
REMARK    3  A    between atoms: C_4  and  C_5
REMARK    4  A    between atoms: C_5  and  C_6
REMARK    5  A    between atoms: C_6  and  C_7
REMARK    6  A    between atoms: C_7  and  C_8
REMARK    7  A    between atoms: C_9  and  C_10
REMARK    8  A    between atoms: C_10  and  C_11
REMARK    9  A    between atoms: C_11  and  C_12
REMARK   10  A    between atoms: C_12  and  C_13
REMARK   11  A    between atoms: C_14  and  C_15
REMARK   12  A    between atoms: C_15  and  C_16
REMARK   13  A    between atoms: C_16  and  C_17
REMARK   14  A    between atoms: C_21  and  C_22
REMARK   15  A    between atoms: C_23  and  O_24
REMARK                            x       y       z     vdW  Elec       q    Type
REMARK                         _______ _______ _______ _____ _____    ______ ____
ROOT
ATOM      1  C   UNL     1       2.390   7.482  18.797  0.00  0.00    +0.000 C 
ATOM      2  C   UNL     1       1.929   7.639  20.224  0.00  0.00    +0.000 C 
ATOM      3  C   UNL     1       2.852   6.309  18.321  0.00  0.00    +0.000 C 
ENDROOT
BRANCH   1   4
ATOM      4  C   UNL     1       2.327   8.714  17.913  0.00  0.00    +0.000 C 
BRANCH   4   5
ATOM      5  C   UNL     1       0.934   9.348  17.922  0.00  0.00    +0.000 C 
BRANCH   5   8
ATOM      6  C   UNL     1      -0.285  11.342  18.823  0.00  0.00    +0.000 C 
ATOM      7  C   UNL     1      -1.591  10.637  18.544  0.00  0.00    +0.000 C 
ATOM      8  C   UNL     1       0.881  10.729  18.517  0.00  0.00    +0.000 C 
BRANCH   6   9
ATOM      9  C   UNL     1      -0.272  12.738  19.425  0.00  0.00    +0.000 C 
BRANCH   9  10
ATOM     10  C   UNL     1      -0.531  12.807  20.932  0.00  0.00    +0.000 C 
BRANCH  10  14
ATOM     11  C   UNL     1      -0.259   9.713  23.280  0.00  0.00    +0.000 C 
ATOM     12  C   UNL     1      -0.765  10.985  22.669  0.00  0.00    +0.000 C 
ATOM     13  C   UNL     1      -2.054  11.549  23.213  0.00  0.00    +0.000 C 
ATOM     14  C   UNL     1      -0.080  11.584  21.679  0.00  0.00    +0.000 C 
ENDBRANCH  10  14
ENDBRANCH   9  10
ENDBRANCH   6   9
ENDBRANCH   5   8
ENDBRANCH   4   5
ENDBRANCH   1   4
BRANCH   3  15
ATOM     15  C   UNL     1       3.043   5.046  19.132  0.00  0.00    +0.000 C 
BRANCH  15  16
ATOM     16  C   UNL     1       4.081   4.019  18.620  0.00  0.00    +0.000 C 
ATOM     17  C   UNL     1       3.946   2.723  19.435  0.00  0.00    +0.000 C 
ATOM     18  S   UNL     1       3.810   3.577  16.856  0.00  0.00    +0.000 S 
ATOM     19  C   UNL     1       5.495   3.792  16.441  0.00  0.00    +0.000 C 
ATOM     20  O   UNL     1       5.977   3.454  15.373  0.00  0.00    +0.000 OA
ATOM     21  C   UNL     1       6.251   4.422  17.542  0.00  0.00    +0.000 C 
ATOM     22  C   UNL     1       7.669   4.820  17.346  0.00  0.00    +0.000 C 
ATOM     23  C   UNL     1       5.506   4.526  18.652  0.00  0.00    +0.000 C 
BRANCH  23  24
ATOM     24  O   UNL     1       5.947   5.078  19.835  0.00  0.00    +0.000 OA
ATOM     25  H   UNL     1       5.928   6.048  19.772  0.00  0.00    +0.000 HD
ENDBRANCH  23  24
ENDBRANCH  15  16
ENDBRANCH   3  15
TORSDOF 9
ENDMDL
