MODEL 1
REMARK VINA RESULT:      -6.8      0.000      0.000
REMARK  Name = 
REMARK  7 active torsions:
REMARK  status: ('A' for Active; 'I' for Inactive)
REMARK    1  A    between atoms: C_1  and  C_2
REMARK    2  A    between atoms: C_2  and  O_3
REMARK    3  A    between atoms: O_3  and  C_4
REMARK    4  A    between atoms: C_4  and  C_6
REMARK    5  A    between atoms: C_7  and  N_8
REMARK    6  A    between atoms: N_14  and  C_15
REMARK    7  A    between atoms: C_24  and  C_25
REMARK                            x       y       z     vdW  Elec       q    Type
REMARK                         _______ _______ _______ _____ _____    ______ ____
ROOT
ATOM      1  C   UNL     1       2.948   5.406  17.879  0.00  0.00    +0.000 A 
ATOM      2  C   UNL     1       3.146   6.710  18.311  0.00  0.00    +0.000 A 
ATOM      3  S   UNL     1       4.604   7.385  17.739  0.00  0.00    +0.000 S 
ATOM      4  C   UNL     1       5.051   5.934  16.977  0.00  0.00    +0.000 A 
ATOM      5  C   UNL     1       4.126   4.928  17.191  0.00  0.00    +0.000 A 
ATOM      6  C   UNL     1       4.372   3.540  16.662  0.00  0.00    +0.000 C 
ATOM      7  C   UNL     1       5.853   3.368  16.294  0.00  0.00    +0.000 C 
ATOM      8  N   UNL     1       6.321   4.507  15.485  0.00  0.00    +0.000 N 
ATOM      9  C   UNL     1       6.592   4.285  14.149  0.00  0.00    +0.000 C 
ATOM     10  C   UNL     1       7.089   5.411  13.277  0.00  0.00    +0.000 C 
ATOM     11  O   UNL     1       6.446   3.173  13.632  0.00  0.00    +0.000 OA
ATOM     12  C   UNL     1       6.321   5.806  16.181  0.00  0.00    +0.000 C 
ENDROOT
BRANCH   2  13
ATOM     13  N   UNL     1       2.269   7.523  19.023  0.00  0.00    +0.000 N 
ATOM     14  C   UNL     1       1.661   8.618  18.431  0.00  0.00    +0.000 C 
ATOM     15  O   UNL     1       1.766   8.909  17.240  0.00  0.00    +0.000 OA
ATOM     16  N   UNL     1       0.912   9.425  19.304  0.00  0.00    +0.000 N 
ATOM     17  C   UNL     1       0.378  10.658  18.710  0.00  0.00    +0.000 C 
ATOM     18  C   UNL     1      -0.665  11.402  19.570  0.00  0.00    +0.000 C 
ATOM     19  N   UNL     1      -0.380  11.495  21.014  0.00  0.00    +0.000 NA
ATOM     20  C   UNL     1       0.604  12.530  21.314  0.00  0.00    +0.000 C 
ATOM     21  C   UNL     1       0.019  10.176  21.525  0.00  0.00    +0.000 C 
ATOM     22  C   UNL     1       1.153   9.490  20.748  0.00  0.00    +0.000 C 
ATOM     23  H   UNL     1       2.540   7.649  19.985  0.00  0.00    +0.000 HD
ENDBRANCH   2  13
BRANCH   1  24
ATOM     24  C   UNL     1       1.736   4.614  18.072  0.00  0.00    +0.000 C 
ATOM     25  O   UNL     1       0.996   4.273  17.147  0.00  0.00    +0.000 OA
BRANCH  24  26
ATOM     26  O   UNL     1       1.442   4.406  19.390  0.00  0.00    +0.000 OA
BRANCH  26  28
ATOM     27  C   UNL     1       1.469   2.993  21.310  0.00  0.00    +0.000 C 
ATOM     28  C   UNL     1       2.137   3.291  19.977  0.00  0.00    +0.000 C 
ENDBRANCH  26  28
ENDBRANCH  24  26
ENDBRANCH   1  24
TORSDOF 4
ENDMDL
MODEL 2
REMARK VINA RESULT:      -6.1      1.451      1.810
REMARK  Name = 
REMARK  7 active torsions:
REMARK  status: ('A' for Active; 'I' for Inactive)
REMARK    1  A    between atoms: C_1  and  C_2
REMARK    2  A    between atoms: C_2  and  O_3
REMARK    3  A    between atoms: O_3  and  C_4
REMARK    4  A    between atoms: C_4  and  C_6
REMARK    5  A    between atoms: C_7  and  N_8
REMARK    6  A    between atoms: N_14  and  C_15
REMARK    7  A    between atoms: C_24  and  C_25
REMARK                            x       y       z     vdW  Elec       q    Type
REMARK                         _______ _______ _______ _____ _____    ______ ____
ROOT
ATOM      1  C   UNL     1       2.766   5.971  19.560  0.00  0.00    +0.000 A 
ATOM      2  C   UNL     1       2.499   7.318  19.356  0.00  0.00    +0.000 A 
ATOM      3  S   UNL     1       3.379   7.979  18.053  0.00  0.00    +0.000 S 
ATOM      4  C   UNL     1       4.201   6.517  17.784  0.00  0.00    +0.000 A 
ATOM      5  C   UNL     1       3.848   5.545  18.702  0.00  0.00    +0.000 A 
ATOM      6  C   UNL     1       4.520   4.198  18.682  0.00  0.00    +0.000 C 
ATOM      7  C   UNL     1       5.815   4.263  17.859  0.00  0.00    +0.000 C 
ATOM      8  N   UNL     1       5.575   4.932  16.569  0.00  0.00    +0.000 N 
ATOM      9  C   UNL     1       5.605   4.162  15.424  0.00  0.00    +0.000 C 
ATOM     10  C   UNL     1       5.383   4.797  14.074  0.00  0.00    +0.000 C 
ATOM     11  O   UNL     1       5.820   2.946  15.463  0.00  0.00    +0.000 OA
ATOM     12  C   UNL     1       5.196   6.353  16.667  0.00  0.00    +0.000 C 
ENDROOT
BRANCH   2  13
ATOM     13  N   UNL     1       1.550   8.113  19.992  0.00  0.00    +0.000 N 
ATOM     14  C   UNL     1       0.935   9.165  19.333  0.00  0.00    +0.000 C 
ATOM     15  O   UNL     1       1.099   9.427  18.142  0.00  0.00    +0.000 OA
ATOM     16  N   UNL     1       0.104   9.964  20.137  0.00  0.00    +0.000 N 
ATOM     17  C   UNL     1      -0.443  11.156  19.476  0.00  0.00    +0.000 C 
ATOM     18  C   UNL     1      -1.564  11.880  20.252  0.00  0.00    +0.000 C 
ATOM     19  N   UNL     1      -1.369  12.025  21.706  0.00  0.00    +0.000 NA
ATOM     20  C   UNL     1      -0.447  13.108  22.032  0.00  0.00    +0.000 C 
ATOM     21  C   UNL     1      -0.949  10.738  22.279  0.00  0.00    +0.000 C 
ATOM     22  C   UNL     1       0.256  10.078  21.589  0.00  0.00    +0.000 C 
ATOM     23  H   UNL     1       1.758   8.277  20.963  0.00  0.00    +0.000 HD
ENDBRANCH   2  13
BRANCH   1  24
ATOM     24  C   UNL     1       2.067   5.091  20.492  0.00  0.00    +0.000 C 
ATOM     25  O   UNL     1       2.505   4.803  21.608  0.00  0.00    +0.000 OA
BRANCH  24  26
ATOM     26  O   UNL     1       0.951   4.521  19.949  0.00  0.00    +0.000 OA
BRANCH  26  28
ATOM     27  C   UNL     1       1.026   2.497  18.692  0.00  0.00    +0.000 C 
ATOM     28  C   UNL     1       0.896   3.090  20.085  0.00  0.00    +0.000 C 
ENDBRANCH  26  28
ENDBRANCH  24  26
ENDBRANCH   1  24
TORSDOF 4
ENDMDL
MODEL 3
REMARK VINA RESULT:      -6.0      4.165      6.854
REMARK  Name = 
REMARK  7 active torsions:
REMARK  status: ('A' for Active; 'I' for Inactive)
REMARK    1  A    between atoms: C_1  and  C_2
REMARK    2  A    between atoms: C_2  and  O_3
REMARK    3  A    between atoms: O_3  and  C_4
REMARK    4  A    between atoms: C_4  and  C_6
REMARK    5  A    between atoms: C_7  and  N_8
REMARK    6  A    between atoms: N_14  and  C_15
REMARK    7  A    between atoms: C_24  and  C_25
REMARK                            x       y       z     vdW  Elec       q    Type
REMARK                         _______ _______ _______ _____ _____    ______ ____
ROOT
ATOM      1  C   UNL     1       5.927   5.801  16.928  0.00  0.00    +0.000 A 
ATOM      2  C   UNL     1       5.664   7.125  17.249  0.00  0.00    +0.000 A 
ATOM      3  S   UNL     1       4.102   7.355  17.895  0.00  0.00    +0.000 S 
ATOM      4  C   UNL     1       3.705   5.717  17.683  0.00  0.00    +0.000 A 
ATOM      5  C   UNL     1       4.729   5.006  17.084  0.00  0.00    +0.000 A 
ATOM      6  C   UNL     1       4.549   3.552  16.739  0.00  0.00    +0.000 C 
ATOM      7  C   UNL     1       3.058   3.184  16.755  0.00  0.00    +0.000 C 
ATOM      8  N   UNL     1       2.414   3.687  17.981  0.00  0.00    +0.000 N 
ATOM      9  C   UNL     1       2.027   2.766  18.934  0.00  0.00    +0.000 C 
ATOM     10  C   UNL     1       1.348   3.222  20.202  0.00  0.00    +0.000 C 
ATOM     11  O   UNL     1       2.212   1.554  18.781  0.00  0.00    +0.000 OA
ATOM     12  C   UNL     1       2.374   5.155  18.106  0.00  0.00    +0.000 C 
ENDROOT
BRANCH   2  13
ATOM     13  N   UNL     1       6.537   8.209  17.214  0.00  0.00    +0.000 N 
ATOM     14  C   UNL     1       7.626   8.283  18.068  0.00  0.00    +0.000 C 
ATOM     15  O   UNL     1       7.959   7.389  18.845  0.00  0.00    +0.000 OA
ATOM     16  N   UNL     1       8.337   9.494  18.017  0.00  0.00    +0.000 N 
ATOM     17  C   UNL     1       9.407   9.630  19.014  0.00  0.00    +0.000 C 
ATOM     18  C   UNL     1      10.366  10.820  18.790  0.00  0.00    +0.000 C 
ATOM     19  N   UNL     1       9.746  12.094  18.382  0.00  0.00    +0.000 NA
ATOM     20  C   UNL     1       9.141  12.796  19.510  0.00  0.00    +0.000 C 
ATOM     21  C   UNL     1       8.790  11.853  17.292  0.00  0.00    +0.000 C 
ATOM     22  C   UNL     1       7.748  10.757  17.568  0.00  0.00    +0.000 C 
ATOM     23  H   UNL     1       6.074   9.083  17.029  0.00  0.00    +0.000 HD
ENDBRANCH   2  13
BRANCH   1  24
ATOM     24  C   UNL     1       7.215   5.262  16.500  0.00  0.00    +0.000 C 
ATOM     25  O   UNL     1       7.922   4.550  17.216  0.00  0.00    +0.000 OA
BRANCH  24  26
ATOM     26  O   UNL     1       7.610   5.736  15.281  0.00  0.00    +0.000 OA
BRANCH  26  28
ATOM     27  C   UNL     1       7.970   5.355  12.955  0.00  0.00    +0.000 C 
ATOM     28  C   UNL     1       7.147   4.951  14.168  0.00  0.00    +0.000 C 
ENDBRANCH  26  28
ENDBRANCH  24  26
ENDBRANCH   1  24
TORSDOF 4
ENDMDL
MODEL 4
REMARK VINA RESULT:      -5.9      3.020      5.169
REMARK  Name = 
REMARK  7 active torsions:
REMARK  status: ('A' for Active; 'I' for Inactive)
REMARK    1  A    between atoms: C_1  and  C_2
REMARK    2  A    between atoms: C_2  and  O_3
REMARK    3  A    between atoms: O_3  and  C_4
REMARK    4  A    between atoms: C_4  and  C_6
REMARK    5  A    between atoms: C_7  and  N_8
REMARK    6  A    between atoms: N_14  and  C_15
REMARK    7  A    between atoms: C_24  and  C_25
REMARK                            x       y       z     vdW  Elec       q    Type
REMARK                         _______ _______ _______ _____ _____    ______ ____
ROOT
ATOM      1  C   UNL     1       1.013   8.693  20.343  0.00  0.00    +0.000 A 
ATOM      2  C   UNL     1       1.166   9.666  19.365  0.00  0.00    +0.000 A 
ATOM      3  S   UNL     1       2.036   9.112  18.006  0.00  0.00    +0.000 S 
ATOM      4  C   UNL     1       2.308   7.594  18.720  0.00  0.00    +0.000 A 
ATOM      5  C   UNL     1       1.784   7.519  19.998  0.00  0.00    +0.000 A 
ATOM      6  C   UNL     1       1.983   6.282  20.833  0.00  0.00    +0.000 C 
ATOM      7  C   UNL     1       3.115   5.424  20.248  0.00  0.00    +0.000 C 
ATOM      8  N   UNL     1       2.938   5.255  18.795  0.00  0.00    +0.000 N 
ATOM      9  C   UNL     1       2.574   4.008  18.328  0.00  0.00    +0.000 C 
ATOM     10  C   UNL     1       2.395   3.772  16.849  0.00  0.00    +0.000 C 
ATOM     11  O   UNL     1       2.393   3.054  19.092  0.00  0.00    +0.000 OA
ATOM     12  C   UNL     1       3.047   6.495  18.006  0.00  0.00    +0.000 C 
ENDROOT
BRANCH   2  13
ATOM     13  N   UNL     1       0.609  10.941  19.325  0.00  0.00    +0.000 N 
ATOM     14  C   UNL     1       1.355  12.040  18.929  0.00  0.00    +0.000 C 
ATOM     15  O   UNL     1       2.508  11.978  18.506  0.00  0.00    +0.000 OA
ATOM     16  N   UNL     1       0.706  13.278  19.071  0.00  0.00    +0.000 N 
ATOM     17  C   UNL     1       1.538  14.454  18.781  0.00  0.00    +0.000 C 
ATOM     18  C   UNL     1       0.770  15.788  18.662  0.00  0.00    +0.000 C 
ATOM     19  N   UNL     1      -0.294  16.024  19.656  0.00  0.00    +0.000 NA
ATOM     20  C   UNL     1       0.243  16.449  20.945  0.00  0.00    +0.000 C 
ATOM     21  C   UNL     1      -1.141  14.827  19.767  0.00  0.00    +0.000 C 
ATOM     22  C   UNL     1      -0.385  13.513  20.020  0.00  0.00    +0.000 C 
ATOM     23  H   UNL     1      -0.043  11.110  20.073  0.00  0.00    +0.000 HD
ENDBRANCH   2  13
BRANCH   1  24
ATOM     24  C   UNL     1       0.196   8.809  21.547  0.00  0.00    +0.000 C 
ATOM     25  O   UNL     1      -0.745   8.055  21.801  0.00  0.00    +0.000 OA
BRANCH  24  26
ATOM     26  O   UNL     1       0.500   9.915  22.290  0.00  0.00    +0.000 OA
BRANCH  26  28
ATOM     27  C   UNL     1      -1.286  11.396  22.837  0.00  0.00    +0.000 C 
ATOM     28  C   UNL     1      -0.461  10.214  23.318  0.00  0.00    +0.000 C 
ENDBRANCH  26  28
ENDBRANCH  24  26
ENDBRANCH   1  24
TORSDOF 4
ENDMDL
MODEL 5
REMARK VINA RESULT:      -5.8      4.028      9.157
REMARK  Name = 
REMARK  7 active torsions:
REMARK  status: ('A' for Active; 'I' for Inactive)
REMARK    1  A    between atoms: C_1  and  C_2
REMARK    2  A    between atoms: C_2  and  O_3
REMARK    3  A    between atoms: O_3  and  C_4
REMARK    4  A    between atoms: C_4  and  C_6
REMARK    5  A    between atoms: C_7  and  N_8
REMARK    6  A    between atoms: N_14  and  C_15
REMARK    7  A    between atoms: C_24  and  C_25
REMARK                            x       y       z     vdW  Elec       q    Type
REMARK                         _______ _______ _______ _____ _____    ______ ____
ROOT
ATOM      1  C   UNL     1       0.067  12.035  19.031  0.00  0.00    +0.000 A 
ATOM      2  C   UNL     1       1.179  11.336  18.583  0.00  0.00    +0.000 A 
ATOM      3  S   UNL     1       2.509  12.350  18.247  0.00  0.00    +0.000 S 
ATOM      4  C   UNL     1       1.613  13.749  18.602  0.00  0.00    +0.000 A 
ATOM      5  C   UNL     1       0.301  13.458  18.929  0.00  0.00    +0.000 A 
ATOM      6  C   UNL     1      -0.680  14.566  19.206  0.00  0.00    +0.000 C 
ATOM      7  C   UNL     1      -0.137  15.900  18.675  0.00  0.00    +0.000 C 
ATOM      8  N   UNL     1       1.260  16.095  19.099  0.00  0.00    +0.000 N 
ATOM      9  C   UNL     1       1.520  17.065  20.047  0.00  0.00    +0.000 C 
ATOM     10  C   UNL     1       2.934  17.320  20.507  0.00  0.00    +0.000 C 
ATOM     11  O   UNL     1       0.619  17.752  20.539  0.00  0.00    +0.000 OA
ATOM     12  C   UNL     1       2.221  15.125  18.543  0.00  0.00    +0.000 C 
ENDROOT
BRANCH   2  13
ATOM     13  N   UNL     1       1.354   9.958  18.500  0.00  0.00    +0.000 N 
ATOM     14  C   UNL     1       1.419   9.171  19.639  0.00  0.00    +0.000 C 
ATOM     15  O   UNL     1       1.244   9.592  20.782  0.00  0.00    +0.000 OA
ATOM     16  N   UNL     1       1.736   7.822  19.410  0.00  0.00    +0.000 N 
ATOM     17  C   UNL     1       1.938   7.015  20.621  0.00  0.00    +0.000 C 
ATOM     18  C   UNL     1       2.009   5.490  20.389  0.00  0.00    +0.000 C 
ATOM     19  N   UNL     1       2.786   5.039  19.219  0.00  0.00    +0.000 NA
ATOM     20  C   UNL     1       4.223   5.067  19.470  0.00  0.00    +0.000 C 
ATOM     21  C   UNL     1       2.406   5.830  18.039  0.00  0.00    +0.000 C 
ATOM     22  C   UNL     1       2.464   7.354  18.228  0.00  0.00    +0.000 C 
ATOM     23  H   UNL     1       1.967   9.682  17.751  0.00  0.00    +0.000 HD
ENDBRANCH   2  13
BRANCH   1  24
ATOM     24  C   UNL     1      -1.168  11.444  19.540  0.00  0.00    +0.000 C 
ATOM     25  O   UNL     1      -1.574  11.614  20.691  0.00  0.00    +0.000 OA
BRANCH  24  26
ATOM     26  O   UNL     1      -1.751  10.585  18.652  0.00  0.00    +0.000 OA
BRANCH  26  28
ATOM     27  C   UNL     1      -2.427  10.306  16.383  0.00  0.00    +0.000 C 
ATOM     28  C   UNL     1      -2.464  11.235  17.586  0.00  0.00    +0.000 C 
ENDBRANCH  26  28
ENDBRANCH  24  26
ENDBRANCH   1  24
TORSDOF 4
ENDMDL
MODEL 6
REMARK VINA RESULT:      -5.8      3.419      5.906
REMARK  Name = 
REMARK  7 active torsions:
REMARK  status: ('A' for Active; 'I' for Inactive)
REMARK    1  A    between atoms: C_1  and  C_2
REMARK    2  A    between atoms: C_2  and  O_3
REMARK    3  A    between atoms: O_3  and  C_4
REMARK    4  A    between atoms: C_4  and  C_6
REMARK    5  A    between atoms: C_7  and  N_8
REMARK    6  A    between atoms: N_14  and  C_15
REMARK    7  A    between atoms: C_24  and  C_25
REMARK                            x       y       z     vdW  Elec       q    Type
REMARK                         _______ _______ _______ _____ _____    ______ ____
ROOT
ATOM      1  C   UNL     1       1.089   9.535  20.305  0.00  0.00    +0.000 A 
ATOM      2  C   UNL     1       1.209  10.354  19.192  0.00  0.00    +0.000 A 
ATOM      3  S   UNL     1       1.795   9.529  17.819  0.00  0.00    +0.000 S 
ATOM      4  C   UNL     1       1.988   8.084  18.693  0.00  0.00    +0.000 A 
ATOM      5  C   UNL     1       1.655   8.234  20.027  0.00  0.00    +0.000 A 
ATOM      6  C   UNL     1       1.828   7.090  20.989  0.00  0.00    +0.000 C 
ATOM      7  C   UNL     1       2.750   6.022  20.384  0.00  0.00    +0.000 C 
ATOM      8  N   UNL     1       2.340   5.706  19.004  0.00  0.00    +0.000 N 
ATOM      9  C   UNL     1       1.766   4.474  18.764  0.00  0.00    +0.000 C 
ATOM     10  C   UNL     1       1.342   4.090  17.369  0.00  0.00    +0.000 C 
ATOM     11  O   UNL     1       1.588   3.652  19.670  0.00  0.00    +0.000 OA
ATOM     12  C   UNL     1       2.478   6.817  18.045  0.00  0.00    +0.000 C 
ENDROOT
BRANCH   2  13
ATOM     13  N   UNL     1       0.807  11.680  19.051  0.00  0.00    +0.000 N 
ATOM     14  C   UNL     1       1.716  12.676  18.733  0.00  0.00    +0.000 C 
ATOM     15  O   UNL     1       2.900  12.475  18.466  0.00  0.00    +0.000 OA
ATOM     16  N   UNL     1       1.197  13.982  18.761  0.00  0.00    +0.000 N 
ATOM     17  C   UNL     1       2.185  15.050  18.557  0.00  0.00    +0.000 C 
ATOM     18  C   UNL     1       1.592  16.454  18.309  0.00  0.00    +0.000 C 
ATOM     19  N   UNL     1       0.443  16.839  19.148  0.00  0.00    +0.000 NA
ATOM     20  C   UNL     1       0.854  17.250  20.487  0.00  0.00    +0.000 C 
ATOM     21  C   UNL     1      -0.539  15.746  19.174  0.00  0.00    +0.000 C 
ATOM     22  C   UNL     1       0.026  14.368  19.552  0.00  0.00    +0.000 C 
ATOM     23  H   UNL     1       0.088  11.946  19.703  0.00  0.00    +0.000 HD
ENDBRANCH   2  13
BRANCH   1  24
ATOM     24  C   UNL     1       0.479   9.905  21.579  0.00  0.00    +0.000 C 
ATOM     25  O   UNL     1       1.005   9.681  22.671  0.00  0.00    +0.000 OA
BRANCH  24  26
ATOM     26  O   UNL     1      -0.786  10.401  21.438  0.00  0.00    +0.000 OA
BRANCH  26  28
ATOM     27  C   UNL     1      -1.924  11.568  23.178  0.00  0.00    +0.000 C 
ATOM     28  C   UNL     1      -0.970  11.711  22.004  0.00  0.00    +0.000 C 
ENDBRANCH  26  28
ENDBRANCH  24  26
ENDBRANCH   1  24
TORSDOF 4
ENDMDL
MODEL 7
REMARK VINA RESULT:      -5.7      3.303      8.251
REMARK  Name = 
REMARK  7 active torsions:
REMARK  status: ('A' for Active; 'I' for Inactive)
REMARK    1  A    between atoms: C_1  and  C_2
REMARK    2  A    between atoms: C_2  and  O_3
REMARK    3  A    between atoms: O_3  and  C_4
REMARK    4  A    between atoms: C_4  and  C_6
REMARK    5  A    between atoms: C_7  and  N_8
REMARK    6  A    between atoms: N_14  and  C_15
REMARK    7  A    between atoms: C_24  and  C_25
REMARK                            x       y       z     vdW  Elec       q    Type
REMARK                         _______ _______ _______ _____ _____    ______ ____
ROOT
ATOM      1  C   UNL     1       0.946  10.109  20.617  0.00  0.00    +0.000 A 
ATOM      2  C   UNL     1       1.452   9.116  19.789  0.00  0.00    +0.000 A 
ATOM      3  S   UNL     1       2.048   9.723  18.311  0.00  0.00    +0.000 S 
ATOM      4  C   UNL     1       1.570  11.307  18.695  0.00  0.00    +0.000 A 
ATOM      5  C   UNL     1       0.920  11.373  19.915  0.00  0.00    +0.000 A 
ATOM      6  C   UNL     1       0.350  12.677  20.406  0.00  0.00    +0.000 C 
ATOM      7  C   UNL     1       0.238  13.676  19.246  0.00  0.00    +0.000 C 
ATOM      8  N   UNL     1       1.492  13.720  18.476  0.00  0.00    +0.000 N 
ATOM      9  C   UNL     1       2.274  14.854  18.573  0.00  0.00    +0.000 C 
ATOM     10  C   UNL     1       3.562  14.960  17.794  0.00  0.00    +0.000 C 
ATOM     11  O   UNL     1       1.948  15.809  19.285  0.00  0.00    +0.000 OA
ATOM     12  C   UNL     1       1.837  12.468  17.777  0.00  0.00    +0.000 C 
ENDROOT
BRANCH   2  13
ATOM     13  N   UNL     1       1.625   7.764  20.074  0.00  0.00    +0.000 N 
ATOM     14  C   UNL     1       2.437   6.962  19.289  0.00  0.00    +0.000 C 
ATOM     15  O   UNL     1       3.125   7.375  18.356  0.00  0.00    +0.000 OA
ATOM     16  N   UNL     1       2.407   5.594  19.610  0.00  0.00    +0.000 N 
ATOM     17  C   UNL     1       3.160   4.724  18.697  0.00  0.00    +0.000 C 
ATOM     18  C   UNL     1       3.365   3.276  19.192  0.00  0.00    +0.000 C 
ATOM     19  N   UNL     1       2.204   2.630  19.831  0.00  0.00    +0.000 NA
ATOM     20  C   UNL     1       1.230   2.157  18.853  0.00  0.00    +0.000 C 
ATOM     21  C   UNL     1       1.610   3.545  20.817  0.00  0.00    +0.000 C 
ATOM     22  C   UNL     1       1.281   4.950  20.289  0.00  0.00    +0.000 C 
ATOM     23  H   UNL     1       0.788   7.323  20.419  0.00  0.00    +0.000 HD
ENDBRANCH   2  13
BRANCH   1  24
ATOM     24  C   UNL     1       0.505   9.932  21.997  0.00  0.00    +0.000 C 
ATOM     25  O   UNL     1       1.259   9.588  22.909  0.00  0.00    +0.000 OA
BRANCH  24  26
ATOM     26  O   UNL     1      -0.847  10.059  22.143  0.00  0.00    +0.000 OA
BRANCH  26  28
ATOM     27  C   UNL     1      -2.160  11.925  22.835  0.00  0.00    +0.000 C 
ATOM     28  C   UNL     1      -1.245  10.806  23.306  0.00  0.00    +0.000 C 
ENDBRANCH  26  28
ENDBRANCH  24  26
ENDBRANCH   1  24
TORSDOF 4
ENDMDL
MODEL 8
REMARK VINA RESULT:      -5.7      6.820      9.272
REMARK  Name = 
REMARK  7 active torsions:
REMARK  status: ('A' for Active; 'I' for Inactive)
REMARK    1  A    between atoms: C_1  and  C_2
REMARK    2  A    between atoms: C_2  and  O_3
REMARK    3  A    between atoms: O_3  and  C_4
REMARK    4  A    between atoms: C_4  and  C_6
REMARK    5  A    between atoms: C_7  and  N_8
REMARK    6  A    between atoms: N_14  and  C_15
REMARK    7  A    between atoms: C_24  and  C_25
REMARK                            x       y       z     vdW  Elec       q    Type
REMARK                         _______ _______ _______ _____ _____    ______ ____
ROOT
ATOM      1  C   UNL     1      -0.540  12.565  20.834  0.00  0.00    +0.000 A 
ATOM      2  C   UNL     1      -1.370  13.338  21.634  0.00  0.00    +0.000 A 
ATOM      3  S   UNL     1      -0.896  14.975  21.698  0.00  0.00    +0.000 S 
ATOM      4  C   UNL     1       0.474  14.681  20.737  0.00  0.00    +0.000 A 
ATOM      5  C   UNL     1       0.601  13.344  20.406  0.00  0.00    +0.000 A 
ATOM      6  C   UNL     1       1.791  12.862  19.620  0.00  0.00    +0.000 C 
ATOM      7  C   UNL     1       2.909  13.913  19.654  0.00  0.00    +0.000 C 
ATOM      8  N   UNL     1       2.373  15.250  19.342  0.00  0.00    +0.000 N 
ATOM      9  C   UNL     1       2.710  15.817  18.129  0.00  0.00    +0.000 C 
ATOM     10  C   UNL     1       2.203  17.189  17.764  0.00  0.00    +0.000 C 
ATOM     11  O   UNL     1       3.433  15.231  17.316  0.00  0.00    +0.000 OA
ATOM     12  C   UNL     1       1.416  15.782  20.329  0.00  0.00    +0.000 C 
ENDROOT
BRANCH   2  13
ATOM     13  N   UNL     1      -2.557  12.962  22.258  0.00  0.00    +0.000 N 
ATOM     14  C   UNL     1      -3.767  13.001  21.585  0.00  0.00    +0.000 C 
ATOM     15  O   UNL     1      -3.888  13.273  20.392  0.00  0.00    +0.000 OA
ATOM     16  N   UNL     1      -4.895  12.728  22.378  0.00  0.00    +0.000 N 
ATOM     17  C   UNL     1      -6.188  12.899  21.702  0.00  0.00    +0.000 C 
ATOM     18  C   UNL     1      -7.407  12.341  22.467  0.00  0.00    +0.000 C 
ATOM     19  N   UNL     1      -7.441  12.590  23.920  0.00  0.00    +0.000 NA
ATOM     20  C   UNL     1      -7.868  13.949  24.235  0.00  0.00    +0.000 C 
ATOM     21  C   UNL     1      -6.135  12.261  24.508  0.00  0.00    +0.000 C 
ATOM     22  C   UNL     1      -4.926  12.925  23.829  0.00  0.00    +0.000 C 
ATOM     23  H   UNL     1      -2.594  13.230  23.228  0.00  0.00    +0.000 HD
ENDBRANCH   2  13
BRANCH   1  24
ATOM     24  C   UNL     1      -0.765  11.172  20.459  0.00  0.00    +0.000 C 
ATOM     25  O   UNL     1      -1.176  10.828  19.350  0.00  0.00    +0.000 OA
BRANCH  24  26
ATOM     26  O   UNL     1      -0.598  10.308  21.504  0.00  0.00    +0.000 OA
BRANCH  26  28
ATOM     27  C   UNL     1       0.905   8.463  21.356  0.00  0.00    +0.000 C 
ATOM     28  C   UNL     1       0.770   9.927  21.739  0.00  0.00    +0.000 C 
ENDBRANCH  26  28
ENDBRANCH  24  26
ENDBRANCH   1  24
TORSDOF 4
ENDMDL
MODEL 9
REMARK VINA RESULT:      -5.6      7.711     10.853
REMARK  Name = 
REMARK  7 active torsions:
REMARK  status: ('A' for Active; 'I' for Inactive)
REMARK    1  A    between atoms: C_1  and  C_2
REMARK    2  A    between atoms: C_2  and  O_3
REMARK    3  A    between atoms: O_3  and  C_4
REMARK    4  A    between atoms: C_4  and  C_6
REMARK    5  A    between atoms: C_7  and  N_8
REMARK    6  A    between atoms: N_14  and  C_15
REMARK    7  A    between atoms: C_24  and  C_25
REMARK                            x       y       z     vdW  Elec       q    Type
REMARK                         _______ _______ _______ _____ _____    ______ ____
ROOT
ATOM      1  C   UNL     1      -2.398  12.561  19.616  0.00  0.00    +0.000 A 
ATOM      2  C   UNL     1      -1.812  13.622  20.290  0.00  0.00    +0.000 A 
ATOM      3  S   UNL     1      -2.921  14.495  21.249  0.00  0.00    +0.000 S 
ATOM      4  C   UNL     1      -4.224  13.539  20.723  0.00  0.00    +0.000 A 
ATOM      5  C   UNL     1      -3.833  12.594  19.792  0.00  0.00    +0.000 A 
ATOM      6  C   UNL     1      -4.852  11.694  19.145  0.00  0.00    +0.000 C 
ATOM      7  C   UNL     1      -6.264  12.261  19.345  0.00  0.00    +0.000 C 
ATOM      8  N   UNL     1      -6.475  12.641  20.753  0.00  0.00    +0.000 N 
ATOM      9  C   UNL     1      -7.337  11.871  21.510  0.00  0.00    +0.000 C 
ATOM     10  C   UNL     1      -7.603  12.222  22.952  0.00  0.00    +0.000 C 
ATOM     11  O   UNL     1      -7.917  10.888  21.037  0.00  0.00    +0.000 OA
ATOM     12  C   UNL     1      -5.624  13.744  21.235  0.00  0.00    +0.000 C 
ENDROOT
BRANCH   2  13
ATOM     13  N   UNL     1      -0.463  13.959  20.359  0.00  0.00    +0.000 N 
ATOM     14  C   UNL     1       0.058  14.998  19.605  0.00  0.00    +0.000 C 
ATOM     15  O   UNL     1      -0.615  15.749  18.901  0.00  0.00    +0.000 OA
ATOM     16  N   UNL     1       1.456  15.134  19.669  0.00  0.00    +0.000 N 
ATOM     17  C   UNL     1       2.025  16.145  18.769  0.00  0.00    +0.000 C 
ATOM     18  C   UNL     1       3.506  16.495  19.029  0.00  0.00    +0.000 C 
ATOM     19  N   UNL     1       4.406  15.365  19.324  0.00  0.00    +0.000 NA
ATOM     20  C   UNL     1       4.791  14.640  18.116  0.00  0.00    +0.000 C 
ATOM     21  C   UNL     1       3.789  14.491  20.331  0.00  0.00    +0.000 C 
ATOM     22  C   UNL     1       2.358  14.031  20.008  0.00  0.00    +0.000 C 
ATOM     23  H   UNL     1       0.139  13.158  20.463  0.00  0.00    +0.000 HD
ENDBRANCH   2  13
BRANCH   1  24
ATOM     24  C   UNL     1      -1.693  11.543  18.842  0.00  0.00    +0.000 C 
ATOM     25  O   UNL     1      -0.837  10.799  19.323  0.00  0.00    +0.000 OA
BRANCH  24  26
ATOM     26  O   UNL     1      -1.986  11.593  17.508  0.00  0.00    +0.000 OA
BRANCH  26  28
ATOM     27  C   UNL     1      -2.978  10.436  15.675  0.00  0.00    +0.000 C 
ATOM     28  C   UNL     1      -2.051  10.304  16.872  0.00  0.00    +0.000 C 
ENDBRANCH  26  28
ENDBRANCH  24  26
ENDBRANCH   1  24
TORSDOF 4
ENDMDL
