MODEL 1
REMARK VINA RESULT:      -8.1      0.000      0.000
REMARK  Name = 
REMARK  1 active torsions:
REMARK  status: ('A' for Active; 'I' for Inactive)
REMARK    1  A    between atoms: N_5  and  C_6
REMARK                            x       y       z     vdW  Elec       q    Type
REMARK                         _______ _______ _______ _____ _____    ______ ____
ROOT
ATOM      1  O   UNL     1       1.848   5.894  21.182  0.00  0.00    +0.000 OA
ATOM      2  N   UNL     1       1.949   6.815  20.323  0.00  0.00    +0.000 N 
ATOM      3  N   UNL     1       2.690   6.510  19.268  0.00  0.00    +0.000 NA
ATOM      4  C   UNL     1       2.835   7.384  18.257  0.00  0.00    +0.000 A 
ATOM      5  N   UNL     1       3.554   6.979  17.119  0.00  0.00    +0.000 N 
ATOM      6  N   UNL     1       2.229   8.663  18.327  0.00  0.00    +0.000 N 
ATOM      7  O   UNL     1       2.385   9.504  17.365  0.00  0.00    +0.000 OA
ATOM      8  C   UNL     1       1.474   9.007  19.475  0.00  0.00    +0.000 A 
ATOM      9  C   UNL     1       0.837  10.277  19.644  0.00  0.00    +0.000 A 
ATOM     10  C   UNL     1       0.114  10.541  20.794  0.00  0.00    +0.000 A 
ATOM     11  C   UNL     1      -0.014   9.574  21.798  0.00  0.00    +0.000 A 
ATOM     12  C   UNL     1       0.572   8.330  21.657  0.00  0.00    +0.000 A 
ATOM     13  C   UNL     1       1.326   8.047  20.493  0.00  0.00    +0.000 A 
ATOM     14  C   UNL     1      -0.864  10.061  22.929  0.00  0.00    +0.000 C 
ATOM     15  C   UNL     1      -0.855  11.573  22.681  0.00  0.00    +0.000 C 
ATOM     16  C   UNL     1      -0.664  11.770  21.164  0.00  0.00    +0.000 C 
ATOM     17  H   UNL     1       3.608   7.727  16.424  0.00  0.00    +0.000 HD
ENDROOT
BRANCH   5  18
ATOM     18  C   UNL     1       4.726   6.141  17.362  0.00  0.00    +0.000 C 
ATOM     19  C   UNL     1       6.067   6.864  17.079  0.00  0.00    +0.000 C 
ATOM     20  C   UNL     1       6.776   5.920  16.087  0.00  0.00    +0.000 C 
ATOM     21  C   UNL     1       7.118   4.586  16.780  0.00  0.00    +0.000 C 
ATOM     22  C   UNL     1       5.748   3.904  16.922  0.00  0.00    +0.000 C 
ATOM     23  C   UNL     1       4.783   4.963  16.356  0.00  0.00    +0.000 C 
ATOM     24  C   UNL     1       5.614   5.510  15.190  0.00  0.00    +0.000 C 
ENDBRANCH   5  18
TORSDOF 1
ENDMDL
MODEL 2
REMARK VINA RESULT:      -7.9      2.957      4.354
REMARK  Name = 
REMARK  1 active torsions:
REMARK  status: ('A' for Active; 'I' for Inactive)
REMARK    1  A    between atoms: N_5  and  C_6
REMARK                            x       y       z     vdW  Elec       q    Type
REMARK                         _______ _______ _______ _____ _____    ______ ____
ROOT
ATOM      1  O   UNL     1       2.439   8.721  17.231  0.00  0.00    +0.000 OA
ATOM      2  N   UNL     1       2.022   8.645  18.421  0.00  0.00    +0.000 N 
ATOM      3  N   UNL     1       2.249   7.482  19.015  0.00  0.00    +0.000 NA
ATOM      4  C   UNL     1       1.900   7.289  20.299  0.00  0.00    +0.000 A 
ATOM      5  N   UNL     1       2.245   6.071  20.911  0.00  0.00    +0.000 N 
ATOM      6  N   UNL     1       1.245   8.316  21.023  0.00  0.00    +0.000 N 
ATOM      7  O   UNL     1       0.897   8.121  22.247  0.00  0.00    +0.000 OA
ATOM      8  C   UNL     1       0.962   9.544  20.376  0.00  0.00    +0.000 A 
ATOM      9  C   UNL     1       0.293  10.634  21.018  0.00  0.00    +0.000 A 
ATOM     10  C   UNL     1       0.052  11.805  20.321  0.00  0.00    +0.000 A 
ATOM     11  C   UNL     1       0.463  11.945  18.990  0.00  0.00    +0.000 A 
ATOM     12  C   UNL     1       1.129  10.918  18.346  0.00  0.00    +0.000 A 
ATOM     13  C   UNL     1       1.374   9.709  19.040  0.00  0.00    +0.000 A 
ATOM     14  C   UNL     1       0.131  13.299  18.448  0.00  0.00    +0.000 C 
ATOM     15  C   UNL     1      -0.912  13.780  19.463  0.00  0.00    +0.000 C 
ATOM     16  C   UNL     1      -0.586  13.077  20.797  0.00  0.00    +0.000 C 
ATOM     17  H   UNL     1       1.920   6.034  21.880  0.00  0.00    +0.000 HD
ENDROOT
BRANCH   5  18
ATOM     18  C   UNL     1       2.142   4.878  20.074  0.00  0.00    +0.000 C 
ATOM     19  C   UNL     1       0.785   4.145  20.215  0.00  0.00    +0.000 C 
ATOM     20  C   UNL     1       1.197   2.702  20.572  0.00  0.00    +0.000 C 
ATOM     21  C   UNL     1       1.940   2.056  19.385  0.00  0.00    +0.000 C 
ATOM     22  C   UNL     1       3.301   2.772  19.394  0.00  0.00    +0.000 C 
ATOM     23  C   UNL     1       3.141   3.788  20.540  0.00  0.00    +0.000 C 
ATOM     24  C   UNL     1       2.340   2.956  21.548  0.00  0.00    +0.000 C 
ENDBRANCH   5  18
TORSDOF 1
ENDMDL
MODEL 3
REMARK VINA RESULT:      -7.8      0.932      1.216
REMARK  Name = 
REMARK  1 active torsions:
REMARK  status: ('A' for Active; 'I' for Inactive)
REMARK    1  A    between atoms: N_5  and  C_6
REMARK                            x       y       z     vdW  Elec       q    Type
REMARK                         _______ _______ _______ _____ _____    ______ ____
ROOT
ATOM      1  O   UNL     1       2.084   5.214  21.161  0.00  0.00    +0.000 OA
ATOM      2  N   UNL     1       2.219   6.123  20.293  0.00  0.00    +0.000 N 
ATOM      3  N   UNL     1       2.976   5.791  19.258  0.00  0.00    +0.000 NA
ATOM      4  C   UNL     1       3.156   6.650  18.238  0.00  0.00    +0.000 A 
ATOM      5  N   UNL     1       3.892   6.217  17.121  0.00  0.00    +0.000 N 
ATOM      6  N   UNL     1       2.572   7.939  18.280  0.00  0.00    +0.000 N 
ATOM      7  O   UNL     1       2.763   8.766  17.311  0.00  0.00    +0.000 OA
ATOM      8  C   UNL     1       1.800   8.311  19.408  0.00  0.00    +0.000 A 
ATOM      9  C   UNL     1       1.182   9.594  19.548  0.00  0.00    +0.000 A 
ATOM     10  C   UNL     1       0.440   9.886  20.679  0.00  0.00    +0.000 A 
ATOM     11  C   UNL     1       0.275   8.934  21.692  0.00  0.00    +0.000 A 
ATOM     12  C   UNL     1       0.842   7.678  21.579  0.00  0.00    +0.000 A 
ATOM     13  C   UNL     1       1.614   7.367  20.434  0.00  0.00    +0.000 A 
ATOM     14  C   UNL     1      -0.590   9.450  22.799  0.00  0.00    +0.000 C 
ATOM     15  C   UNL     1      -0.549  10.959  22.533  0.00  0.00    +0.000 C 
ATOM     16  C   UNL     1      -0.324  11.132  21.017  0.00  0.00    +0.000 C 
ATOM     17  H   UNL     1       3.973   6.955  16.418  0.00  0.00    +0.000 HD
ENDROOT
BRANCH   5  18
ATOM     18  C   UNL     1       5.044   5.363  17.399  0.00  0.00    +0.000 C 
ATOM     19  C   UNL     1       5.701   5.646  18.773  0.00  0.00    +0.000 C 
ATOM     20  C   UNL     1       7.179   5.905  18.411  0.00  0.00    +0.000 C 
ATOM     21  C   UNL     1       7.820   4.616  17.859  0.00  0.00    +0.000 C 
ATOM     22  C   UNL     1       7.186   4.479  16.466  0.00  0.00    +0.000 C 
ATOM     23  C   UNL     1       6.207   5.668  16.421  0.00  0.00    +0.000 C 
ATOM     24  C   UNL     1       7.030   6.740  17.145  0.00  0.00    +0.000 C 
ENDBRANCH   5  18
TORSDOF 1
ENDMDL
MODEL 4
REMARK VINA RESULT:      -7.5      2.183      3.700
REMARK  Name = 
REMARK  1 active torsions:
REMARK  status: ('A' for Active; 'I' for Inactive)
REMARK    1  A    between atoms: N_5  and  C_6
REMARK                            x       y       z     vdW  Elec       q    Type
REMARK                         _______ _______ _______ _____ _____    ______ ____
ROOT
ATOM      1  O   UNL     1       2.164   9.339  17.075  0.00  0.00    +0.000 OA
ATOM      2  N   UNL     1       1.845   8.954  18.235  0.00  0.00    +0.000 N 
ATOM      3  N   UNL     1       2.309   7.758  18.569  0.00  0.00    +0.000 NA
ATOM      4  C   UNL     1       2.084   7.254  19.795  0.00  0.00    +0.000 A 
ATOM      5  N   UNL     1       2.675   6.023  20.132  0.00  0.00    +0.000 N 
ATOM      6  N   UNL     1       1.310   7.980  20.734  0.00  0.00    +0.000 N 
ATOM      7  O   UNL     1       1.082   7.486  21.901  0.00  0.00    +0.000 OA
ATOM      8  C   UNL     1       0.777   9.238  20.363  0.00  0.00    +0.000 A 
ATOM      9  C   UNL     1      -0.027  10.038  21.235  0.00  0.00    +0.000 A 
ATOM     10  C   UNL     1      -0.513  11.260  20.802  0.00  0.00    +0.000 A 
ATOM     11  C   UNL     1      -0.221  11.733  19.517  0.00  0.00    +0.000 A 
ATOM     12  C   UNL     1       0.569  10.994  18.657  0.00  0.00    +0.000 A 
ATOM     13  C   UNL     1       1.065   9.737  19.079  0.00  0.00    +0.000 A 
ATOM     14  C   UNL     1      -0.818  13.084  19.277  0.00  0.00    +0.000 C 
ATOM     15  C   UNL     1      -1.859  13.155  20.399  0.00  0.00    +0.000 C 
ATOM     16  C   UNL     1      -1.329  12.274  21.549  0.00  0.00    +0.000 C 
ATOM     17  H   UNL     1       2.425   5.736  21.081  0.00  0.00    +0.000 HD
ENDROOT
BRANCH   5  18
ATOM     18  C   UNL     1       2.725   5.021  19.071  0.00  0.00    +0.000 C 
ATOM     19  C   UNL     1       1.461   4.128  19.008  0.00  0.00    +0.000 C 
ATOM     20  C   UNL     1       2.034   2.698  19.085  0.00  0.00    +0.000 C 
ATOM     21  C   UNL     1       2.866   2.393  17.824  0.00  0.00    +0.000 C 
ATOM     22  C   UNL     1       4.133   3.239  18.028  0.00  0.00    +0.000 C 
ATOM     23  C   UNL     1       3.838   3.978  19.348  0.00  0.00    +0.000 C 
ATOM     24  C   UNL     1       3.123   2.874  20.137  0.00  0.00    +0.000 C 
ENDBRANCH   5  18
TORSDOF 1
ENDMDL
MODEL 5
REMARK VINA RESULT:      -7.4      2.661      4.274
REMARK  Name = 
REMARK  1 active torsions:
REMARK  status: ('A' for Active; 'I' for Inactive)
REMARK    1  A    between atoms: N_5  and  C_6
REMARK                            x       y       z     vdW  Elec       q    Type
REMARK                         _______ _______ _______ _____ _____    ______ ____
ROOT
ATOM      1  O   UNL     1      -0.615  10.270  18.090  0.00  0.00    +0.000 OA
ATOM      2  N   UNL     1      -0.255  10.089  19.287  0.00  0.00    +0.000 N 
ATOM      3  N   UNL     1       0.576   9.073  19.468  0.00  0.00    +0.000 NA
ATOM      4  C   UNL     1       1.075   8.806  20.688  0.00  0.00    +0.000 A 
ATOM      5  N   UNL     1       2.024   7.775  20.812  0.00  0.00    +0.000 N 
ATOM      6  N   UNL     1       0.685   9.584  21.805  0.00  0.00    +0.000 N 
ATOM      7  O   UNL     1       1.151   9.314  22.975  0.00  0.00    +0.000 OA
ATOM      8  C   UNL     1      -0.237  10.643  21.620  0.00  0.00    +0.000 A 
ATOM      9  C   UNL     1      -0.702  11.475  22.688  0.00  0.00    +0.000 A 
ATOM     10  C   UNL     1      -1.604  12.492  22.430  0.00  0.00    +0.000 A 
ATOM     11  C   UNL     1      -2.066  12.728  21.130  0.00  0.00    +0.000 A 
ATOM     12  C   UNL     1      -1.622  11.955  20.073  0.00  0.00    +0.000 A 
ATOM     13  C   UNL     1      -0.708  10.902  20.320  0.00  0.00    +0.000 A 
ATOM     14  C   UNL     1      -3.003  13.893  21.079  0.00  0.00    +0.000 C 
ATOM     15  C   UNL     1      -3.382  14.037  22.557  0.00  0.00    +0.000 C 
ATOM     16  C   UNL     1      -2.187  13.504  23.373  0.00  0.00    +0.000 C 
ATOM     17  H   UNL     1       2.322   7.656  21.783  0.00  0.00    +0.000 HD
ENDROOT
BRANCH   5  18
ATOM     18  C   UNL     1       1.805   6.594  19.980  0.00  0.00    +0.000 C 
ATOM     19  C   UNL     1       1.889   5.263  20.768  0.00  0.00    +0.000 C 
ATOM     20  C   UNL     1       2.940   4.452  19.983  0.00  0.00    +0.000 C 
ATOM     21  C   UNL     1       2.404   4.113  18.578  0.00  0.00    +0.000 C 
ATOM     22  C   UNL     1       2.456   5.465  17.848  0.00  0.00    +0.000 C 
ATOM     23  C   UNL     1       2.949   6.425  18.948  0.00  0.00    +0.000 C 
ATOM     24  C   UNL     1       3.968   5.532  19.667  0.00  0.00    +0.000 C 
ENDBRANCH   5  18
TORSDOF 1
ENDMDL
MODEL 6
REMARK VINA RESULT:      -7.3      1.590      3.289
REMARK  Name = 
REMARK  1 active torsions:
REMARK  status: ('A' for Active; 'I' for Inactive)
REMARK    1  A    between atoms: N_5  and  C_6
REMARK                            x       y       z     vdW  Elec       q    Type
REMARK                         _______ _______ _______ _____ _____    ______ ____
ROOT
ATOM      1  O   UNL     1       2.056  10.181  17.271  0.00  0.00    +0.000 OA
ATOM      2  N   UNL     1       1.742   9.612  18.354  0.00  0.00    +0.000 N 
ATOM      3  N   UNL     1       2.303   8.426  18.540  0.00  0.00    +0.000 NA
ATOM      4  C   UNL     1       2.093   7.739  19.676  0.00  0.00    +0.000 A 
ATOM      5  N   UNL     1       2.783   6.528  19.864  0.00  0.00    +0.000 N 
ATOM      6  N   UNL     1       1.232   8.257  20.674  0.00  0.00    +0.000 N 
ATOM      7  O   UNL     1       1.018   7.588  21.754  0.00  0.00    +0.000 OA
ATOM      8  C   UNL     1       0.596   9.504  20.458  0.00  0.00    +0.000 A 
ATOM      9  C   UNL     1      -0.300  10.103  21.400  0.00  0.00    +0.000 A 
ATOM     10  C   UNL     1      -0.883  11.326  21.119  0.00  0.00    +0.000 A 
ATOM     11  C   UNL     1      -0.601  11.997  19.923  0.00  0.00    +0.000 A 
ATOM     12  C   UNL     1       0.275  11.456  19.001  0.00  0.00    +0.000 A 
ATOM     13  C   UNL     1       0.872  10.200  19.266  0.00  0.00    +0.000 A 
ATOM     14  C   UNL     1      -1.311  13.312  19.847  0.00  0.00    +0.000 C 
ATOM     15  C   UNL     1      -2.384  13.136  20.927  0.00  0.00    +0.000 C 
ATOM     16  C   UNL     1      -1.807  12.152  21.965  0.00  0.00    +0.000 C 
ATOM     17  H   UNL     1       2.536   6.092  20.755  0.00  0.00    +0.000 HD
ENDROOT
BRANCH   5  18
ATOM     18  C   UNL     1       2.953   5.692  18.679  0.00  0.00    +0.000 C 
ATOM     19  C   UNL     1       2.472   4.234  18.882  0.00  0.00    +0.000 C 
ATOM     20  C   UNL     1       3.705   3.396  18.485  0.00  0.00    +0.000 C 
ATOM     21  C   UNL     1       4.000   3.570  16.982  0.00  0.00    +0.000 C 
ATOM     22  C   UNL     1       4.563   4.998  16.899  0.00  0.00    +0.000 C 
ATOM     23  C   UNL     1       4.455   5.489  18.355  0.00  0.00    +0.000 C 
ATOM     24  C   UNL     1       4.829   4.211  19.114  0.00  0.00    +0.000 C 
ENDBRANCH   5  18
TORSDOF 1
ENDMDL
MODEL 7
REMARK VINA RESULT:      -7.1      2.545      4.168
REMARK  Name = 
REMARK  1 active torsions:
REMARK  status: ('A' for Active; 'I' for Inactive)
REMARK    1  A    between atoms: N_5  and  C_6
REMARK                            x       y       z     vdW  Elec       q    Type
REMARK                         _______ _______ _______ _____ _____    ______ ____
ROOT
ATOM      1  O   UNL     1       1.956   9.786  17.361  0.00  0.00    +0.000 OA
ATOM      2  N   UNL     1       1.637   9.607  18.570  0.00  0.00    +0.000 N 
ATOM      3  N   UNL     1       1.842   8.378  19.021  0.00  0.00    +0.000 NA
ATOM      4  C   UNL     1       1.592   8.069  20.306  0.00  0.00    +0.000 A 
ATOM      5  N   UNL     1       1.913   6.777  20.758  0.00  0.00    +0.000 N 
ATOM      6  N   UNL     1       1.065   9.046  21.185  0.00  0.00    +0.000 N 
ATOM      7  O   UNL     1       0.810   8.741  22.410  0.00  0.00    +0.000 OA
ATOM      8  C   UNL     1       0.804  10.348  20.693  0.00  0.00    +0.000 A 
ATOM      9  C   UNL     1       0.259  11.398  21.499  0.00  0.00    +0.000 A 
ATOM     10  C   UNL     1       0.032  12.647  20.948  0.00  0.00    +0.000 A 
ATOM     11  C   UNL     1       0.337  12.905  19.607  0.00  0.00    +0.000 A 
ATOM     12  C   UNL     1       0.882  11.919  18.806  0.00  0.00    +0.000 A 
ATOM     13  C   UNL     1       1.110  10.631  19.349  0.00  0.00    +0.000 A 
ATOM     14  C   UNL     1       0.043  14.324  19.236  0.00  0.00    +0.000 C 
ATOM     15  C   UNL     1      -0.878  14.749  20.385  0.00  0.00    +0.000 C 
ATOM     16  C   UNL     1      -0.484  13.893  21.606  0.00  0.00    +0.000 C 
ATOM     17  H   UNL     1       1.669   6.654  21.744  0.00  0.00    +0.000 HD
ENDROOT
BRANCH   5  18
ATOM     18  C   UNL     1       1.667   5.685  19.818  0.00  0.00    +0.000 C 
ATOM     19  C   UNL     1       1.198   4.378  20.505  0.00  0.00    +0.000 C 
ATOM     20  C   UNL     1       2.205   3.328  19.991  0.00  0.00    +0.000 C 
ATOM     21  C   UNL     1       2.032   3.130  18.472  0.00  0.00    +0.000 C 
ATOM     22  C   UNL     1       2.615   4.424  17.881  0.00  0.00    +0.000 C 
ATOM     23  C   UNL     1       2.985   5.233  19.139  0.00  0.00    +0.000 C 
ATOM     24  C   UNL     1       3.508   4.116  20.051  0.00  0.00    +0.000 C 
ENDBRANCH   5  18
TORSDOF 1
ENDMDL
MODEL 8
REMARK VINA RESULT:      -7.1      3.621      9.136
REMARK  Name = 
REMARK  1 active torsions:
REMARK  status: ('A' for Active; 'I' for Inactive)
REMARK    1  A    between atoms: N_5  and  C_6
REMARK                            x       y       z     vdW  Elec       q    Type
REMARK                         _______ _______ _______ _____ _____    ______ ____
ROOT
ATOM      1  O   UNL     1       0.188   9.422  23.734  0.00  0.00    +0.000 OA
ATOM      2  N   UNL     1       0.127  10.118  22.681  0.00  0.00    +0.000 N 
ATOM      3  N   UNL     1      -0.474  11.290  22.826  0.00  0.00    +0.000 NA
ATOM      4  C   UNL     1      -0.558  12.149  21.794  0.00  0.00    +0.000 A 
ATOM      5  N   UNL     1      -1.124  13.416  22.022  0.00  0.00    +0.000 N 
ATOM      6  N   UNL     1      -0.041  11.792  20.525  0.00  0.00    +0.000 N 
ATOM      7  O   UNL     1      -0.140  12.610  19.535  0.00  0.00    +0.000 OA
ATOM      8  C   UNL     1       0.563  10.522  20.358  0.00  0.00    +0.000 A 
ATOM      9  C   UNL     1       1.102  10.066  19.113  0.00  0.00    +0.000 A 
ATOM     10  C   UNL     1       1.678   8.811  19.026  0.00  0.00    +0.000 A 
ATOM     11  C   UNL     1       1.752   7.977  20.148  0.00  0.00    +0.000 A 
ATOM     12  C   UNL     1       1.259   8.394  21.370  0.00  0.00    +0.000 A 
ATOM     13  C   UNL     1       0.655   9.671  21.475  0.00  0.00    +0.000 A 
ATOM     14  C   UNL     1       2.443   6.688  19.834  0.00  0.00    +0.000 C 
ATOM     15  C   UNL     1       2.372   6.675  18.303  0.00  0.00    +0.000 C 
ATOM     16  C   UNL     1       2.337   8.149  17.852  0.00  0.00    +0.000 C 
ATOM     17  H   UNL     1      -1.145  13.975  21.167  0.00  0.00    +0.000 HD
ENDROOT
BRANCH   5  18
ATOM     18  C   UNL     1      -2.265  13.458  22.934  0.00  0.00    +0.000 C 
ATOM     19  C   UNL     1      -3.569  12.901  22.312  0.00  0.00    +0.000 C 
ATOM     20  C   UNL     1      -4.577  14.052  22.513  0.00  0.00    +0.000 C 
ATOM     21  C   UNL     1      -4.845  14.261  24.017  0.00  0.00    +0.000 C 
ATOM     22  C   UNL     1      -3.543  14.906  24.519  0.00  0.00    +0.000 C 
ATOM     23  C   UNL     1      -2.664  14.921  23.253  0.00  0.00    +0.000 C 
ATOM     24  C   UNL     1      -3.710  15.262  22.185  0.00  0.00    +0.000 C 
ENDBRANCH   5  18
TORSDOF 1
ENDMDL
MODEL 9
REMARK VINA RESULT:      -7.0      0.919      2.672
REMARK  Name = 
REMARK  1 active torsions:
REMARK  status: ('A' for Active; 'I' for Inactive)
REMARK    1  A    between atoms: N_5  and  C_6
REMARK                            x       y       z     vdW  Elec       q    Type
REMARK                         _______ _______ _______ _____ _____    ______ ____
ROOT
ATOM      1  O   UNL     1       2.365  10.221  17.440  0.00  0.00    +0.000 OA
ATOM      2  N   UNL     1       2.209   9.348  18.340  0.00  0.00    +0.000 N 
ATOM      3  N   UNL     1       2.879   8.223  18.142  0.00  0.00    +0.000 NA
ATOM      4  C   UNL     1       2.841   7.233  19.052  0.00  0.00    +0.000 A 
ATOM      5  N   UNL     1       3.641   6.097  18.841  0.00  0.00    +0.000 N 
ATOM      6  N   UNL     1       2.046   7.367  20.217  0.00  0.00    +0.000 N 
ATOM      7  O   UNL     1       1.997   6.410  21.078  0.00  0.00    +0.000 OA
ATOM      8  C   UNL     1       1.294   8.551  20.408  0.00  0.00    +0.000 A 
ATOM      9  C   UNL     1       0.452   8.773  21.544  0.00  0.00    +0.000 A 
ATOM     10  C   UNL     1      -0.252   9.958  21.663  0.00  0.00    +0.000 A 
ATOM     11  C   UNL     1      -0.147  10.956  20.686  0.00  0.00    +0.000 A 
ATOM     12  C   UNL     1       0.672  10.782  19.586  0.00  0.00    +0.000 A 
ATOM     13  C   UNL     1       1.391   9.570  19.442  0.00  0.00    +0.000 A 
ATOM     14  C   UNL     1      -0.964  12.159  21.035  0.00  0.00    +0.000 C 
ATOM     15  C   UNL     1      -1.905  11.584  22.100  0.00  0.00    +0.000 C 
ATOM     16  C   UNL     1      -1.149  10.421  22.773  0.00  0.00    +0.000 C 
ATOM     17  H   UNL     1       3.521   5.410  19.589  0.00  0.00    +0.000 HD
ENDROOT
BRANCH   5  18
ATOM     18  C   UNL     1       3.757   5.638  17.458  0.00  0.00    +0.000 C 
ATOM     19  C   UNL     1       3.634   4.101  17.309  0.00  0.00    +0.000 C 
ATOM     20  C   UNL     1       4.917   3.716  16.546  0.00  0.00    +0.000 C 
ATOM     21  C   UNL     1       4.885   4.313  15.125  0.00  0.00    +0.000 C 
ATOM     22  C   UNL     1       5.117   5.812  15.370  0.00  0.00    +0.000 C 
ATOM     23  C   UNL     1       5.182   5.898  16.907  0.00  0.00    +0.000 C 
ATOM     24  C   UNL     1       5.946   4.608  17.230  0.00  0.00    +0.000 C 
ENDBRANCH   5  18
TORSDOF 1
ENDMDL
