MODEL 1
REMARK VINA RESULT:      -6.9      0.000      0.000
REMARK  Name = 
REMARK  5 active torsions:
REMARK  status: ('A' for Active; 'I' for Inactive)
REMARK    1  A    between atoms: C_1  and  C_2
REMARK    2  A    between atoms: N_4  and  C_5
REMARK    3  A    between atoms: C_12  and  O_13
REMARK    4  A    between atoms: C_14  and  C_15
REMARK    5  A    between atoms: N_16  and  C_17
REMARK                            x       y       z     vdW  Elec       q    Type
REMARK                         _______ _______ _______ _____ _____    ______ ____
ROOT
ATOM      1  C   UNL     1       0.045   9.159  23.094  0.00  0.00    +0.000 C 
ATOM      2  C   UNL     1       0.536   9.775  21.837  0.00  0.00    +0.000 A 
ATOM      3  N   UNL     1       0.584  11.110  21.699  0.00  0.00    +0.000 NA
ATOM      4  N   UNL     1       0.929  11.308  20.401  0.00  0.00    +0.000 N 
ATOM      5  C   UNL     1       1.281  10.120  19.776  0.00  0.00    +0.000 A 
ATOM      6  C   UNL     1       1.030   9.114  20.685  0.00  0.00    +0.000 A 
ENDROOT
BRANCH   4   7
ATOM      7  C   UNL     1       0.864  12.611  19.833  0.00  0.00    +0.000 A 
ATOM      8  C   UNL     1       1.967  13.467  19.942  0.00  0.00    +0.000 A 
ATOM      9  C   UNL     1       1.897  14.760  19.414  0.00  0.00    +0.000 A 
ATOM     10  C   UNL     1       0.717  15.208  18.822  0.00  0.00    +0.000 A 
ATOM     11 CL   UNL     1       0.610  16.822  18.242  0.00  0.00    +0.000 Cl
ATOM     12  C   UNL     1      -0.385  14.361  18.717  0.00  0.00    +0.000 A 
ATOM     13  C   UNL     1      -0.312  13.056  19.211  0.00  0.00    +0.000 A 
ENDBRANCH   4   7
BRANCH   5  14
ATOM     14  O   UNL     1       1.815  10.021  18.554  0.00  0.00    +0.000 OA
ATOM     15  H   UNL     1       2.404  10.779  18.391  0.00  0.00    +0.000 HD
ENDBRANCH   5  14
BRANCH   6  16
ATOM     16  C   UNL     1       1.293   7.722  20.426  0.00  0.00    +0.000 C 
ATOM     17  N   UNL     1       2.352   7.371  19.794  0.00  0.00    +0.000 NA
BRANCH  17  18
ATOM     18  C   UNL     1       2.483   5.928  19.519  0.00  0.00    +0.000 C 
ATOM     19  C   UNL     1       1.588   5.064  20.435  0.00  0.00    +0.000 C 
ATOM     20  N   UNL     1       1.726   3.640  20.081  0.00  0.00    +0.000 NA
ATOM     21  C   UNL     1       1.303   3.434  18.697  0.00  0.00    +0.000 C 
ATOM     22  N   UNL     1       2.138   4.199  17.773  0.00  0.00    +0.000 NA
ATOM     23  C   UNL     1       3.525   3.764  17.932  0.00  0.00    +0.000 C 
ATOM     24  N   UNL     1       3.989   3.979  19.302  0.00  0.00    +0.000 NA
ATOM     25  C   UNL     1       3.124   3.227  20.211  0.00  0.00    +0.000 C 
ATOM     26  C   UNL     1       3.934   5.416  19.625  0.00  0.00    +0.000 C 
ATOM     27  C   UNL     1       2.026   5.641  18.070  0.00  0.00    +0.000 C 
ENDBRANCH  17  18
ENDBRANCH   6  16
TORSDOF 4
ENDMDL
MODEL 2
REMARK VINA RESULT:      -6.9      0.211      1.437
REMARK  Name = 
REMARK  5 active torsions:
REMARK  status: ('A' for Active; 'I' for Inactive)
REMARK    1  A    between atoms: C_1  and  C_2
REMARK    2  A    between atoms: N_4  and  C_5
REMARK    3  A    between atoms: C_12  and  O_13
REMARK    4  A    between atoms: C_14  and  C_15
REMARK    5  A    between atoms: N_16  and  C_17
REMARK                            x       y       z     vdW  Elec       q    Type
REMARK                         _______ _______ _______ _____ _____    ______ ____
ROOT
ATOM      1  C   UNL     1       0.155   9.244  23.198  0.00  0.00    +0.000 C 
ATOM      2  C   UNL     1       0.600   9.838  21.914  0.00  0.00    +0.000 A 
ATOM      3  N   UNL     1       0.665  11.171  21.760  0.00  0.00    +0.000 NA
ATOM      4  N   UNL     1       0.955  11.350  20.446  0.00  0.00    +0.000 N 
ATOM      5  C   UNL     1       1.259  10.149  19.818  0.00  0.00    +0.000 A 
ATOM      6  C   UNL     1       1.031   9.157  20.749  0.00  0.00    +0.000 A 
ENDROOT
BRANCH   4   7
ATOM      7  C   UNL     1       0.888  12.647  19.866  0.00  0.00    +0.000 A 
ATOM      8  C   UNL     1       2.072  13.324  19.550  0.00  0.00    +0.000 A 
ATOM      9  C   UNL     1       2.013  14.613  19.011  0.00  0.00    +0.000 A 
ATOM     10  C   UNL     1       0.778  15.237  18.832  0.00  0.00    +0.000 A 
ATOM     11 CL   UNL     1       0.713  16.849  18.239  0.00  0.00    +0.000 Cl
ATOM     12  C   UNL     1      -0.402  14.568  19.150  0.00  0.00    +0.000 A 
ATOM     13  C   UNL     1      -0.353  13.267  19.657  0.00  0.00    +0.000 A 
ENDBRANCH   4   7
BRANCH   5  14
ATOM     14  O   UNL     1       1.737  10.028  18.575  0.00  0.00    +0.000 OA
ATOM     15  H   UNL     1       1.056   9.639  17.999  0.00  0.00    +0.000 HD
ENDBRANCH   5  14
BRANCH   6  16
ATOM     16  C   UNL     1       1.259   7.757  20.494  0.00  0.00    +0.000 C 
ATOM     17  N   UNL     1       2.260   7.385  19.786  0.00  0.00    +0.000 NA
BRANCH  17  18
ATOM     18  C   UNL     1       2.354   5.935  19.527  0.00  0.00    +0.000 C 
ATOM     19  C   UNL     1       1.936   5.560  18.088  0.00  0.00    +0.000 C 
ATOM     20  N   UNL     1       2.095   4.110  17.875  0.00  0.00    +0.000 NA
ATOM     21  C   UNL     1       3.497   3.738  18.059  0.00  0.00    +0.000 C 
ATOM     22  N   UNL     1       3.945   4.035  19.419  0.00  0.00    +0.000 NA
ATOM     23  C   UNL     1       3.112   3.285  20.357  0.00  0.00    +0.000 C 
ATOM     24  N   UNL     1       1.703   3.652  20.216  0.00  0.00    +0.000 NA
ATOM     25  C   UNL     1       1.282   3.372  18.843  0.00  0.00    +0.000 C 
ATOM     26  C   UNL     1       1.530   5.085  20.516  0.00  0.00    +0.000 C 
ATOM     27  C   UNL     1       3.824   5.483  19.683  0.00  0.00    +0.000 C 
ENDBRANCH  17  18
ENDBRANCH   6  16
TORSDOF 4
ENDMDL
MODEL 3
REMARK VINA RESULT:      -6.9      0.185      1.450
REMARK  Name = 
REMARK  5 active torsions:
REMARK  status: ('A' for Active; 'I' for Inactive)
REMARK    1  A    between atoms: C_1  and  C_2
REMARK    2  A    between atoms: N_4  and  C_5
REMARK    3  A    between atoms: C_12  and  O_13
REMARK    4  A    between atoms: C_14  and  C_15
REMARK    5  A    between atoms: N_16  and  C_17
REMARK                            x       y       z     vdW  Elec       q    Type
REMARK                         _______ _______ _______ _____ _____    ______ ____
ROOT
ATOM      1  C   UNL     1       0.103   9.236  23.122  0.00  0.00    +0.000 C 
ATOM      2  C   UNL     1       0.567   9.845  21.851  0.00  0.00    +0.000 A 
ATOM      3  N   UNL     1       0.605  11.180  21.703  0.00  0.00    +0.000 NA
ATOM      4  N   UNL     1       0.924  11.370  20.397  0.00  0.00    +0.000 N 
ATOM      5  C   UNL     1       1.270  10.179  19.773  0.00  0.00    +0.000 A 
ATOM      6  C   UNL     1       1.042   9.179  20.694  0.00  0.00    +0.000 A 
ENDROOT
BRANCH   4   7
ATOM      7  C   UNL     1       0.842  12.668  19.821  0.00  0.00    +0.000 A 
ATOM      8  C   UNL     1       2.016  13.396  19.589  0.00  0.00    +0.000 A 
ATOM      9  C   UNL     1       1.939  14.686  19.054  0.00  0.00    +0.000 A 
ATOM     10  C   UNL     1       0.695  15.259  18.794  0.00  0.00    +0.000 A 
ATOM     11 CL   UNL     1       0.603  16.872  18.206  0.00  0.00    +0.000 Cl
ATOM     12  C   UNL     1      -0.475  14.540  19.028  0.00  0.00    +0.000 A 
ATOM     13  C   UNL     1      -0.406  13.239  19.531  0.00  0.00    +0.000 A 
ENDBRANCH   4   7
BRANCH   5  14
ATOM     14  O   UNL     1       1.781  10.074  18.542  0.00  0.00    +0.000 OA
ATOM     15  H   UNL     1       2.734   9.887  18.598  0.00  0.00    +0.000 HD
ENDBRANCH   5  14
BRANCH   6  16
ATOM     16  C   UNL     1       1.306   7.786  20.440  0.00  0.00    +0.000 C 
ATOM     17  N   UNL     1       2.300   7.441  19.707  0.00  0.00    +0.000 NA
BRANCH  17  18
ATOM     18  C   UNL     1       2.432   5.993  19.452  0.00  0.00    +0.000 C 
ATOM     19  C   UNL     1       3.883   5.491  19.615  0.00  0.00    +0.000 C 
ATOM     20  N   UNL     1       3.944   4.034  19.395  0.00  0.00    +0.000 NA
ATOM     21  C   UNL     1       3.107   3.354  20.382  0.00  0.00    +0.000 C 
ATOM     22  N   UNL     1       1.708   3.761  20.256  0.00  0.00    +0.000 NA
ATOM     23  C   UNL     1       1.248   3.427  18.909  0.00  0.00    +0.000 C 
ATOM     24  N   UNL     1       2.049   4.111  17.895  0.00  0.00    +0.000 NA
ATOM     25  C   UNL     1       3.448   3.712  18.057  0.00  0.00    +0.000 C 
ATOM     26  C   UNL     1       1.919   5.571  18.061  0.00  0.00    +0.000 C 
ATOM     27  C   UNL     1       1.584   5.214  20.484  0.00  0.00    +0.000 C 
ENDBRANCH  17  18
ENDBRANCH   6  16
TORSDOF 4
ENDMDL
MODEL 4
REMARK VINA RESULT:      -6.8      0.933      1.788
REMARK  Name = 
REMARK  5 active torsions:
REMARK  status: ('A' for Active; 'I' for Inactive)
REMARK    1  A    between atoms: C_1  and  C_2
REMARK    2  A    between atoms: N_4  and  C_5
REMARK    3  A    between atoms: C_12  and  O_13
REMARK    4  A    between atoms: C_14  and  C_15
REMARK    5  A    between atoms: N_16  and  C_17
REMARK                            x       y       z     vdW  Elec       q    Type
REMARK                         _______ _______ _______ _____ _____    ______ ____
ROOT
ATOM      1  C   UNL     1       0.437   8.504  21.867  0.00  0.00    +0.000 C 
ATOM      2  C   UNL     1       0.888   9.349  20.734  0.00  0.00    +0.000 A 
ATOM      3  N   UNL     1       0.812  10.688  20.803  0.00  0.00    +0.000 NA
ATOM      4  N   UNL     1       1.156  11.115  19.562  0.00  0.00    +0.000 N 
ATOM      5  C   UNL     1       1.627  10.075  18.772  0.00  0.00    +0.000 A 
ATOM      6  C   UNL     1       1.458   8.922  19.509  0.00  0.00    +0.000 A 
ENDROOT
BRANCH   4   7
ATOM      7  C   UNL     1       0.978  12.479  19.197  0.00  0.00    +0.000 A 
ATOM      8  C   UNL     1       2.092  13.326  19.128  0.00  0.00    +0.000 A 
ATOM      9  C   UNL     1       1.919  14.675  18.803  0.00  0.00    +0.000 A 
ATOM     10  C   UNL     1       0.637  15.182  18.593  0.00  0.00    +0.000 A 
ATOM     11 CL   UNL     1       0.423  16.856  18.267  0.00  0.00    +0.000 Cl
ATOM     12  C   UNL     1      -0.474  14.344  18.666  0.00  0.00    +0.000 A 
ATOM     13  C   UNL     1      -0.307  12.987  18.957  0.00  0.00    +0.000 A 
ENDBRANCH   4   7
BRANCH   5  14
ATOM     14  O   UNL     1       2.187  10.215  17.565  0.00  0.00    +0.000 OA
ATOM     15  H   UNL     1       1.822  11.002  17.124  0.00  0.00    +0.000 HD
ENDBRANCH   5  14
BRANCH   6  16
ATOM     16  C   UNL     1       1.855   7.616  19.048  0.00  0.00    +0.000 C 
ATOM     17  N   UNL     1       2.505   6.828  19.823  0.00  0.00    +0.000 NA
BRANCH  17  18
ATOM     18  C   UNL     1       2.924   5.547  19.223  0.00  0.00    +0.000 C 
ATOM     19  C   UNL     1       4.452   5.459  19.013  0.00  0.00    +0.000 C 
ATOM     20  N   UNL     1       4.813   4.142  18.457  0.00  0.00    +0.000 NA
ATOM     21  C   UNL     1       4.416   3.090  19.390  0.00  0.00    +0.000 C 
ATOM     22  N   UNL     1       2.969   3.095  19.603  0.00  0.00    +0.000 NA
ATOM     23  C   UNL     1       2.309   2.885  18.316  0.00  0.00    +0.000 C 
ATOM     24  N   UNL     1       2.667   3.936  17.364  0.00  0.00    +0.000 NA
ATOM     25  C   UNL     1       4.119   3.931  17.186  0.00  0.00    +0.000 C 
ATOM     26  C   UNL     1       2.226   5.245  17.881  0.00  0.00    +0.000 C 
ATOM     27  C   UNL     1       2.550   4.389  20.178  0.00  0.00    +0.000 C 
ENDBRANCH  17  18
ENDBRANCH   6  16
TORSDOF 4
ENDMDL
MODEL 5
REMARK VINA RESULT:      -6.7      0.973      1.615
REMARK  Name = 
REMARK  5 active torsions:
REMARK  status: ('A' for Active; 'I' for Inactive)
REMARK    1  A    between atoms: C_1  and  C_2
REMARK    2  A    between atoms: N_4  and  C_5
REMARK    3  A    between atoms: C_12  and  O_13
REMARK    4  A    between atoms: C_14  and  C_15
REMARK    5  A    between atoms: N_16  and  C_17
REMARK                            x       y       z     vdW  Elec       q    Type
REMARK                         _______ _______ _______ _____ _____    ______ ____
ROOT
ATOM      1  C   UNL     1       0.235   8.453  21.729  0.00  0.00    +0.000 C 
ATOM      2  C   UNL     1       0.768   9.318  20.648  0.00  0.00    +0.000 A 
ATOM      3  N   UNL     1       0.691  10.656  20.738  0.00  0.00    +0.000 NA
ATOM      4  N   UNL     1       1.125  11.106  19.534  0.00  0.00    +0.000 N 
ATOM      5  C   UNL     1       1.649  10.079  18.760  0.00  0.00    +0.000 A 
ATOM      6  C   UNL     1       1.424   8.912  19.460  0.00  0.00    +0.000 A 
ENDROOT
BRANCH   4   7
ATOM      7  C   UNL     1       0.977  12.477  19.184  0.00  0.00    +0.000 A 
ATOM      8  C   UNL     1       2.109  13.301  19.132  0.00  0.00    +0.000 A 
ATOM      9  C   UNL     1       1.966  14.657  18.822  0.00  0.00    +0.000 A 
ATOM     10  C   UNL     1       0.696  15.193  18.610  0.00  0.00    +0.000 A 
ATOM     11 CL   UNL     1       0.518  16.875  18.303  0.00  0.00    +0.000 Cl
ATOM     12  C   UNL     1      -0.432  14.378  18.666  0.00  0.00    +0.000 A 
ATOM     13  C   UNL     1      -0.295  13.015  18.942  0.00  0.00    +0.000 A 
ENDBRANCH   4   7
BRANCH   5  14
ATOM     14  O   UNL     1       2.294  10.240  17.599  0.00  0.00    +0.000 OA
ATOM     15  H   UNL     1       2.580  11.166  17.509  0.00  0.00    +0.000 HD
ENDBRANCH   5  14
BRANCH   6  16
ATOM     16  C   UNL     1       1.848   7.614  19.003  0.00  0.00    +0.000 C 
ATOM     17  N   UNL     1       2.320   6.759  19.834  0.00  0.00    +0.000 NA
BRANCH  17  18
ATOM     18  C   UNL     1       2.793   5.491  19.246  0.00  0.00    +0.000 C 
ATOM     19  C   UNL     1       2.147   5.194  17.876  0.00  0.00    +0.000 C 
ATOM     20  N   UNL     1       2.693   3.942  17.319  0.00  0.00    +0.000 NA
ATOM     21  C   UNL     1       4.135   4.078  17.128  0.00  0.00    +0.000 C 
ATOM     22  N   UNL     1       4.813   4.326  18.400  0.00  0.00    +0.000 NA
ATOM     23  C   UNL     1       4.540   3.204  19.298  0.00  0.00    +0.000 C 
ATOM     24  N   UNL     1       3.104   3.055  19.530  0.00  0.00    +0.000 NA
ATOM     25  C   UNL     1       2.443   2.835  18.243  0.00  0.00    +0.000 C 
ATOM     26  C   UNL     1       2.575   4.274  20.168  0.00  0.00    +0.000 C 
ATOM     27  C   UNL     1       4.316   5.581  18.998  0.00  0.00    +0.000 C 
ENDBRANCH  17  18
ENDBRANCH   6  16
TORSDOF 4
ENDMDL
MODEL 6
REMARK VINA RESULT:      -6.7      3.628      8.231
REMARK  Name = 
REMARK  5 active torsions:
REMARK  status: ('A' for Active; 'I' for Inactive)
REMARK    1  A    between atoms: C_1  and  C_2
REMARK    2  A    between atoms: N_4  and  C_5
REMARK    3  A    between atoms: C_12  and  O_13
REMARK    4  A    between atoms: C_14  and  C_15
REMARK    5  A    between atoms: N_16  and  C_17
REMARK                            x       y       z     vdW  Elec       q    Type
REMARK                         _______ _______ _______ _____ _____    ______ ____
ROOT
ATOM      1  C   UNL     1       1.810   5.451  21.079  0.00  0.00    +0.000 C 
ATOM      2  C   UNL     1       2.331   5.982  19.796  0.00  0.00    +0.000 A 
ATOM      3  N   UNL     1       2.933   5.171  18.910  0.00  0.00    +0.000 NA
ATOM      4  N   UNL     1       3.406   6.005  17.949  0.00  0.00    +0.000 N 
ATOM      5  C   UNL     1       2.947   7.304  18.124  0.00  0.00    +0.000 A 
ATOM      6  C   UNL     1       2.253   7.313  19.315  0.00  0.00    +0.000 A 
ENDROOT
BRANCH   4   7
ATOM      7  C   UNL     1       4.294   5.518  16.951  0.00  0.00    +0.000 A 
ATOM      8  C   UNL     1       4.995   6.426  16.147  0.00  0.00    +0.000 A 
ATOM      9  C   UNL     1       5.843   5.953  15.141  0.00  0.00    +0.000 A 
ATOM     10  C   UNL     1       5.955   4.582  14.912  0.00  0.00    +0.000 A 
ATOM     11 CL   UNL     1       6.941   4.008  13.627  0.00  0.00    +0.000 Cl
ATOM     12  C   UNL     1       5.255   3.675  15.706  0.00  0.00    +0.000 A 
ATOM     13  C   UNL     1       4.431   4.139  16.735  0.00  0.00    +0.000 A 
ENDBRANCH   4   7
BRANCH   5  14
ATOM     14  O   UNL     1       3.113   8.304  17.252  0.00  0.00    +0.000 OA
ATOM     15  H   UNL     1       3.971   8.737  17.409  0.00  0.00    +0.000 HD
ENDBRANCH   5  14
BRANCH   6  16
ATOM     16  C   UNL     1       1.591   8.478  19.844  0.00  0.00    +0.000 C 
ATOM     17  N   UNL     1       1.185   9.403  19.054  0.00  0.00    +0.000 NA
BRANCH  17  18
ATOM     18  C   UNL     1       0.588  10.584  19.708  0.00  0.00    +0.000 C 
ATOM     19  C   UNL     1       1.075  11.914  19.093  0.00  0.00    +0.000 C 
ATOM     20  N   UNL     1       0.411  13.052  19.754  0.00  0.00    +0.000 NA
ATOM     21  C   UNL     1      -1.035  12.957  19.560  0.00  0.00    +0.000 C 
ATOM     22  N   UNL     1      -1.565  11.731  20.155  0.00  0.00    +0.000 NA
ATOM     23  C   UNL     1      -1.262  11.740  21.586  0.00  0.00    +0.000 C 
ATOM     24  N   UNL     1       0.181  11.810  21.816  0.00  0.00    +0.000 NA
ATOM     25  C   UNL     1       0.695  13.029  21.190  0.00  0.00    +0.000 C 
ATOM     26  C   UNL     1       0.835  10.626  21.230  0.00  0.00    +0.000 C 
ATOM     27  C   UNL     1      -0.946  10.553  19.517  0.00  0.00    +0.000 C 
ENDBRANCH  17  18
ENDBRANCH   6  16
TORSDOF 4
ENDMDL
MODEL 7
REMARK VINA RESULT:      -6.6      2.195      2.922
REMARK  Name = 
REMARK  5 active torsions:
REMARK  status: ('A' for Active; 'I' for Inactive)
REMARK    1  A    between atoms: C_1  and  C_2
REMARK    2  A    between atoms: N_4  and  C_5
REMARK    3  A    between atoms: C_12  and  O_13
REMARK    4  A    between atoms: C_14  and  C_15
REMARK    5  A    between atoms: N_16  and  C_17
REMARK                            x       y       z     vdW  Elec       q    Type
REMARK                         _______ _______ _______ _____ _____    ______ ____
ROOT
ATOM      1  C   UNL     1       1.985   9.165  17.579  0.00  0.00    +0.000 C 
ATOM      2  C   UNL     1       1.426   9.307  18.945  0.00  0.00    +0.000 A 
ATOM      3  N   UNL     1       0.771  10.423  19.307  0.00  0.00    +0.000 NA
ATOM      4  N   UNL     1       0.543  10.271  20.636  0.00  0.00    +0.000 N 
ATOM      5  C   UNL     1       0.877   8.996  21.072  0.00  0.00    +0.000 A 
ATOM      6  C   UNL     1       1.455   8.357  19.995  0.00  0.00    +0.000 A 
ENDROOT
BRANCH   4   7
ATOM      7  C   UNL     1       0.057  11.361  21.410  0.00  0.00    +0.000 A 
ATOM      8  C   UNL     1      -0.972  11.146  22.336  0.00  0.00    +0.000 A 
ATOM      9  C   UNL     1      -1.477  12.220  23.075  0.00  0.00    +0.000 A 
ATOM     10  C   UNL     1      -0.987  13.507  22.857  0.00  0.00    +0.000 A 
ATOM     11 CL   UNL     1      -1.661  14.835  23.714  0.00  0.00    +0.000 Cl
ATOM     12  C   UNL     1       0.033  13.726  21.933  0.00  0.00    +0.000 A 
ATOM     13  C   UNL     1       0.566  12.653  21.214  0.00  0.00    +0.000 A 
ENDBRANCH   4   7
BRANCH   5  14
ATOM     14  O   UNL     1       0.614   8.503  22.287  0.00  0.00    +0.000 OA
ATOM     15  H   UNL     1       1.143   7.700  22.437  0.00  0.00    +0.000 HD
ENDBRANCH   5  14
BRANCH   6  16
ATOM     16  C   UNL     1       1.916   6.993  20.032  0.00  0.00    +0.000 C 
ATOM     17  N   UNL     1       2.189   6.374  18.942  0.00  0.00    +0.000 NA
BRANCH  17  18
ATOM     18  C   UNL     1       2.581   4.960  19.093  0.00  0.00    +0.000 C 
ATOM     19  C   UNL     1       1.983   4.308  20.359  0.00  0.00    +0.000 C 
ATOM     20  N   UNL     1       2.369   2.887  20.429  0.00  0.00    +0.000 NA
ATOM     21  C   UNL     1       1.852   2.180  19.260  0.00  0.00    +0.000 C 
ATOM     22  N   UNL     1       2.411   2.727  18.024  0.00  0.00    +0.000 NA
ATOM     23  C   UNL     1       3.866   2.594  18.074  0.00  0.00    +0.000 C 
ATOM     24  N   UNL     1       4.420   3.312  19.221  0.00  0.00    +0.000 NA
ATOM     25  C   UNL     1       3.828   2.768  20.443  0.00  0.00    +0.000 C 
ATOM     26  C   UNL     1       4.109   4.749  19.105  0.00  0.00    +0.000 C 
ATOM     27  C   UNL     1       2.039   4.150  17.892  0.00  0.00    +0.000 C 
ENDBRANCH  17  18
ENDBRANCH   6  16
TORSDOF 4
ENDMDL
MODEL 8
REMARK VINA RESULT:      -6.6      1.173      1.326
REMARK  Name = 
REMARK  5 active torsions:
REMARK  status: ('A' for Active; 'I' for Inactive)
REMARK    1  A    between atoms: C_1  and  C_2
REMARK    2  A    between atoms: N_4  and  C_5
REMARK    3  A    between atoms: C_12  and  O_13
REMARK    4  A    between atoms: C_14  and  C_15
REMARK    5  A    between atoms: N_16  and  C_17
REMARK                            x       y       z     vdW  Elec       q    Type
REMARK                         _______ _______ _______ _____ _____    ______ ____
ROOT
ATOM      1  C   UNL     1       0.605   8.230  21.727  0.00  0.00    +0.000 C 
ATOM      2  C   UNL     1       0.991   9.144  20.624  0.00  0.00    +0.000 A 
ATOM      3  N   UNL     1       0.783  10.468  20.725  0.00  0.00    +0.000 NA
ATOM      4  N   UNL     1       1.106  10.959  19.501  0.00  0.00    +0.000 N 
ATOM      5  C   UNL     1       1.691   9.991  18.697  0.00  0.00    +0.000 A 
ATOM      6  C   UNL     1       1.623   8.808  19.402  0.00  0.00    +0.000 A 
ENDROOT
BRANCH   4   7
ATOM      7  C   UNL     1       0.801  12.308  19.167  0.00  0.00    +0.000 A 
ATOM      8  C   UNL     1       1.843  13.226  18.985  0.00  0.00    +0.000 A 
ATOM      9  C   UNL     1       1.549  14.561  18.689  0.00  0.00    +0.000 A 
ATOM     10  C   UNL     1       0.221  14.982  18.620  0.00  0.00    +0.000 A 
ATOM     11 CL   UNL     1      -0.136  16.639  18.330  0.00  0.00    +0.000 Cl
ATOM     12  C   UNL     1      -0.818  14.073  18.805  0.00  0.00    +0.000 A 
ATOM     13  C   UNL     1      -0.533  12.731  19.068  0.00  0.00    +0.000 A 
ENDBRANCH   4   7
BRANCH   5  14
ATOM     14  O   UNL     1       2.256  10.217  17.506  0.00  0.00    +0.000 OA
ATOM     15  H   UNL     1       2.247   9.399  16.978  0.00  0.00    +0.000 HD
ENDBRANCH   5  14
BRANCH   6  16
ATOM     16  C   UNL     1       2.154   7.560  18.917  0.00  0.00    +0.000 C 
ATOM     17  N   UNL     1       2.646   6.705  19.738  0.00  0.00    +0.000 NA
BRANCH  17  18
ATOM     18  C   UNL     1       3.229   5.496  19.126  0.00  0.00    +0.000 C 
ATOM     19  C   UNL     1       2.356   4.240  19.342  0.00  0.00    +0.000 C 
ATOM     20  N   UNL     1       2.965   3.078  18.670  0.00  0.00    +0.000 NA
ATOM     21  C   UNL     1       3.056   3.333  17.234  0.00  0.00    +0.000 C 
ATOM     22  N   UNL     1       3.903   4.494  16.959  0.00  0.00    +0.000 NA
ATOM     23  C   UNL     1       5.237   4.233  17.496  0.00  0.00    +0.000 C 
ATOM     24  N   UNL     1       5.185   3.996  18.938  0.00  0.00    +0.000 NA
ATOM     25  C   UNL     1       4.313   2.849  19.193  0.00  0.00    +0.000 C 
ATOM     26  C   UNL     1       4.659   5.193  19.619  0.00  0.00    +0.000 C 
ATOM     27  C   UNL     1       3.330   5.696  17.596  0.00  0.00    +0.000 C 
ENDBRANCH  17  18
ENDBRANCH   6  16
TORSDOF 4
ENDMDL
MODEL 9
REMARK VINA RESULT:      -6.6      3.612      8.221
REMARK  Name = 
REMARK  5 active torsions:
REMARK  status: ('A' for Active; 'I' for Inactive)
REMARK    1  A    between atoms: C_1  and  C_2
REMARK    2  A    between atoms: N_4  and  C_5
REMARK    3  A    between atoms: C_12  and  O_13
REMARK    4  A    between atoms: C_14  and  C_15
REMARK    5  A    between atoms: N_16  and  C_17
REMARK                            x       y       z     vdW  Elec       q    Type
REMARK                         _______ _______ _______ _____ _____    ______ ____
ROOT
ATOM      1  C   UNL     1       1.828   5.213  21.023  0.00  0.00    +0.000 C 
ATOM      2  C   UNL     1       2.338   5.776  19.749  0.00  0.00    +0.000 A 
ATOM      3  N   UNL     1       2.979   4.997  18.862  0.00  0.00    +0.000 NA
ATOM      4  N   UNL     1       3.428   5.857  17.913  0.00  0.00    +0.000 N 
ATOM      5  C   UNL     1       2.917   7.135  18.094  0.00  0.00    +0.000 A 
ATOM      6  C   UNL     1       2.212   7.106  19.279  0.00  0.00    +0.000 A 
ENDROOT
BRANCH   4   7
ATOM      7  C   UNL     1       4.343   5.414  16.919  0.00  0.00    +0.000 A 
ATOM      8  C   UNL     1       5.089   6.355  16.198  0.00  0.00    +0.000 A 
ATOM      9  C   UNL     1       5.965   5.928  15.196  0.00  0.00    +0.000 A 
ATOM     10  C   UNL     1       6.062   4.571  14.887  0.00  0.00    +0.000 A 
ATOM     11 CL   UNL     1       7.084   4.057  13.605  0.00  0.00    +0.000 Cl
ATOM     12  C   UNL     1       5.318   3.632  15.598  0.00  0.00    +0.000 A 
ATOM     13  C   UNL     1       4.465   4.048  16.623  0.00  0.00    +0.000 A 
ENDBRANCH   4   7
BRANCH   5  14
ATOM     14  O   UNL     1       3.051   8.148  17.232  0.00  0.00    +0.000 OA
ATOM     15  H   UNL     1       3.983   8.425  17.194  0.00  0.00    +0.000 HD
ENDBRANCH   5  14
BRANCH   6  16
ATOM     16  C   UNL     1       1.500   8.240  19.811  0.00  0.00    +0.000 C 
ATOM     17  N   UNL     1       1.304   9.278  19.084  0.00  0.00    +0.000 NA
BRANCH  17  18
ATOM     18  C   UNL     1       0.630  10.407  19.754  0.00  0.00    +0.000 C 
ATOM     19  C   UNL     1       0.969  10.495  21.258  0.00  0.00    +0.000 C 
ATOM     20  N   UNL     1       0.307  11.667  21.859  0.00  0.00    +0.000 NA
ATOM     21  C   UNL     1       0.781  12.886  21.209  0.00  0.00    +0.000 C 
ATOM     22  N   UNL     1       0.457  12.882  19.783  0.00  0.00    +0.000 NA
ATOM     23  C   UNL     1      -0.994  12.780  19.636  0.00  0.00    +0.000 C 
ATOM     24  N   UNL     1      -1.500  11.557  20.257  0.00  0.00    +0.000 NA
ATOM     25  C   UNL     1      -1.142  11.569  21.675  0.00  0.00    +0.000 C 
ATOM     26  C   UNL     1      -0.904  10.382  19.595  0.00  0.00    +0.000 C 
ATOM     27  C   UNL     1       1.111  11.734  19.122  0.00  0.00    +0.000 C 
ENDBRANCH  17  18
ENDBRANCH   6  16
TORSDOF 4
ENDMDL
