MODEL 1
REMARK VINA RESULT:      -8.6      0.000      0.000
REMARK  Name = 
REMARK  8 active torsions:
REMARK  status: ('A' for Active; 'I' for Inactive)
REMARK    1  A    between atoms: N_4  and  C_5
REMARK    2  A    between atoms: C_5  and  C_6
REMARK    3  A    between atoms: C_6  and  N_7
REMARK    4  A    between atoms: N_16  and  C_17
REMARK    5  A    between atoms: C_17  and  C_18
REMARK    6  A    between atoms: C_18  and  C_19
REMARK    7  A    between atoms: C_19  and  C_20
REMARK    8  A    between atoms: C_19  and  C_26
REMARK                            x       y       z     vdW  Elec       q    Type
REMARK                         _______ _______ _______ _____ _____    ______ ____
ROOT
ATOM      1  O   UNL     1       2.275  11.077  17.392  0.00  0.00    +0.000 OA
ATOM      2  C   UNL     1       1.684  10.627  18.371  0.00  0.00    +0.000 C 
ATOM      3  C   UNL     1       1.074  11.529  19.452  0.00  0.00    +0.000 C 
ATOM      4  N   UNL     1      -0.135  10.890  19.990  0.00  0.00    +0.000 N 
ATOM      5  C   UNL     1      -0.024   9.589  20.474  0.00  0.00    +0.000 C 
ATOM      6  O   UNL     1      -0.848   9.060  21.215  0.00  0.00    +0.000 OA
ATOM      7  C   UNL     1       1.286   8.897  20.062  0.00  0.00    +0.000 C 
ATOM      8  N   UNL     1       1.590   9.265  18.673  0.00  0.00    +0.000 N 
ENDROOT
BRANCH   4   9
ATOM      9  C   UNL     1      -1.386  11.655  20.092  0.00  0.00    +0.000 C 
BRANCH   9  10
ATOM     10  C   UNL     1      -2.126  11.665  18.735  0.00  0.00    +0.000 C 
BRANCH  10  11
ATOM     11  N   UNL     1      -2.709  10.400  18.257  0.00  0.00    +0.000 NA
ATOM     12  C   UNL     1      -2.157   9.939  16.964  0.00  0.00    +0.000 C 
ATOM     13  C   UNL     1      -2.549  10.822  15.764  0.00  0.00    +0.000 C 
ATOM     14  O   UNL     1      -3.972  10.967  15.655  0.00  0.00    +0.000 OA
ATOM     15  C   UNL     1      -4.537  11.473  16.870  0.00  0.00    +0.000 C 
ATOM     16  C   UNL     1      -4.176  10.575  18.068  0.00  0.00    +0.000 C 
ENDBRANCH  10  11
ENDBRANCH   9  10
ENDBRANCH   4   9
BRANCH   8  17
ATOM     17  C   UNL     1       2.134   8.262  17.756  0.00  0.00    +0.000 C 
BRANCH  17  18
ATOM     18  C   UNL     1       3.056   7.265  18.459  0.00  0.00    +0.000 C 
BRANCH  18  19
ATOM     19  C   UNL     1       3.107   5.855  17.809  0.00  0.00    +0.000 C 
BRANCH  19  20
ATOM     20  C   UNL     1       4.554   5.399  17.604  0.00  0.00    +0.000 A 
ATOM     21  C   UNL     1       4.991   4.948  16.348  0.00  0.00    +0.000 A 
ATOM     22  C   UNL     1       6.307   4.522  16.162  0.00  0.00    +0.000 A 
ATOM     23  C   UNL     1       7.205   4.544  17.226  0.00  0.00    +0.000 A 
ATOM     24  C   UNL     1       6.790   4.998  18.477  0.00  0.00    +0.000 A 
ATOM     25  C   UNL     1       5.473   5.426  18.667  0.00  0.00    +0.000 A 
ENDBRANCH  19  20
BRANCH  19  26
ATOM     26  C   UNL     1       2.290   4.798  18.574  0.00  0.00    +0.000 A 
ATOM     27  C   UNL     1       1.926   4.948  19.923  0.00  0.00    +0.000 A 
ATOM     28  C   UNL     1       1.243   3.940  20.607  0.00  0.00    +0.000 A 
ATOM     29  C   UNL     1       0.905   2.759  19.955  0.00  0.00    +0.000 A 
ATOM     30  C   UNL     1       1.228   2.598  18.610  0.00  0.00    +0.000 A 
ATOM     31  C   UNL     1       1.904   3.611  17.923  0.00  0.00    +0.000 A 
ENDBRANCH  19  26
ENDBRANCH  18  19
ENDBRANCH  17  18
ENDBRANCH   8  17
TORSDOF 8
ENDMDL
MODEL 2
REMARK VINA RESULT:      -8.2      2.075      3.427
REMARK  Name = 
REMARK  8 active torsions:
REMARK  status: ('A' for Active; 'I' for Inactive)
REMARK    1  A    between atoms: N_4  and  C_5
REMARK    2  A    between atoms: C_5  and  C_6
REMARK    3  A    between atoms: C_6  and  N_7
REMARK    4  A    between atoms: N_16  and  C_17
REMARK    5  A    between atoms: C_17  and  C_18
REMARK    6  A    between atoms: C_18  and  C_19
REMARK    7  A    between atoms: C_19  and  C_20
REMARK    8  A    between atoms: C_19  and  C_26
REMARK                            x       y       z     vdW  Elec       q    Type
REMARK                         _______ _______ _______ _____ _____    ______ ____
ROOT
ATOM      1  O   UNL     1       2.212  11.016  17.456  0.00  0.00    +0.000 OA
ATOM      2  C   UNL     1       1.685  10.560  18.468  0.00  0.00    +0.000 C 
ATOM      3  C   UNL     1       1.143  11.455  19.590  0.00  0.00    +0.000 C 
ATOM      4  N   UNL     1      -0.028  10.812  20.200  0.00  0.00    +0.000 N 
ATOM      5  C   UNL     1       0.115   9.508  20.669  0.00  0.00    +0.000 C 
ATOM      6  O   UNL     1      -0.659   8.974  21.459  0.00  0.00    +0.000 OA
ATOM      7  C   UNL     1       1.398   8.821  20.173  0.00  0.00    +0.000 C 
ATOM      8  N   UNL     1       1.612   9.196  18.769  0.00  0.00    +0.000 N 
ENDROOT
BRANCH   4   9
ATOM      9  C   UNL     1      -1.272  11.574  20.385  0.00  0.00    +0.000 C 
BRANCH   9  10
ATOM     10  C   UNL     1      -1.029  12.787  21.312  0.00  0.00    +0.000 C 
BRANCH  10  11
ATOM     11  N   UNL     1      -1.037  12.558  22.767  0.00  0.00    +0.000 NA
ATOM     12  C   UNL     1      -2.186  11.755  23.240  0.00  0.00    +0.000 C 
ATOM     13  C   UNL     1      -3.542  12.477  23.130  0.00  0.00    +0.000 C 
ATOM     14  O   UNL     1      -3.526  13.741  23.809  0.00  0.00    +0.000 OA
ATOM     15  C   UNL     1      -2.463  14.573  23.332  0.00  0.00    +0.000 C 
ATOM     16  C   UNL     1      -1.100  13.868  23.470  0.00  0.00    +0.000 C 
ENDBRANCH  10  11
ENDBRANCH   9  10
ENDBRANCH   4   9
BRANCH   8  17
ATOM     17  C   UNL     1       2.099   8.199  17.814  0.00  0.00    +0.000 C 
BRANCH  17  18
ATOM     18  C   UNL     1       3.095   7.224  18.443  0.00  0.00    +0.000 C 
BRANCH  18  19
ATOM     19  C   UNL     1       3.133   5.817  17.785  0.00  0.00    +0.000 C 
BRANCH  19  20
ATOM     20  C   UNL     1       4.575   5.363  17.547  0.00  0.00    +0.000 A 
ATOM     21  C   UNL     1       5.557   5.553  18.533  0.00  0.00    +0.000 A 
ATOM     22  C   UNL     1       6.875   5.149  18.314  0.00  0.00    +0.000 A 
ATOM     23  C   UNL     1       7.230   4.547  17.110  0.00  0.00    +0.000 A 
ATOM     24  C   UNL     1       6.265   4.342  16.124  0.00  0.00    +0.000 A 
ATOM     25  C   UNL     1       4.944   4.745  16.341  0.00  0.00    +0.000 A 
ENDBRANCH  19  20
BRANCH  19  26
ATOM     26  C   UNL     1       2.334   4.756  18.564  0.00  0.00    +0.000 A 
ATOM     27  C   UNL     1       1.826   3.592  17.961  0.00  0.00    +0.000 A 
ATOM     28  C   UNL     1       1.048   2.684  18.681  0.00  0.00    +0.000 A 
ATOM     29  C   UNL     1       0.762   2.917  20.022  0.00  0.00    +0.000 A 
ATOM     30  C   UNL     1       1.278   4.047  20.650  0.00  0.00    +0.000 A 
ATOM     31  C   UNL     1       2.065   4.952  19.932  0.00  0.00    +0.000 A 
ENDBRANCH  19  26
ENDBRANCH  18  19
ENDBRANCH  17  18
ENDBRANCH   8  17
TORSDOF 8
ENDMDL
MODEL 3
REMARK VINA RESULT:      -8.1      0.587      3.293
REMARK  Name = 
REMARK  8 active torsions:
REMARK  status: ('A' for Active; 'I' for Inactive)
REMARK    1  A    between atoms: N_4  and  C_5
REMARK    2  A    between atoms: C_5  and  C_6
REMARK    3  A    between atoms: C_6  and  N_7
REMARK    4  A    between atoms: N_16  and  C_17
REMARK    5  A    between atoms: C_17  and  C_18
REMARK    6  A    between atoms: C_18  and  C_19
REMARK    7  A    between atoms: C_19  and  C_20
REMARK    8  A    between atoms: C_19  and  C_26
REMARK                            x       y       z     vdW  Elec       q    Type
REMARK                         _______ _______ _______ _____ _____    ______ ____
ROOT
ATOM      1  O   UNL     1       2.507  11.265  17.421  0.00  0.00    +0.000 OA
ATOM      2  C   UNL     1       1.887  10.775  18.361  0.00  0.00    +0.000 C 
ATOM      3  C   UNL     1       1.117  11.629  19.376  0.00  0.00    +0.000 C 
ATOM      4  N   UNL     1      -0.066  10.889  19.835  0.00  0.00    +0.000 N 
ATOM      5  C   UNL     1       0.126   9.609  20.350  0.00  0.00    +0.000 C 
ATOM      6  O   UNL     1      -0.700   9.015  21.038  0.00  0.00    +0.000 OA
ATOM      7  C   UNL     1       1.521   9.035  20.051  0.00  0.00    +0.000 C 
ATOM      8  N   UNL     1       1.894   9.413  18.681  0.00  0.00    +0.000 N 
ENDROOT
BRANCH   4   9
ATOM      9  C   UNL     1      -1.386  11.536  19.830  0.00  0.00    +0.000 C 
BRANCH   9  10
ATOM     10  C   UNL     1      -1.998  11.503  18.411  0.00  0.00    +0.000 C 
BRANCH  10  11
ATOM     11  N   UNL     1      -2.717  10.286  17.996  0.00  0.00    +0.000 NA
ATOM     12  C   UNL     1      -2.313   9.778  16.667  0.00  0.00    +0.000 C 
ATOM     13  C   UNL     1      -2.733  10.683  15.495  0.00  0.00    +0.000 C 
ATOM     14  O   UNL     1      -4.145  10.939  15.503  0.00  0.00    +0.000 OA
ATOM     15  C   UNL     1      -4.565  11.494  16.755  0.00  0.00    +0.000 C 
ATOM     16  C   UNL     1      -4.175  10.575  17.929  0.00  0.00    +0.000 C 
ENDBRANCH  10  11
ENDBRANCH   9  10
ENDBRANCH   4   9
BRANCH   8  17
ATOM     17  C   UNL     1       2.595   8.454  17.826  0.00  0.00    +0.000 C 
BRANCH  17  18
ATOM     18  C   UNL     1       2.140   7.014  18.068  0.00  0.00    +0.000 C 
BRANCH  18  19
ATOM     19  C   UNL     1       3.110   6.161  18.932  0.00  0.00    +0.000 C 
BRANCH  19  20
ATOM     20  C   UNL     1       2.400   4.929  19.497  0.00  0.00    +0.000 A 
ATOM     21  C   UNL     1       1.692   4.059  18.650  0.00  0.00    +0.000 A 
ATOM     22  C   UNL     1       1.035   2.941  19.165  0.00  0.00    +0.000 A 
ATOM     23  C   UNL     1       1.078   2.674  20.531  0.00  0.00    +0.000 A 
ATOM     24  C   UNL     1       1.783   3.521  21.384  0.00  0.00    +0.000 A 
ATOM     25  C   UNL     1       2.444   4.642  20.872  0.00  0.00    +0.000 A 
ENDBRANCH  19  20
BRANCH  19  26
ATOM     26  C   UNL     1       4.404   5.771  18.194  0.00  0.00    +0.000 A 
ATOM     27  C   UNL     1       4.508   5.763  16.792  0.00  0.00    +0.000 A 
ATOM     28  C   UNL     1       5.675   5.339  16.155  0.00  0.00    +0.000 A 
ATOM     29  C   UNL     1       6.768   4.918  16.905  0.00  0.00    +0.000 A 
ATOM     30  C   UNL     1       6.702   4.946  18.295  0.00  0.00    +0.000 A 
ATOM     31  C   UNL     1       5.536   5.378  18.934  0.00  0.00    +0.000 A 
ENDBRANCH  19  26
ENDBRANCH  18  19
ENDBRANCH  17  18
ENDBRANCH   8  17
TORSDOF 8
ENDMDL
MODEL 4
REMARK VINA RESULT:      -8.0      2.337      4.704
REMARK  Name = 
REMARK  8 active torsions:
REMARK  status: ('A' for Active; 'I' for Inactive)
REMARK    1  A    between atoms: N_4  and  C_5
REMARK    2  A    between atoms: C_5  and  C_6
REMARK    3  A    between atoms: C_6  and  N_7
REMARK    4  A    between atoms: N_16  and  C_17
REMARK    5  A    between atoms: C_17  and  C_18
REMARK    6  A    between atoms: C_18  and  C_19
REMARK    7  A    between atoms: C_19  and  C_20
REMARK    8  A    between atoms: C_19  and  C_26
REMARK                            x       y       z     vdW  Elec       q    Type
REMARK                         _______ _______ _______ _____ _____    ______ ____
ROOT
ATOM      1  O   UNL     1       1.634   8.439  20.982  0.00  0.00    +0.000 OA
ATOM      2  C   UNL     1       0.972   9.219  20.300  0.00  0.00    +0.000 C 
ATOM      3  C   UNL     1      -0.294   9.905  20.827  0.00  0.00    +0.000 C 
ATOM      4  N   UNL     1      -0.410  11.238  20.222  0.00  0.00    +0.000 N 
ATOM      5  C   UNL     1      -0.372  11.330  18.833  0.00  0.00    +0.000 C 
ATOM      6  O   UNL     1      -0.760  12.306  18.198  0.00  0.00    +0.000 OA
ATOM      7  C   UNL     1       0.121  10.041  18.153  0.00  0.00    +0.000 C 
ATOM      8  N   UNL     1       1.223   9.487  18.951  0.00  0.00    +0.000 N 
ENDROOT
BRANCH   4   9
ATOM      9  C   UNL     1      -0.654  12.413  21.073  0.00  0.00    +0.000 C 
BRANCH   9  10
ATOM     10  C   UNL     1      -1.991  12.260  21.834  0.00  0.00    +0.000 C 
BRANCH  10  11
ATOM     11  N   UNL     1      -2.658  13.484  22.311  0.00  0.00    +0.000 NA
ATOM     12  C   UNL     1      -2.991  13.458  23.753  0.00  0.00    +0.000 C 
ATOM     13  C   UNL     1      -4.097  12.454  24.123  0.00  0.00    +0.000 C 
ATOM     14  O   UNL     1      -5.291  12.672  23.358  0.00  0.00    +0.000 OA
ATOM     15  C   UNL     1      -5.019  12.639  21.952  0.00  0.00    +0.000 C 
ATOM     16  C   UNL     1      -3.936  13.667  21.571  0.00  0.00    +0.000 C 
ENDBRANCH  10  11
ENDBRANCH   9  10
ENDBRANCH   4   9
BRANCH   8  17
ATOM     17  C   UNL     1       2.385   8.901  18.281  0.00  0.00    +0.000 C 
BRANCH  17  18
ATOM     18  C   UNL     1       2.171   7.430  17.919  0.00  0.00    +0.000 C 
BRANCH  18  19
ATOM     19  C   UNL     1       3.054   6.429  18.714  0.00  0.00    +0.000 C 
BRANCH  19  20
ATOM     20  C   UNL     1       2.269   5.161  19.058  0.00  0.00    +0.000 A 
ATOM     21  C   UNL     1       1.933   4.234  18.058  0.00  0.00    +0.000 A 
ATOM     22  C   UNL     1       1.209   3.083  18.368  0.00  0.00    +0.000 A 
ATOM     23  C   UNL     1       0.812   2.839  19.680  0.00  0.00    +0.000 A 
ATOM     24  C   UNL     1       1.146   3.744  20.687  0.00  0.00    +0.000 A 
ATOM     25  C   UNL     1       1.872   4.899  20.380  0.00  0.00    +0.000 A 
ENDBRANCH  19  20
BRANCH  19  26
ATOM     26  C   UNL     1       4.381   6.092  18.010  0.00  0.00    +0.000 A 
ATOM     27  C   UNL     1       4.626   6.398  16.660  0.00  0.00    +0.000 A 
ATOM     28  C   UNL     1       5.815   6.018  16.034  0.00  0.00    +0.000 A 
ATOM     29  C   UNL     1       6.788   5.325  16.746  0.00  0.00    +0.000 A 
ATOM     30  C   UNL     1       6.583   5.036  18.092  0.00  0.00    +0.000 A 
ATOM     31  C   UNL     1       5.397   5.425  18.721  0.00  0.00    +0.000 A 
ENDBRANCH  19  26
ENDBRANCH  18  19
ENDBRANCH  17  18
ENDBRANCH   8  17
TORSDOF 8
ENDMDL
MODEL 5
REMARK VINA RESULT:      -7.9      2.434      4.968
REMARK  Name = 
REMARK  8 active torsions:
REMARK  status: ('A' for Active; 'I' for Inactive)
REMARK    1  A    between atoms: N_4  and  C_5
REMARK    2  A    between atoms: C_5  and  C_6
REMARK    3  A    between atoms: C_6  and  N_7
REMARK    4  A    between atoms: N_16  and  C_17
REMARK    5  A    between atoms: C_17  and  C_18
REMARK    6  A    between atoms: C_18  and  C_19
REMARK    7  A    between atoms: C_19  and  C_20
REMARK    8  A    between atoms: C_19  and  C_26
REMARK                            x       y       z     vdW  Elec       q    Type
REMARK                         _______ _______ _______ _____ _____    ______ ____
ROOT
ATOM      1  O   UNL     1       1.624   8.562  21.007  0.00  0.00    +0.000 OA
ATOM      2  C   UNL     1       0.928   9.273  20.286  0.00  0.00    +0.000 C 
ATOM      3  C   UNL     1      -0.374   9.921  20.776  0.00  0.00    +0.000 C 
ATOM      4  N   UNL     1      -0.552  11.215  20.106  0.00  0.00    +0.000 N 
ATOM      5  C   UNL     1      -0.511  11.241  18.714  0.00  0.00    +0.000 C 
ATOM      6  O   UNL     1      -0.943  12.165  18.031  0.00  0.00    +0.000 OA
ATOM      7  C   UNL     1       0.049   9.947  18.099  0.00  0.00    +0.000 C 
ATOM      8  N   UNL     1       1.172   9.488  18.926  0.00  0.00    +0.000 N 
ENDROOT
BRANCH   4   9
ATOM      9  C   UNL     1      -0.859  12.416  20.898  0.00  0.00    +0.000 C 
BRANCH   9  10
ATOM     10  C   UNL     1      -2.169  12.219  21.693  0.00  0.00    +0.000 C 
BRANCH  10  11
ATOM     11  N   UNL     1      -2.118  12.365  23.158  0.00  0.00    +0.000 NA
ATOM     12  C   UNL     1      -3.444  12.315  23.810  0.00  0.00    +0.000 C 
ATOM     13  C   UNL     1      -4.340  13.530  23.506  0.00  0.00    +0.000 C 
ATOM     14  O   UNL     1      -3.688  14.765  23.836  0.00  0.00    +0.000 OA
ATOM     15  C   UNL     1      -2.425  14.880  23.170  0.00  0.00    +0.000 C 
ATOM     16  C   UNL     1      -1.513  13.683  23.499  0.00  0.00    +0.000 C 
ENDBRANCH  10  11
ENDBRANCH   9  10
ENDBRANCH   4   9
BRANCH   8  17
ATOM     17  C   UNL     1       2.365   8.929  18.289  0.00  0.00    +0.000 C 
BRANCH  17  18
ATOM     18  C   UNL     1       2.189   7.458  17.906  0.00  0.00    +0.000 C 
BRANCH  18  19
ATOM     19  C   UNL     1       3.053   6.463  18.729  0.00  0.00    +0.000 C 
BRANCH  19  20
ATOM     20  C   UNL     1       2.256   5.204  19.077  0.00  0.00    +0.000 A 
ATOM     21  C   UNL     1       1.860   4.952  20.401  0.00  0.00    +0.000 A 
ATOM     22  C   UNL     1       1.142   3.800  20.723  0.00  0.00    +0.000 A 
ATOM     23  C   UNL     1       0.806   2.886  19.728  0.00  0.00    +0.000 A 
ATOM     24  C   UNL     1       1.182   3.125  18.407  0.00  0.00    +0.000 A 
ATOM     25  C   UNL     1       1.902   4.279  18.081  0.00  0.00    +0.000 A 
ENDBRANCH  19  20
BRANCH  19  26
ATOM     26  C   UNL     1       4.390   6.109  18.051  0.00  0.00    +0.000 A 
ATOM     27  C   UNL     1       5.444   5.476  18.732  0.00  0.00    +0.000 A 
ATOM     28  C   UNL     1       6.668   5.231  18.106  0.00  0.00    +0.000 A 
ATOM     29  C   UNL     1       6.864   5.608  16.782  0.00  0.00    +0.000 A 
ATOM     30  C   UNL     1       5.825   6.209  16.076  0.00  0.00    +0.000 A 
ATOM     31  C   UNL     1       4.597   6.447  16.700  0.00  0.00    +0.000 A 
ENDBRANCH  19  26
ENDBRANCH  18  19
ENDBRANCH  17  18
ENDBRANCH   8  17
TORSDOF 8
ENDMDL
MODEL 6
REMARK VINA RESULT:      -7.9      0.964      3.491
REMARK  Name = 
REMARK  8 active torsions:
REMARK  status: ('A' for Active; 'I' for Inactive)
REMARK    1  A    between atoms: N_4  and  C_5
REMARK    2  A    between atoms: C_5  and  C_6
REMARK    3  A    between atoms: C_6  and  N_7
REMARK    4  A    between atoms: N_16  and  C_17
REMARK    5  A    between atoms: C_17  and  C_18
REMARK    6  A    between atoms: C_18  and  C_19
REMARK    7  A    between atoms: C_19  and  C_20
REMARK    8  A    between atoms: C_19  and  C_26
REMARK                            x       y       z     vdW  Elec       q    Type
REMARK                         _______ _______ _______ _____ _____    ______ ____
ROOT
ATOM      1  O   UNL     1       1.781   9.518  17.546  0.00  0.00    +0.000 OA
ATOM      2  C   UNL     1       1.359   9.965  18.610  0.00  0.00    +0.000 C 
ATOM      3  C   UNL     1       1.040  11.452  18.812  0.00  0.00    +0.000 C 
ATOM      4  N   UNL     1      -0.084  11.584  19.747  0.00  0.00    +0.000 N 
ATOM      5  C   UNL     1       0.020  10.955  20.986  0.00  0.00    +0.000 C 
ATOM      6  O   UNL     1      -0.680  11.230  21.956  0.00  0.00    +0.000 OA
ATOM      7  C   UNL     1       1.170   9.937  21.055  0.00  0.00    +0.000 C 
ATOM      8  N   UNL     1       1.224   9.210  19.779  0.00  0.00    +0.000 N 
ENDROOT
BRANCH   4   9
ATOM      9  C   UNL     1      -1.231  12.436  19.401  0.00  0.00    +0.000 C 
BRANCH   9  10
ATOM     10  C   UNL     1      -1.840  12.001  18.049  0.00  0.00    +0.000 C 
BRANCH  10  11
ATOM     11  N   UNL     1      -2.496  10.684  17.978  0.00  0.00    +0.000 NA
ATOM     12  C   UNL     1      -2.157   9.913  16.761  0.00  0.00    +0.000 C 
ATOM     13  C   UNL     1      -2.731  10.508  15.462  0.00  0.00    +0.000 C 
ATOM     14  O   UNL     1      -4.154  10.681  15.541  0.00  0.00    +0.000 OA
ATOM     15  C   UNL     1      -4.517  11.478  16.674  0.00  0.00    +0.000 C 
ATOM     16  C   UNL     1      -3.973  10.869  17.980  0.00  0.00    +0.000 C 
ENDBRANCH  10  11
ENDBRANCH   9  10
ENDBRANCH   4   9
BRANCH   8  17
ATOM     17  C   UNL     1       1.503   7.773  19.771  0.00  0.00    +0.000 C 
BRANCH  17  18
ATOM     18  C   UNL     1       2.642   7.403  18.819  0.00  0.00    +0.000 C 
BRANCH  18  19
ATOM     19  C   UNL     1       3.441   6.133  19.222  0.00  0.00    +0.000 C 
BRANCH  19  20
ATOM     20  C   UNL     1       2.512   4.926  19.369  0.00  0.00    +0.000 A 
ATOM     21  C   UNL     1       2.225   4.395  20.637  0.00  0.00    +0.000 A 
ATOM     22  C   UNL     1       1.387   3.287  20.772  0.00  0.00    +0.000 A 
ATOM     23  C   UNL     1       0.821   2.698  19.645  0.00  0.00    +0.000 A 
ATOM     24  C   UNL     1       1.088   3.219  18.380  0.00  0.00    +0.000 A 
ATOM     25  C   UNL     1       1.927   4.329  18.240  0.00  0.00    +0.000 A 
ENDBRANCH  19  20
BRANCH  19  26
ATOM     26  C   UNL     1       4.616   5.824  18.275  0.00  0.00    +0.000 A 
ATOM     27  C   UNL     1       4.641   6.241  16.933  0.00  0.00    +0.000 A 
ATOM     28  C   UNL     1       5.690   5.885  16.084  0.00  0.00    +0.000 A 
ATOM     29  C   UNL     1       6.741   5.107  16.559  0.00  0.00    +0.000 A 
ATOM     30  C   UNL     1       6.755   4.708  17.892  0.00  0.00    +0.000 A 
ATOM     31  C   UNL     1       5.709   5.071  18.745  0.00  0.00    +0.000 A 
ENDBRANCH  19  26
ENDBRANCH  18  19
ENDBRANCH  17  18
ENDBRANCH   8  17
TORSDOF 8
ENDMDL
MODEL 7
REMARK VINA RESULT:      -7.8      1.186      1.482
REMARK  Name = 
REMARK  8 active torsions:
REMARK  status: ('A' for Active; 'I' for Inactive)
REMARK    1  A    between atoms: N_4  and  C_5
REMARK    2  A    between atoms: C_5  and  C_6
REMARK    3  A    between atoms: C_6  and  N_7
REMARK    4  A    between atoms: N_16  and  C_17
REMARK    5  A    between atoms: C_17  and  C_18
REMARK    6  A    between atoms: C_18  and  C_19
REMARK    7  A    between atoms: C_19  and  C_20
REMARK    8  A    between atoms: C_19  and  C_26
REMARK                            x       y       z     vdW  Elec       q    Type
REMARK                         _______ _______ _______ _____ _____    ______ ____
ROOT
ATOM      1  O   UNL     1       1.237   9.172  17.560  0.00  0.00    +0.000 OA
ATOM      2  C   UNL     1       1.061   9.722  18.645  0.00  0.00    +0.000 C 
ATOM      3  C   UNL     1       0.785  11.226  18.773  0.00  0.00    +0.000 C 
ATOM      4  N   UNL     1      -0.103  11.459  19.919  0.00  0.00    +0.000 N 
ATOM      5  C   UNL     1       0.281  10.947  21.156  0.00  0.00    +0.000 C 
ATOM      6  O   UNL     1      -0.187  11.320  22.229  0.00  0.00    +0.000 OA
ATOM      7  C   UNL     1       1.424   9.923  21.062  0.00  0.00    +0.000 C 
ATOM      8  N   UNL     1       1.196   9.081  19.880  0.00  0.00    +0.000 N 
ENDROOT
BRANCH   4   9
ATOM      9  C   UNL     1      -1.304  12.293  19.760  0.00  0.00    +0.000 C 
BRANCH   9  10
ATOM     10  C   UNL     1      -1.990  11.999  18.407  0.00  0.00    +0.000 C 
BRANCH  10  11
ATOM     11  N   UNL     1      -2.724  10.729  18.265  0.00  0.00    +0.000 NA
ATOM     12  C   UNL     1      -2.323   9.937  17.082  0.00  0.00    +0.000 C 
ATOM     13  C   UNL     1      -2.727  10.568  15.737  0.00  0.00    +0.000 C 
ATOM     14  O   UNL     1      -4.135  10.838  15.680  0.00  0.00    +0.000 OA
ATOM     15  C   UNL     1      -4.551  11.659  16.778  0.00  0.00    +0.000 C 
ATOM     16  C   UNL     1      -4.178  11.015  18.127  0.00  0.00    +0.000 C 
ENDBRANCH  10  11
ENDBRANCH   9  10
ENDBRANCH   4   9
BRANCH   8  17
ATOM     17  C   UNL     1       1.476   7.646  19.944  0.00  0.00    +0.000 C 
BRANCH  17  18
ATOM     18  C   UNL     1       2.689   7.247  19.102  0.00  0.00    +0.000 C 
BRANCH  18  19
ATOM     19  C   UNL     1       2.550   5.889  18.361  0.00  0.00    +0.000 C 
BRANCH  19  20
ATOM     20  C   UNL     1       3.824   5.558  17.580  0.00  0.00    +0.000 A 
ATOM     21  C   UNL     1       4.007   4.286  17.015  0.00  0.00    +0.000 A 
ATOM     22  C   UNL     1       5.173   3.979  16.311  0.00  0.00    +0.000 A 
ATOM     23  C   UNL     1       6.169   4.939  16.159  0.00  0.00    +0.000 A 
ATOM     24  C   UNL     1       6.000   6.210  16.706  0.00  0.00    +0.000 A 
ATOM     25  C   UNL     1       4.833   6.521  17.411  0.00  0.00    +0.000 A 
ENDBRANCH  19  20
BRANCH  19  26
ATOM     26  C   UNL     1       2.143   4.727  19.286  0.00  0.00    +0.000 A 
ATOM     27  C   UNL     1       1.114   3.824  18.966  0.00  0.00    +0.000 A 
ATOM     28  C   UNL     1       0.725   2.823  19.858  0.00  0.00    +0.000 A 
ATOM     29  C   UNL     1       1.360   2.698  21.089  0.00  0.00    +0.000 A 
ATOM     30  C   UNL     1       2.402   3.560  21.417  0.00  0.00    +0.000 A 
ATOM     31  C   UNL     1       2.798   4.557  20.521  0.00  0.00    +0.000 A 
ENDBRANCH  19  26
ENDBRANCH  18  19
ENDBRANCH  17  18
ENDBRANCH   8  17
TORSDOF 8
ENDMDL
MODEL 8
REMARK VINA RESULT:      -7.8      2.102      4.993
REMARK  Name = 
REMARK  8 active torsions:
REMARK  status: ('A' for Active; 'I' for Inactive)
REMARK    1  A    between atoms: N_4  and  C_5
REMARK    2  A    between atoms: C_5  and  C_6
REMARK    3  A    between atoms: C_6  and  N_7
REMARK    4  A    between atoms: N_16  and  C_17
REMARK    5  A    between atoms: C_17  and  C_18
REMARK    6  A    between atoms: C_18  and  C_19
REMARK    7  A    between atoms: C_19  and  C_20
REMARK    8  A    between atoms: C_19  and  C_26
REMARK                            x       y       z     vdW  Elec       q    Type
REMARK                         _______ _______ _______ _____ _____    ______ ____
ROOT
ATOM      1  O   UNL     1       1.798   8.575  20.945  0.00  0.00    +0.000 OA
ATOM      2  C   UNL     1       1.003   9.181  20.231  0.00  0.00    +0.000 C 
ATOM      3  C   UNL     1      -0.349   9.690  20.748  0.00  0.00    +0.000 C 
ATOM      4  N   UNL     1      -0.696  10.936  20.053  0.00  0.00    +0.000 N 
ATOM      5  C   UNL     1      -0.702  10.925  18.660  0.00  0.00    +0.000 C 
ATOM      6  O   UNL     1      -1.259  11.774  17.969  0.00  0.00    +0.000 OA
ATOM      7  C   UNL     1      -0.017   9.686  18.059  0.00  0.00    +0.000 C 
ATOM      8  N   UNL     1       1.177   9.383  18.858  0.00  0.00    +0.000 N 
ENDROOT
BRANCH   4   9
ATOM      9  C   UNL     1      -1.113  12.116  20.824  0.00  0.00    +0.000 C 
BRANCH   9  10
ATOM     10  C   UNL     1       0.120  12.935  21.268  0.00  0.00    +0.000 C 
BRANCH  10  11
ATOM     11  N   UNL     1       1.176  13.190  20.273  0.00  0.00    +0.000 NA
ATOM     12  C   UNL     1       2.489  13.522  20.867  0.00  0.00    +0.000 C 
ATOM     13  C   UNL     1       2.530  14.888  21.576  0.00  0.00    +0.000 C 
ATOM     14  O   UNL     1       2.114  15.950  20.705  0.00  0.00    +0.000 OA
ATOM     15  C   UNL     1       0.815  15.695  20.159  0.00  0.00    +0.000 C 
ATOM     16  C   UNL     1       0.778  14.343  19.420  0.00  0.00    +0.000 C 
ENDBRANCH  10  11
ENDBRANCH   9  10
ENDBRANCH   4   9
BRANCH   8  17
ATOM     17  C   UNL     1       2.406   8.944  18.194  0.00  0.00    +0.000 C 
BRANCH  17  18
ATOM     18  C   UNL     1       2.335   7.487  17.733  0.00  0.00    +0.000 C 
BRANCH  18  19
ATOM     19  C   UNL     1       3.175   6.494  18.583  0.00  0.00    +0.000 C 
BRANCH  19  20
ATOM     20  C   UNL     1       2.338   5.280  18.991  0.00  0.00    +0.000 A 
ATOM     21  C   UNL     1       1.944   5.099  20.327  0.00  0.00    +0.000 A 
ATOM     22  C   UNL     1       1.189   3.987  20.703  0.00  0.00    +0.000 A 
ATOM     23  C   UNL     1       0.815   3.042  19.751  0.00  0.00    +0.000 A 
ATOM     24  C   UNL     1       1.189   3.211  18.419  0.00  0.00    +0.000 A 
ATOM     25  C   UNL     1       1.945   4.325  18.038  0.00  0.00    +0.000 A 
ENDBRANCH  19  20
BRANCH  19  26
ATOM     26  C   UNL     1       4.488   6.065  17.902  0.00  0.00    +0.000 A 
ATOM     27  C   UNL     1       4.770   6.341  16.553  0.00  0.00    +0.000 A 
ATOM     28  C   UNL     1       5.941   5.879  15.948  0.00  0.00    +0.000 A 
ATOM     29  C   UNL     1       6.858   5.133  16.681  0.00  0.00    +0.000 A 
ATOM     30  C   UNL     1       6.616   4.872  18.026  0.00  0.00    +0.000 A 
ATOM     31  C   UNL     1       5.449   5.342  18.634  0.00  0.00    +0.000 A 
ENDBRANCH  19  26
ENDBRANCH  18  19
ENDBRANCH  17  18
ENDBRANCH   8  17
TORSDOF 8
ENDMDL
MODEL 9
REMARK VINA RESULT:      -7.7      2.407      4.836
REMARK  Name = 
REMARK  8 active torsions:
REMARK  status: ('A' for Active; 'I' for Inactive)
REMARK    1  A    between atoms: N_4  and  C_5
REMARK    2  A    between atoms: C_5  and  C_6
REMARK    3  A    between atoms: C_6  and  N_7
REMARK    4  A    between atoms: N_16  and  C_17
REMARK    5  A    between atoms: C_17  and  C_18
REMARK    6  A    between atoms: C_18  and  C_19
REMARK    7  A    between atoms: C_19  and  C_20
REMARK    8  A    between atoms: C_19  and  C_26
REMARK                            x       y       z     vdW  Elec       q    Type
REMARK                         _______ _______ _______ _____ _____    ______ ____
ROOT
ATOM      1  O   UNL     1       1.631   8.766  21.014  0.00  0.00    +0.000 OA
ATOM      2  C   UNL     1       0.901   9.425  20.277  0.00  0.00    +0.000 C 
ATOM      3  C   UNL     1      -0.413  10.049  20.762  0.00  0.00    +0.000 C 
ATOM      4  N   UNL     1      -0.645  11.310  20.045  0.00  0.00    +0.000 N 
ATOM      5  C   UNL     1      -0.627  11.280  18.653  0.00  0.00    +0.000 C 
ATOM      6  O   UNL     1      -1.100  12.162  17.941  0.00  0.00    +0.000 OA
ATOM      7  C   UNL     1      -0.034   9.982  18.080  0.00  0.00    +0.000 C 
ATOM      8  N   UNL     1       1.117   9.593  18.906  0.00  0.00    +0.000 N 
ENDROOT
BRANCH   4   9
ATOM      9  C   UNL     1      -0.979  12.530  20.794  0.00  0.00    +0.000 C 
BRANCH   9  10
ATOM     10  C   UNL     1      -1.784  12.181  22.066  0.00  0.00    +0.000 C 
BRANCH  10  11
ATOM     11  N   UNL     1      -3.232  12.452  22.064  0.00  0.00    +0.000 NA
ATOM     12  C   UNL     1      -3.601  13.725  21.407  0.00  0.00    +0.000 C 
ATOM     13  C   UNL     1      -3.150  14.981  22.176  0.00  0.00    +0.000 C 
ATOM     14  O   UNL     1      -3.634  14.978  23.526  0.00  0.00    +0.000 OA
ATOM     15  C   UNL     1      -3.242  13.787  24.217  0.00  0.00    +0.000 C 
ATOM     16  C   UNL     1      -3.719  12.527  23.469  0.00  0.00    +0.000 C 
ENDBRANCH  10  11
ENDBRANCH   9  10
ENDBRANCH   4   9
BRANCH   8  17
ATOM     17  C   UNL     1       2.318   9.048  18.271  0.00  0.00    +0.000 C 
BRANCH  17  18
ATOM     18  C   UNL     1       2.151   7.582  17.866  0.00  0.00    +0.000 C 
BRANCH  18  19
ATOM     19  C   UNL     1       3.043   6.583  18.653  0.00  0.00    +0.000 C 
BRANCH  19  20
ATOM     20  C   UNL     1       2.261   5.318  19.014  0.00  0.00    +0.000 A 
ATOM     21  C   UNL     1       1.836   5.092  20.334  0.00  0.00    +0.000 A 
ATOM     22  C   UNL     1       1.132   3.935  20.667  0.00  0.00    +0.000 A 
ATOM     23  C   UNL     1       0.838   2.989  19.688  0.00  0.00    +0.000 A 
ATOM     24  C   UNL     1       1.243   3.203  18.372  0.00  0.00    +0.000 A 
ATOM     25  C   UNL     1       1.949   4.362  18.034  0.00  0.00    +0.000 A 
ENDBRANCH  19  20
BRANCH  19  26
ATOM     26  C   UNL     1       4.360   6.240  17.933  0.00  0.00    +0.000 A 
ATOM     27  C   UNL     1       4.568   6.494  16.566  0.00  0.00    +0.000 A 
ATOM     28  C   UNL     1       5.749   6.108  15.929  0.00  0.00    +0.000 A 
ATOM     29  C   UNL     1       6.751   5.463  16.645  0.00  0.00    +0.000 A 
ATOM     30  C   UNL     1       6.583   5.227  18.007  0.00  0.00    +0.000 A 
ATOM     31  C   UNL     1       5.404   5.621  18.647  0.00  0.00    +0.000 A 
ENDBRANCH  19  26
ENDBRANCH  18  19
ENDBRANCH  17  18
ENDBRANCH   8  17
TORSDOF 8
ENDMDL
