MODEL 1
REMARK VINA RESULT:      -7.7      0.000      0.000
REMARK  Name = 
REMARK  10 active torsions:
REMARK  status: ('A' for Active; 'I' for Inactive)
REMARK    1  A    between atoms: C_1  and  C_2
REMARK    2  A    between atoms: C_2  and  C_3
REMARK    3  A    between atoms: C_2  and  C_4
REMARK    4  A    between atoms: C_4  and  C_5
REMARK    5  A    between atoms: C_5  and  O_6
REMARK    6  A    between atoms: O_6  and  C_7
REMARK    7  A    between atoms: C_9  and  S_10
REMARK    8  A    between atoms: S_10  and  C_11
REMARK    9  A    between atoms: C_19  and  C_20
REMARK   10  A    between atoms: C_20  and  O_22
REMARK                            x       y       z     vdW  Elec       q    Type
REMARK                         _______ _______ _______ _____ _____    ______ ____
ROOT
ATOM      1  C   UNL     1       4.448   4.602  19.088  0.00  0.00    +0.000 A 
ATOM      2  C   UNL     1       5.278   4.186  18.039  0.00  0.00    +0.000 A 
ATOM      3  C   UNL     1       5.431   4.983  16.897  0.00  0.00    +0.000 A 
ATOM      4  C   UNL     1       4.712   6.177  16.787  0.00  0.00    +0.000 A 
ATOM      5  C   UNL     1       3.849   6.566  17.818  0.00  0.00    +0.000 A 
ATOM      6  C   UNL     1       3.079   7.816  17.718  0.00  0.00    +0.000 A 
ATOM      7  O   UNL     1       3.160   8.553  16.745  0.00  0.00    +0.000 OA
ATOM      8  C   UNL     1       2.190   8.150  18.840  0.00  0.00    +0.000 A 
ATOM      9  C   UNL     1       1.371   9.288  18.793  0.00  0.00    +0.000 A 
ATOM     10  C   UNL     1       0.530   9.574  19.874  0.00  0.00    +0.000 A 
ATOM     11  C   UNL     1       0.516   8.715  20.984  0.00  0.00    +0.000 A 
ATOM     12  C   UNL     1       1.336   7.583  21.018  0.00  0.00    +0.000 A 
ATOM     13  C   UNL     1       2.170   7.294  19.938  0.00  0.00    +0.000 A 
ATOM     14  O   UNL     1       2.918   6.150  20.032  0.00  0.00    +0.000 OA
ATOM     15  C   UNL     1       3.717   5.793  18.968  0.00  0.00    +0.000 A 
ENDROOT
BRANCH   3  16
ATOM     16  S   UNL     1       6.647   4.503  15.643  0.00  0.00    +0.000 S 
ATOM     17  C   UNL     1       5.522   4.318  14.241  0.00  0.00    +0.000 C 
ATOM     18  O   UNL     1       7.535   5.769  15.367  0.00  0.00    +0.000 OA
ENDBRANCH   3  16
BRANCH  10  19
ATOM     19  C   UNL     1      -0.416  10.720  19.880  0.00  0.00    +0.000 C 
ATOM     20  O   UNL     1      -0.734  11.307  18.858  0.00  0.00    +0.000 OA
BRANCH  19  21
ATOM     21  O   UNL     1      -0.921  11.035  21.089  0.00  0.00    +0.000 OA
ATOM     22  H   UNL     1      -1.683  11.643  21.095  0.00  0.00    +0.000 HD
ENDBRANCH  19  21
ENDBRANCH  10  19
BRANCH   1  23
ATOM     23  O   UNL     1       4.291   3.913  20.266  0.00  0.00    +0.000 OA
BRANCH  23  24
ATOM     24  C   UNL     1       3.849   2.559  20.155  0.00  0.00    +0.000 C 
BRANCH  24  25
ATOM     25  C   UNL     1       2.548   2.408  20.944  0.00  0.00    +0.000 C 
BRANCH  25  27
ATOM     26  C   UNL     1       0.664   3.930  20.266  0.00  0.00    +0.000 C 
ATOM     27  C   UNL     1       1.292   2.551  20.067  0.00  0.00    +0.000 C 
ATOM     28  C   UNL     1       1.590   2.330  18.582  0.00  0.00    +0.000 C 
ENDBRANCH  25  27
ENDBRANCH  24  25
ENDBRANCH  23  24
ENDBRANCH   1  23
TORSDOF 7
ENDMDL
MODEL 2
REMARK VINA RESULT:      -7.6      1.357      2.069
REMARK  Name = 
REMARK  10 active torsions:
REMARK  status: ('A' for Active; 'I' for Inactive)
REMARK    1  A    between atoms: C_1  and  C_2
REMARK    2  A    between atoms: C_2  and  C_3
REMARK    3  A    between atoms: C_2  and  C_4
REMARK    4  A    between atoms: C_4  and  C_5
REMARK    5  A    between atoms: C_5  and  O_6
REMARK    6  A    between atoms: O_6  and  C_7
REMARK    7  A    between atoms: C_9  and  S_10
REMARK    8  A    between atoms: S_10  and  C_11
REMARK    9  A    between atoms: C_19  and  C_20
REMARK   10  A    between atoms: C_20  and  O_22
REMARK                            x       y       z     vdW  Elec       q    Type
REMARK                         _______ _______ _______ _____ _____    ______ ____
ROOT
ATOM      1  C   UNL     1       2.942   5.842  19.750  0.00  0.00    +0.000 A 
ATOM      2  C   UNL     1       3.831   5.393  18.764  0.00  0.00    +0.000 A 
ATOM      3  C   UNL     1       4.141   6.206  17.666  0.00  0.00    +0.000 A 
ATOM      4  C   UNL     1       3.522   7.452  17.532  0.00  0.00    +0.000 A 
ATOM      5  C   UNL     1       2.601   7.878  18.496  0.00  0.00    +0.000 A 
ATOM      6  C   UNL     1       1.933   9.183  18.370  0.00  0.00    +0.000 A 
ATOM      7  O   UNL     1       2.153   9.937  17.432  0.00  0.00    +0.000 OA
ATOM      8  C   UNL     1       0.975   9.552  19.421  0.00  0.00    +0.000 A 
ATOM      9  C   UNL     1       0.246  10.749  19.340  0.00  0.00    +0.000 A 
ATOM     10  C   UNL     1      -0.665  11.069  20.352  0.00  0.00    +0.000 A 
ATOM     11  C   UNL     1      -0.839  10.184  21.428  0.00  0.00    +0.000 A 
ATOM     12  C   UNL     1      -0.109   8.994  21.497  0.00  0.00    +0.000 A 
ATOM     13  C   UNL     1       0.796   8.673  20.485  0.00  0.00    +0.000 A 
ATOM     14  O   UNL     1       1.449   7.475  20.606  0.00  0.00    +0.000 OA
ATOM     15  C   UNL     1       2.312   7.087  19.605  0.00  0.00    +0.000 A 
ENDROOT
BRANCH   3  16
ATOM     16  S   UNL     1       5.427   5.670  16.508  0.00  0.00    +0.000 S 
ATOM     17  C   UNL     1       4.813   4.001  16.187  0.00  0.00    +0.000 C 
ATOM     18  O   UNL     1       5.227   6.504  15.193  0.00  0.00    +0.000 OA
ENDBRANCH   3  16
BRANCH  10  19
ATOM     19  C   UNL     1      -1.524  12.280  20.312  0.00  0.00    +0.000 C 
ATOM     20  O   UNL     1      -2.194  12.636  21.267  0.00  0.00    +0.000 OA
BRANCH  19  21
ATOM     21  O   UNL     1      -1.478  12.972  19.156  0.00  0.00    +0.000 OA
ATOM     22  H   UNL     1      -0.616  13.003  18.704  0.00  0.00    +0.000 HD
ENDBRANCH  19  21
ENDBRANCH  10  19
BRANCH   1  23
ATOM     23  O   UNL     1       2.633   5.137  20.887  0.00  0.00    +0.000 OA
BRANCH  23  24
ATOM     24  C   UNL     1       1.513   4.254  20.800  0.00  0.00    +0.000 C 
BRANCH  24  25
ATOM     25  C   UNL     1       2.026   2.815  20.851  0.00  0.00    +0.000 C 
BRANCH  25  27
ATOM     26  C   UNL     1       0.955   2.863  18.576  0.00  0.00    +0.000 C 
ATOM     27  C   UNL     1       1.866   2.071  19.514  0.00  0.00    +0.000 C 
ATOM     28  C   UNL     1       3.209   1.808  18.829  0.00  0.00    +0.000 C 
ENDBRANCH  25  27
ENDBRANCH  24  25
ENDBRANCH  23  24
ENDBRANCH   1  23
TORSDOF 7
ENDMDL
MODEL 3
REMARK VINA RESULT:      -7.6      1.543      2.066
REMARK  Name = 
REMARK  10 active torsions:
REMARK  status: ('A' for Active; 'I' for Inactive)
REMARK    1  A    between atoms: C_1  and  C_2
REMARK    2  A    between atoms: C_2  and  C_3
REMARK    3  A    between atoms: C_2  and  C_4
REMARK    4  A    between atoms: C_4  and  C_5
REMARK    5  A    between atoms: C_5  and  O_6
REMARK    6  A    between atoms: O_6  and  C_7
REMARK    7  A    between atoms: C_9  and  S_10
REMARK    8  A    between atoms: S_10  and  C_11
REMARK    9  A    between atoms: C_19  and  C_20
REMARK   10  A    between atoms: C_20  and  O_22
REMARK                            x       y       z     vdW  Elec       q    Type
REMARK                         _______ _______ _______ _____ _____    ______ ____
ROOT
ATOM      1  C   UNL     1       2.919   5.730  19.738  0.00  0.00    +0.000 A 
ATOM      2  C   UNL     1       3.713   5.269  18.680  0.00  0.00    +0.000 A 
ATOM      3  C   UNL     1       3.956   6.087  17.568  0.00  0.00    +0.000 A 
ATOM      4  C   UNL     1       3.362   7.350  17.496  0.00  0.00    +0.000 A 
ATOM      5  C   UNL     1       2.533   7.788  18.535  0.00  0.00    +0.000 A 
ATOM      6  C   UNL     1       1.893   9.112  18.476  0.00  0.00    +0.000 A 
ATOM      7  O   UNL     1       2.057   9.870  17.531  0.00  0.00    +0.000 OA
ATOM      8  C   UNL     1       1.032   9.493  19.604  0.00  0.00    +0.000 A 
ATOM      9  C   UNL     1       0.332  10.709  19.593  0.00  0.00    +0.000 A 
ATOM     10  C   UNL     1      -0.487  11.041  20.679  0.00  0.00    +0.000 A 
ATOM     11  C   UNL     1      -0.598  10.149  21.757  0.00  0.00    +0.000 A 
ATOM     12  C   UNL     1       0.104   8.939  21.755  0.00  0.00    +0.000 A 
ATOM     13  C   UNL     1       0.915   8.607  20.670  0.00  0.00    +0.000 A 
ATOM     14  O   UNL     1       1.543   7.390  20.728  0.00  0.00    +0.000 OA
ATOM     15  C   UNL     1       2.313   6.992  19.656  0.00  0.00    +0.000 A 
ENDROOT
BRANCH   3  16
ATOM     16  S   UNL     1       5.131   5.531  16.306  0.00  0.00    +0.000 S 
ATOM     17  C   UNL     1       6.630   6.262  17.001  0.00  0.00    +0.000 C 
ATOM     18  O   UNL     1       5.255   3.974  16.458  0.00  0.00    +0.000 OA
ENDBRANCH   3  16
BRANCH  10  19
ATOM     19  C   UNL     1      -1.313  12.275  20.719  0.00  0.00    +0.000 C 
ATOM     20  O   UNL     1      -1.535  12.943  19.723  0.00  0.00    +0.000 OA
BRANCH  19  21
ATOM     21  O   UNL     1      -1.826  12.577  21.929  0.00  0.00    +0.000 OA
ATOM     22  H   UNL     1      -2.755  12.325  22.080  0.00  0.00    +0.000 HD
ENDBRANCH  19  21
ENDBRANCH  10  19
BRANCH   1  23
ATOM     23  O   UNL     1       2.683   5.020  20.889  0.00  0.00    +0.000 OA
BRANCH  23  24
ATOM     24  C   UNL     1       1.603   4.085  20.848  0.00  0.00    +0.000 C 
BRANCH  24  25
ATOM     25  C   UNL     1       2.187   2.672  20.796  0.00  0.00    +0.000 C 
BRANCH  25  27
ATOM     26  C   UNL     1       0.821   2.707  18.684  0.00  0.00    +0.000 C 
ATOM     27  C   UNL     1       1.884   1.945  19.475  0.00  0.00    +0.000 C 
ATOM     28  C   UNL     1       3.134   1.760  18.611  0.00  0.00    +0.000 C 
ENDBRANCH  25  27
ENDBRANCH  24  25
ENDBRANCH  23  24
ENDBRANCH   1  23
TORSDOF 7
ENDMDL
MODEL 4
REMARK VINA RESULT:      -7.5      2.295      6.334
REMARK  Name = 
REMARK  10 active torsions:
REMARK  status: ('A' for Active; 'I' for Inactive)
REMARK    1  A    between atoms: C_1  and  C_2
REMARK    2  A    between atoms: C_2  and  C_3
REMARK    3  A    between atoms: C_2  and  C_4
REMARK    4  A    between atoms: C_4  and  C_5
REMARK    5  A    between atoms: C_5  and  O_6
REMARK    6  A    between atoms: O_6  and  C_7
REMARK    7  A    between atoms: C_9  and  S_10
REMARK    8  A    between atoms: S_10  and  C_11
REMARK    9  A    between atoms: C_19  and  C_20
REMARK   10  A    between atoms: C_20  and  O_22
REMARK                            x       y       z     vdW  Elec       q    Type
REMARK                         _______ _______ _______ _____ _____    ______ ____
ROOT
ATOM      1  C   UNL     1       2.193   6.011  20.539  0.00  0.00    +0.000 A 
ATOM      2  C   UNL     1       1.459   7.120  20.979  0.00  0.00    +0.000 A 
ATOM      3  C   UNL     1       1.381   8.277  20.192  0.00  0.00    +0.000 A 
ATOM      4  C   UNL     1       2.080   8.338  18.983  0.00  0.00    +0.000 A 
ATOM      5  C   UNL     1       2.849   7.244  18.569  0.00  0.00    +0.000 A 
ATOM      6  C   UNL     1       3.598   7.291  17.303  0.00  0.00    +0.000 A 
ATOM      7  O   UNL     1       3.579   8.273  16.574  0.00  0.00    +0.000 OA
ATOM      8  C   UNL     1       4.387   6.104  16.944  0.00  0.00    +0.000 A 
ATOM      9  C   UNL     1       5.182   6.093  15.788  0.00  0.00    +0.000 A 
ATOM     10  C   UNL     1       5.928   4.951  15.477  0.00  0.00    +0.000 A 
ATOM     11  C   UNL     1       5.871   3.837  16.331  0.00  0.00    +0.000 A 
ATOM     12  C   UNL     1       5.076   3.861  17.480  0.00  0.00    +0.000 A 
ATOM     13  C   UNL     1       4.337   5.002  17.793  0.00  0.00    +0.000 A 
ATOM     14  O   UNL     1       3.609   4.960  18.953  0.00  0.00    +0.000 OA
ATOM     15  C   UNL     1       2.905   6.082  19.333  0.00  0.00    +0.000 A 
ENDROOT
BRANCH   3  16
ATOM     16  S   UNL     1       0.279   9.620  20.705  0.00  0.00    +0.000 S 
ATOM     17  C   UNL     1       0.355   9.354  22.492  0.00  0.00    +0.000 C 
ATOM     18  O   UNL     1       1.032  10.964  20.400  0.00  0.00    +0.000 OA
ENDBRANCH   3  16
BRANCH  10  19
ATOM     19  C   UNL     1       6.846   4.878  14.312  0.00  0.00    +0.000 C 
ATOM     20  O   UNL     1       6.595   4.205  13.326  0.00  0.00    +0.000 OA
BRANCH  19  21
ATOM     21  O   UNL     1       7.954   5.639  14.412  0.00  0.00    +0.000 OA
ATOM     22  H   UNL     1       7.861   6.479  14.897  0.00  0.00    +0.000 HD
ENDBRANCH  19  21
ENDBRANCH  10  19
BRANCH   1  23
ATOM     23  O   UNL     1       2.270   4.820  21.218  0.00  0.00    +0.000 OA
BRANCH  23  24
ATOM     24  C   UNL     1       1.228   3.876  20.962  0.00  0.00    +0.000 C 
BRANCH  24  25
ATOM     25  C   UNL     1       1.862   2.501  20.747  0.00  0.00    +0.000 C 
BRANCH  25  27
ATOM     26  C   UNL     1       0.936   3.000  18.462  0.00  0.00    +0.000 C 
ATOM     27  C   UNL     1       1.660   1.963  19.320  0.00  0.00    +0.000 C 
ATOM     28  C   UNL     1       2.980   1.573  18.652  0.00  0.00    +0.000 C 
ENDBRANCH  25  27
ENDBRANCH  24  25
ENDBRANCH  23  24
ENDBRANCH   1  23
TORSDOF 7
ENDMDL
MODEL 5
REMARK VINA RESULT:      -7.5      1.021      1.206
REMARK  Name = 
REMARK  10 active torsions:
REMARK  status: ('A' for Active; 'I' for Inactive)
REMARK    1  A    between atoms: C_1  and  C_2
REMARK    2  A    between atoms: C_2  and  C_3
REMARK    3  A    between atoms: C_2  and  C_4
REMARK    4  A    between atoms: C_4  and  C_5
REMARK    5  A    between atoms: C_5  and  O_6
REMARK    6  A    between atoms: O_6  and  C_7
REMARK    7  A    between atoms: C_9  and  S_10
REMARK    8  A    between atoms: S_10  and  C_11
REMARK    9  A    between atoms: C_19  and  C_20
REMARK   10  A    between atoms: C_20  and  O_22
REMARK                            x       y       z     vdW  Elec       q    Type
REMARK                         _______ _______ _______ _____ _____    ______ ____
ROOT
ATOM      1  C   UNL     1       4.058   5.165  18.997  0.00  0.00    +0.000 A 
ATOM      2  C   UNL     1       4.813   4.857  17.858  0.00  0.00    +0.000 A 
ATOM      3  C   UNL     1       4.851   5.740  16.771  0.00  0.00    +0.000 A 
ATOM      4  C   UNL     1       4.091   6.913  16.808  0.00  0.00    +0.000 A 
ATOM      5  C   UNL     1       3.303   7.195  17.929  0.00  0.00    +0.000 A 
ATOM      6  C   UNL     1       2.490   8.421  17.985  0.00  0.00    +0.000 A 
ATOM      7  O   UNL     1       2.471   9.230  17.067  0.00  0.00    +0.000 OA
ATOM      8  C   UNL     1       1.685   8.640  19.195  0.00  0.00    +0.000 A 
ATOM      9  C   UNL     1       0.832   9.749  19.298  0.00  0.00    +0.000 A 
ATOM     10  C   UNL     1       0.072   9.926  20.460  0.00  0.00    +0.000 A 
ATOM     11  C   UNL     1       0.173   8.988  21.499  0.00  0.00    +0.000 A 
ATOM     12  C   UNL     1       1.025   7.886  21.383  0.00  0.00    +0.000 A 
ATOM     13  C   UNL     1       1.778   7.707  20.223  0.00  0.00    +0.000 A 
ATOM     14  O   UNL     1       2.565   6.586  20.172  0.00  0.00    +0.000 OA
ATOM     15  C   UNL     1       3.286   6.336  19.024  0.00  0.00    +0.000 A 
ENDROOT
BRANCH   3  16
ATOM     16  S   UNL     1       5.976   5.397  15.394  0.00  0.00    +0.000 S 
ATOM     17  C   UNL     1       7.250   4.501  16.313  0.00  0.00    +0.000 C 
ATOM     18  O   UNL     1       5.251   4.358  14.466  0.00  0.00    +0.000 OA
ENDBRANCH   3  16
BRANCH  10  19
ATOM     19  C   UNL     1      -0.904  11.034  20.626  0.00  0.00    +0.000 C 
ATOM     20  O   UNL     1      -1.143  11.534  21.712  0.00  0.00    +0.000 OA
BRANCH  19  21
ATOM     21  O   UNL     1      -1.474  11.465  19.483  0.00  0.00    +0.000 OA
ATOM     22  H   UNL     1      -2.439  11.597  19.504  0.00  0.00    +0.000 HD
ENDBRANCH  19  21
ENDBRANCH  10  19
BRANCH   1  23
ATOM     23  O   UNL     1       4.017   4.388  20.128  0.00  0.00    +0.000 OA
BRANCH  23  24
ATOM     24  C   UNL     1       3.892   2.979  19.925  0.00  0.00    +0.000 C 
BRANCH  24  25
ATOM     25  C   UNL     1       2.702   2.475  20.743  0.00  0.00    +0.000 C 
BRANCH  25  27
ATOM     26  C   UNL     1       0.661   3.880  20.317  0.00  0.00    +0.000 C 
ATOM     27  C   UNL     1       1.368   2.567  19.984  0.00  0.00    +0.000 C 
ATOM     28  C   UNL     1       1.549   2.450  18.469  0.00  0.00    +0.000 C 
ENDBRANCH  25  27
ENDBRANCH  24  25
ENDBRANCH  23  24
ENDBRANCH   1  23
TORSDOF 7
ENDMDL
MODEL 6
REMARK VINA RESULT:      -7.4      1.221      1.476
REMARK  Name = 
REMARK  10 active torsions:
REMARK  status: ('A' for Active; 'I' for Inactive)
REMARK    1  A    between atoms: C_1  and  C_2
REMARK    2  A    between atoms: C_2  and  C_3
REMARK    3  A    between atoms: C_2  and  C_4
REMARK    4  A    between atoms: C_4  and  C_5
REMARK    5  A    between atoms: C_5  and  O_6
REMARK    6  A    between atoms: O_6  and  C_7
REMARK    7  A    between atoms: C_9  and  S_10
REMARK    8  A    between atoms: S_10  and  C_11
REMARK    9  A    between atoms: C_19  and  C_20
REMARK   10  A    between atoms: C_20  and  O_22
REMARK                            x       y       z     vdW  Elec       q    Type
REMARK                         _______ _______ _______ _____ _____    ______ ____
ROOT
ATOM      1  C   UNL     1       3.747   5.383  19.316  0.00  0.00    +0.000 A 
ATOM      2  C   UNL     1       4.571   5.027  18.241  0.00  0.00    +0.000 A 
ATOM      3  C   UNL     1       4.709   5.882  17.139  0.00  0.00    +0.000 A 
ATOM      4  C   UNL     1       3.980   7.074  17.095  0.00  0.00    +0.000 A 
ATOM      5  C   UNL     1       3.123   7.404  18.150  0.00  0.00    +0.000 A 
ATOM      6  C   UNL     1       2.341   8.651  18.120  0.00  0.00    +0.000 A 
ATOM      7  O   UNL     1       2.409   9.436  17.184  0.00  0.00    +0.000 OA
ATOM      8  C   UNL     1       1.459   8.920  19.264  0.00  0.00    +0.000 A 
ATOM      9  C   UNL     1       0.631  10.053  19.281  0.00  0.00    +0.000 A 
ATOM     10  C   UNL     1      -0.204  10.278  20.381  0.00  0.00    +0.000 A 
ATOM     11  C   UNL     1      -0.202   9.363  21.446  0.00  0.00    +0.000 A 
ATOM     12  C   UNL     1       0.627   8.238  21.417  0.00  0.00    +0.000 A 
ATOM     13  C   UNL     1       1.455   8.011  20.318  0.00  0.00    +0.000 A 
ATOM     14  O   UNL     1       2.212   6.870  20.348  0.00  0.00    +0.000 OA
ATOM     15  C   UNL     1       3.006   6.573  19.261  0.00  0.00    +0.000 A 
ENDROOT
BRANCH   3  16
ATOM     16  S   UNL     1       5.919   5.476  15.854  0.00  0.00    +0.000 S 
ATOM     17  C   UNL     1       7.133   4.630  16.893  0.00  0.00    +0.000 C 
ATOM     18  O   UNL     1       5.254   4.390  14.934  0.00  0.00    +0.000 OA
ENDBRANCH   3  16
BRANCH  10  19
ATOM     19  C   UNL     1      -1.159  11.413  20.451  0.00  0.00    +0.000 C 
ATOM     20  O   UNL     1      -1.793  11.791  19.480  0.00  0.00    +0.000 OA
BRANCH  19  21
ATOM     21  O   UNL     1      -1.296  11.967  21.672  0.00  0.00    +0.000 OA
ATOM     22  H   UNL     1      -1.447  12.929  21.697  0.00  0.00    +0.000 HD
ENDBRANCH  19  21
ENDBRANCH  10  19
BRANCH   1  23
ATOM     23  O   UNL     1       3.605   4.635  20.459  0.00  0.00    +0.000 OA
BRANCH  23  24
ATOM     24  C   UNL     1       3.145   3.294  20.286  0.00  0.00    +0.000 C 
BRANCH  24  25
ATOM     25  C   UNL     1       1.666   3.335  19.901  0.00  0.00    +0.000 C 
BRANCH  25  27
ATOM     26  C   UNL     1       1.148   3.998  17.531  0.00  0.00    +0.000 C 
ATOM     27  C   UNL     1       1.401   2.823  18.475  0.00  0.00    +0.000 C 
ATOM     28  C   UNL     1       2.552   1.970  17.938  0.00  0.00    +0.000 C 
ENDBRANCH  25  27
ENDBRANCH  24  25
ENDBRANCH  23  24
ENDBRANCH   1  23
TORSDOF 7
ENDMDL
MODEL 7
REMARK VINA RESULT:      -7.4      2.026      4.279
REMARK  Name = 
REMARK  10 active torsions:
REMARK  status: ('A' for Active; 'I' for Inactive)
REMARK    1  A    between atoms: C_1  and  C_2
REMARK    2  A    between atoms: C_2  and  C_3
REMARK    3  A    between atoms: C_2  and  C_4
REMARK    4  A    between atoms: C_4  and  C_5
REMARK    5  A    between atoms: C_5  and  O_6
REMARK    6  A    between atoms: O_6  and  C_7
REMARK    7  A    between atoms: C_9  and  S_10
REMARK    8  A    between atoms: S_10  and  C_11
REMARK    9  A    between atoms: C_19  and  C_20
REMARK   10  A    between atoms: C_20  and  O_22
REMARK                            x       y       z     vdW  Elec       q    Type
REMARK                         _______ _______ _______ _____ _____    ______ ____
ROOT
ATOM      1  C   UNL     1       3.847   5.955  17.683  0.00  0.00    +0.000 A 
ATOM      2  C   UNL     1       4.062   4.660  18.171  0.00  0.00    +0.000 A 
ATOM      3  C   UNL     1       3.439   4.235  19.352  0.00  0.00    +0.000 A 
ATOM      4  C   UNL     1       2.637   5.127  20.070  0.00  0.00    +0.000 A 
ATOM      5  C   UNL     1       2.461   6.434  19.602  0.00  0.00    +0.000 A 
ATOM      6  C   UNL     1       1.626   7.391  20.346  0.00  0.00    +0.000 A 
ATOM      7  O   UNL     1       1.061   7.086  21.387  0.00  0.00    +0.000 OA
ATOM      8  C   UNL     1       1.499   8.745  19.791  0.00  0.00    +0.000 A 
ATOM      9  C   UNL     1       0.776   9.736  20.474  0.00  0.00    +0.000 A 
ATOM     10  C   UNL     1       0.679  11.019  19.924  0.00  0.00    +0.000 A 
ATOM     11  C   UNL     1       1.311  11.294  18.701  0.00  0.00    +0.000 A 
ATOM     12  C   UNL     1       2.029  10.299  18.031  0.00  0.00    +0.000 A 
ATOM     13  C   UNL     1       2.130   9.022  18.582  0.00  0.00    +0.000 A 
ATOM     14  O   UNL     1       2.879   8.112  17.883  0.00  0.00    +0.000 OA
ATOM     15  C   UNL     1       3.053   6.852  18.413  0.00  0.00    +0.000 A 
ENDROOT
BRANCH   3  16
ATOM     16  S   UNL     1       3.594   2.502  19.856  0.00  0.00    +0.000 S 
ATOM     17  C   UNL     1       3.346   1.734  18.239  0.00  0.00    +0.000 C 
ATOM     18  O   UNL     1       5.097   2.280  20.253  0.00  0.00    +0.000 OA
ENDBRANCH   3  16
BRANCH  10  19
ATOM     19  C   UNL     1      -0.008  12.142  20.611  0.00  0.00    +0.000 C 
ATOM     20  O   UNL     1       0.268  12.474  21.752  0.00  0.00    +0.000 OA
BRANCH  19  21
ATOM     21  O   UNL     1      -0.931  12.785  19.868  0.00  0.00    +0.000 OA
ATOM     22  H   UNL     1      -0.752  13.722  19.671  0.00  0.00    +0.000 HD
ENDBRANCH  19  21
ENDBRANCH  10  19
BRANCH   1  23
ATOM     23  O   UNL     1       4.367   6.430  16.504  0.00  0.00    +0.000 OA
BRANCH  23  24
ATOM     24  C   UNL     1       5.746   6.147  16.259  0.00  0.00    +0.000 C 
BRANCH  24  25
ATOM     25  C   UNL     1       6.582   6.839  17.336  0.00  0.00    +0.000 C 
BRANCH  25  27
ATOM     26  C   UNL     1       7.409   5.816  19.479  0.00  0.00    +0.000 C 
ATOM     27  C   UNL     1       7.633   5.912  17.970  0.00  0.00    +0.000 C 
ATOM     28  C   UNL     1       7.620   4.510  17.357  0.00  0.00    +0.000 C 
ENDBRANCH  25  27
ENDBRANCH  24  25
ENDBRANCH  23  24
ENDBRANCH   1  23
TORSDOF 7
ENDMDL
MODEL 8
REMARK VINA RESULT:      -7.3      1.311      1.631
REMARK  Name = 
REMARK  10 active torsions:
REMARK  status: ('A' for Active; 'I' for Inactive)
REMARK    1  A    between atoms: C_1  and  C_2
REMARK    2  A    between atoms: C_2  and  C_3
REMARK    3  A    between atoms: C_2  and  C_4
REMARK    4  A    between atoms: C_4  and  C_5
REMARK    5  A    between atoms: C_5  and  O_6
REMARK    6  A    between atoms: O_6  and  C_7
REMARK    7  A    between atoms: C_9  and  S_10
REMARK    8  A    between atoms: S_10  and  C_11
REMARK    9  A    between atoms: C_19  and  C_20
REMARK   10  A    between atoms: C_20  and  O_22
REMARK                            x       y       z     vdW  Elec       q    Type
REMARK                         _______ _______ _______ _____ _____    ______ ____
ROOT
ATOM      1  C   UNL     1       3.172   5.315  20.001  0.00  0.00    +0.000 A 
ATOM      2  C   UNL     1       4.063   4.733  19.090  0.00  0.00    +0.000 A 
ATOM      3  C   UNL     1       4.421   5.410  17.916  0.00  0.00    +0.000 A 
ATOM      4  C   UNL     1       3.846   6.652  17.633  0.00  0.00    +0.000 A 
ATOM      5  C   UNL     1       2.922   7.210  18.524  0.00  0.00    +0.000 A 
ATOM      6  C   UNL     1       2.300   8.513  18.241  0.00  0.00    +0.000 A 
ATOM      7  O   UNL     1       2.563   9.152  17.231  0.00  0.00    +0.000 OA
ATOM      8  C   UNL     1       1.335   9.026  19.223  0.00  0.00    +0.000 A 
ATOM      9  C   UNL     1       0.649  10.228  18.996  0.00  0.00    +0.000 A 
ATOM     10  C   UNL     1      -0.271  10.685  19.946  0.00  0.00    +0.000 A 
ATOM     11  C   UNL     1      -0.494   9.931  21.108  0.00  0.00    +0.000 A 
ATOM     12  C   UNL     1       0.195   8.733  21.323  0.00  0.00    +0.000 A 
ATOM     13  C   UNL     1       1.107   8.275  20.373  0.00  0.00    +0.000 A 
ATOM     14  O   UNL     1       1.718   7.077  20.640  0.00  0.00    +0.000 OA
ATOM     15  C   UNL     1       2.586   6.555  19.706  0.00  0.00    +0.000 A 
ENDROOT
BRANCH   3  16
ATOM     16  S   UNL     1       5.710   4.710  16.853  0.00  0.00    +0.000 S 
ATOM     17  C   UNL     1       5.427   5.732  15.389  0.00  0.00    +0.000 C 
ATOM     18  O   UNL     1       7.088   5.145  17.468  0.00  0.00    +0.000 OA
ENDBRANCH   3  16
BRANCH  10  19
ATOM     19  C   UNL     1      -1.088  11.911  19.754  0.00  0.00    +0.000 C 
ATOM     20  O   UNL     1      -2.264  11.866  19.433  0.00  0.00    +0.000 OA
BRANCH  19  21
ATOM     21  O   UNL     1      -0.443  13.069  19.997  0.00  0.00    +0.000 OA
ATOM     22  H   UNL     1       0.334  13.257  19.440  0.00  0.00    +0.000 HD
ENDBRANCH  19  21
ENDBRANCH  10  19
BRANCH   1  23
ATOM     23  O   UNL     1       2.818   4.750  21.201  0.00  0.00    +0.000 OA
BRANCH  23  24
ATOM     24  C   UNL     1       2.297   3.420  21.146  0.00  0.00    +0.000 C 
BRANCH  24  25
ATOM     25  C   UNL     1       0.934   3.462  20.453  0.00  0.00    +0.000 C 
BRANCH  25  27
ATOM     26  C   UNL     1       0.966   3.682  17.949  0.00  0.00    +0.000 C 
ATOM     27  C   UNL     1       0.915   2.699  19.118  0.00  0.00    +0.000 C 
ATOM     28  C   UNL     1       2.067   1.699  19.001  0.00  0.00    +0.000 C 
ENDBRANCH  25  27
ENDBRANCH  24  25
ENDBRANCH  23  24
ENDBRANCH   1  23
TORSDOF 7
ENDMDL
MODEL 9
REMARK VINA RESULT:      -7.2      2.047      4.463
REMARK  Name = 
REMARK  10 active torsions:
REMARK  status: ('A' for Active; 'I' for Inactive)
REMARK    1  A    between atoms: C_1  and  C_2
REMARK    2  A    between atoms: C_2  and  C_3
REMARK    3  A    between atoms: C_2  and  C_4
REMARK    4  A    between atoms: C_4  and  C_5
REMARK    5  A    between atoms: C_5  and  O_6
REMARK    6  A    between atoms: O_6  and  C_7
REMARK    7  A    between atoms: C_9  and  S_10
REMARK    8  A    between atoms: S_10  and  C_11
REMARK    9  A    between atoms: C_19  and  C_20
REMARK   10  A    between atoms: C_20  and  O_22
REMARK                            x       y       z     vdW  Elec       q    Type
REMARK                         _______ _______ _______ _____ _____    ______ ____
ROOT
ATOM      1  C   UNL     1       3.782   6.019  17.730  0.00  0.00    +0.000 A 
ATOM      2  C   UNL     1       3.992   4.735  18.248  0.00  0.00    +0.000 A 
ATOM      3  C   UNL     1       3.371   4.341  19.441  0.00  0.00    +0.000 A 
ATOM      4  C   UNL     1       2.577   5.255  20.140  0.00  0.00    +0.000 A 
ATOM      5  C   UNL     1       2.407   6.551  19.642  0.00  0.00    +0.000 A 
ATOM      6  C   UNL     1       1.580   7.530  20.367  0.00  0.00    +0.000 A 
ATOM      7  O   UNL     1       1.018   7.253  21.417  0.00  0.00    +0.000 OA
ATOM      8  C   UNL     1       1.458   8.872  19.781  0.00  0.00    +0.000 A 
ATOM      9  C   UNL     1       0.744   9.882  20.443  0.00  0.00    +0.000 A 
ATOM     10  C   UNL     1       0.652  11.152  19.863  0.00  0.00    +0.000 A 
ATOM     11  C   UNL     1       1.281  11.395  18.631  0.00  0.00    +0.000 A 
ATOM     12  C   UNL     1       1.990  10.380  17.982  0.00  0.00    +0.000 A 
ATOM     13  C   UNL     1       2.086   9.116  18.563  0.00  0.00    +0.000 A 
ATOM     14  O   UNL     1       2.827   8.185  17.882  0.00  0.00    +0.000 OA
ATOM     15  C   UNL     1       2.997   6.937  18.442  0.00  0.00    +0.000 A 
ENDROOT
BRANCH   3  16
ATOM     16  S   UNL     1       3.519   2.620  19.986  0.00  0.00    +0.000 S 
ATOM     17  C   UNL     1       2.474   2.718  21.457  0.00  0.00    +0.000 C 
ATOM     18  O   UNL     1       2.757   1.744  18.928  0.00  0.00    +0.000 OA
ENDBRANCH   3  16
BRANCH  10  19
ATOM     19  C   UNL     1      -0.026  12.296  20.526  0.00  0.00    +0.000 C 
ATOM     20  O   UNL     1      -0.843  12.993  19.947  0.00  0.00    +0.000 OA
BRANCH  19  21
ATOM     21  O   UNL     1       0.302  12.479  21.820  0.00  0.00    +0.000 OA
ATOM     22  H   UNL     1       0.798  11.758  22.248  0.00  0.00    +0.000 HD
ENDBRANCH  19  21
ENDBRANCH  10  19
BRANCH   1  23
ATOM     23  O   UNL     1       4.300   6.463  16.538  0.00  0.00    +0.000 OA
BRANCH  23  24
ATOM     24  C   UNL     1       5.662   6.122  16.272  0.00  0.00    +0.000 C 
BRANCH  24  25
ATOM     25  C   UNL     1       6.549   6.834  17.294  0.00  0.00    +0.000 C 
BRANCH  25  27
ATOM     26  C   UNL     1       7.339   5.782  19.437  0.00  0.00    +0.000 C 
ATOM     27  C   UNL     1       7.593   5.905  17.935  0.00  0.00    +0.000 C 
ATOM     28  C   UNL     1       7.604   4.514  17.299  0.00  0.00    +0.000 C 
ENDBRANCH  25  27
ENDBRANCH  24  25
ENDBRANCH  23  24
ENDBRANCH   1  23
TORSDOF 7
ENDMDL
