MODEL 1
REMARK VINA RESULT:      -7.6      0.000      0.000
REMARK  Name = 
REMARK  4 active torsions:
REMARK  status: ('A' for Active; 'I' for Inactive)
REMARK    1  A    between atoms: C_2  and  C_3
REMARK    2  A    between atoms: C_3  and  N_4
REMARK    3  A    between atoms: N_7  and  C_8
REMARK    4  A    between atoms: N_16  and  C_17
REMARK                            x       y       z     vdW  Elec       q    Type
REMARK                         _______ _______ _______ _____ _____    ______ ____
ROOT
ATOM      1  C   UNL     1       7.322   7.061  17.101  0.00  0.00    +0.000 C 
ENDROOT
BRANCH   1   2
ATOM      2  N   UNL     1       5.868   7.027  17.408  0.00  0.00    +0.000 NA
ATOM      3  C   UNL     1       5.028   6.585  16.261  0.00  0.00    +0.000 C 
ATOM      4  C   UNL     1       4.954   5.071  15.924  0.00  0.00    +0.000 C 
ATOM      5  N   UNL     1       4.906   4.193  17.106  0.00  0.00    +0.000 N 
ATOM      6  C   UNL     1       5.824   4.591  18.188  0.00  0.00    +0.000 C 
ATOM      7  C   UNL     1       5.629   6.086  18.538  0.00  0.00    +0.000 C 
BRANCH   5   8
ATOM      8  C   UNL     1       3.713   3.633  17.557  0.00  0.00    +0.000 A 
ATOM      9  C   UNL     1       3.729   2.313  18.047  0.00  0.00    +0.000 A 
ATOM     10  C   UNL     1       2.588   1.705  18.572  0.00  0.00    +0.000 A 
ATOM     11  C   UNL     1       1.389   2.407  18.619  0.00  0.00    +0.000 A 
ATOM     12  C   UNL     1       1.342   3.713  18.127  0.00  0.00    +0.000 A 
ATOM     13  C   UNL     1       2.490   4.312  17.588  0.00  0.00    +0.000 A 
ENDBRANCH   5   8
ENDBRANCH   1   2
BRANCH   1  15
ATOM     14  O   UNL     1       8.665   7.323  19.080  0.00  0.00    +0.000 OA
ATOM     15  C   UNL     1       8.130   7.872  18.118  0.00  0.00    +0.000 C 
ATOM     16  N   UNL     1       8.180   9.224  17.822  0.00  0.00    +0.000 N 
ATOM     17  H   UNL     1       7.897   9.439  16.869  0.00  0.00    +0.000 HD
BRANCH  16  18
ATOM     18  C   UNL     1       9.009  10.137  18.497  0.00  0.00    +0.000 A 
ATOM     19  C   UNL     1       9.919  10.875  17.735  0.00  0.00    +0.000 A 
ATOM     20  C   UNL     1      10.843  11.709  18.366  0.00  0.00    +0.000 A 
ATOM     21  C   UNL     1      10.811  11.847  19.749  0.00  0.00    +0.000 A 
ATOM     22  F   UNL     1      11.704  12.643  20.352  0.00  0.00    +0.000 F 
ATOM     23  C   UNL     1       9.872  11.167  20.514  0.00  0.00    +0.000 A 
ATOM     24  C   UNL     1       8.973  10.301  19.887  0.00  0.00    +0.000 A 
ENDBRANCH  16  18
ENDBRANCH   1  15
TORSDOF 4
ENDMDL
MODEL 2
REMARK VINA RESULT:      -7.3      0.890      1.362
REMARK  Name = 
REMARK  4 active torsions:
REMARK  status: ('A' for Active; 'I' for Inactive)
REMARK    1  A    between atoms: C_2  and  C_3
REMARK    2  A    between atoms: C_3  and  N_4
REMARK    3  A    between atoms: N_7  and  C_8
REMARK    4  A    between atoms: N_16  and  C_17
REMARK                            x       y       z     vdW  Elec       q    Type
REMARK                         _______ _______ _______ _____ _____    ______ ____
ROOT
ATOM      1  C   UNL     1       7.269   6.432  17.084  0.00  0.00    +0.000 C 
ENDROOT
BRANCH   1   2
ATOM      2  N   UNL     1       5.783   6.465  17.103  0.00  0.00    +0.000 NA
ATOM      3  C   UNL     1       5.154   5.579  16.084  0.00  0.00    +0.000 C 
ATOM      4  C   UNL     1       5.086   4.052  16.357  0.00  0.00    +0.000 C 
ATOM      5  N   UNL     1       4.785   3.704  17.757  0.00  0.00    +0.000 N 
ATOM      6  C   UNL     1       5.500   4.527  18.749  0.00  0.00    +0.000 C 
ATOM      7  C   UNL     1       5.301   6.032  18.445  0.00  0.00    +0.000 C 
BRANCH   5   8
ATOM      8  C   UNL     1       3.507   3.320  18.160  0.00  0.00    +0.000 A 
ATOM      9  C   UNL     1       2.413   4.129  17.797  0.00  0.00    +0.000 A 
ATOM     10  C   UNL     1       1.099   3.779  18.112  0.00  0.00    +0.000 A 
ATOM     11  C   UNL     1       0.843   2.602  18.805  0.00  0.00    +0.000 A 
ATOM     12  C   UNL     1       1.911   1.788  19.188  0.00  0.00    +0.000 A 
ATOM     13  C   UNL     1       3.231   2.154  18.882  0.00  0.00    +0.000 A 
ENDBRANCH   5   8
ENDBRANCH   1   2
BRANCH   1  15
ATOM     14  O   UNL     1       8.488   7.130  19.036  0.00  0.00    +0.000 OA
ATOM     15  C   UNL     1       7.903   7.473  18.010  0.00  0.00    +0.000 C 
ATOM     16  N   UNL     1       7.745   8.773  17.560  0.00  0.00    +0.000 N 
ATOM     17  H   UNL     1       7.463   8.830  16.583  0.00  0.00    +0.000 HD
BRANCH  16  18
ATOM     18  C   UNL     1       8.396   9.879  18.135  0.00  0.00    +0.000 A 
ATOM     19  C   UNL     1       8.247  11.118  17.508  0.00  0.00    +0.000 A 
ATOM     20  C   UNL     1       8.962  12.224  17.970  0.00  0.00    +0.000 A 
ATOM     21  C   UNL     1       9.774  12.098  19.091  0.00  0.00    +0.000 A 
ATOM     22  F   UNL     1      10.464  13.159  19.528  0.00  0.00    +0.000 F 
ATOM     23  C   UNL     1       9.883  10.886  19.761  0.00  0.00    +0.000 A 
ATOM     24  C   UNL     1       9.199   9.769  19.276  0.00  0.00    +0.000 A 
ENDBRANCH  16  18
ENDBRANCH   1  15
TORSDOF 4
ENDMDL
MODEL 3
REMARK VINA RESULT:      -7.3      0.799      1.158
REMARK  Name = 
REMARK  4 active torsions:
REMARK  status: ('A' for Active; 'I' for Inactive)
REMARK    1  A    between atoms: C_2  and  C_3
REMARK    2  A    between atoms: C_3  and  N_4
REMARK    3  A    between atoms: N_7  and  C_8
REMARK    4  A    between atoms: N_16  and  C_17
REMARK                            x       y       z     vdW  Elec       q    Type
REMARK                         _______ _______ _______ _____ _____    ______ ____
ROOT
ATOM      1  C   UNL     1       7.294   6.665  16.896  0.00  0.00    +0.000 C 
ENDROOT
BRANCH   1   2
ATOM      2  N   UNL     1       5.808   6.683  16.925  0.00  0.00    +0.000 NA
ATOM      3  C   UNL     1       5.182   5.858  15.854  0.00  0.00    +0.000 C 
ATOM      4  C   UNL     1       5.130   4.316  16.030  0.00  0.00    +0.000 C 
ATOM      5  N   UNL     1       4.839   3.877  17.406  0.00  0.00    +0.000 N 
ATOM      6  C   UNL     1       5.552   4.642  18.445  0.00  0.00    +0.000 C 
ATOM      7  C   UNL     1       5.338   6.161  18.238  0.00  0.00    +0.000 C 
BRANCH   5   8
ATOM      8  C   UNL     1       3.567   3.456  17.790  0.00  0.00    +0.000 A 
ATOM      9  C   UNL     1       3.429   2.193  18.397  0.00  0.00    +0.000 A 
ATOM     10  C   UNL     1       2.199   1.728  18.863  0.00  0.00    +0.000 A 
ATOM     11  C   UNL     1       1.064   2.520  18.731  0.00  0.00    +0.000 A 
ATOM     12  C   UNL     1       1.171   3.770  18.121  0.00  0.00    +0.000 A 
ATOM     13  C   UNL     1       2.409   4.225  17.641  0.00  0.00    +0.000 A 
ENDBRANCH   5   8
ENDBRANCH   1   2
BRANCH   1  15
ATOM     14  O   UNL     1       8.472   7.246  18.911  0.00  0.00    +0.000 OA
ATOM     15  C   UNL     1       7.924   7.649  17.886  0.00  0.00    +0.000 C 
ATOM     16  N   UNL     1       7.807   8.971  17.492  0.00  0.00    +0.000 N 
ATOM     17  H   UNL     1       7.553   9.078  16.512  0.00  0.00    +0.000 HD
BRANCH  16  18
ATOM     18  C   UNL     1       8.464  10.034  18.134  0.00  0.00    +0.000 A 
ATOM     19  C   UNL     1       9.116   9.762  19.340  0.00  0.00    +0.000 A 
ATOM     20  C   UNL     1       9.686  10.802  20.076  0.00  0.00    +0.000 A 
ATOM     21  C   UNL     1       9.653  12.098  19.573  0.00  0.00    +0.000 A 
ATOM     22  F   UNL     1      10.194  13.094  20.285  0.00  0.00    +0.000 F 
ATOM     23  C   UNL     1       9.063  12.373  18.347  0.00  0.00    +0.000 A 
ATOM     24  C   UNL     1       8.457  11.340  17.628  0.00  0.00    +0.000 A 
ENDBRANCH  16  18
ENDBRANCH   1  15
TORSDOF 4
ENDMDL
MODEL 4
REMARK VINA RESULT:      -7.3      0.859      1.664
REMARK  Name = 
REMARK  4 active torsions:
REMARK  status: ('A' for Active; 'I' for Inactive)
REMARK    1  A    between atoms: C_2  and  C_3
REMARK    2  A    between atoms: C_3  and  N_4
REMARK    3  A    between atoms: N_7  and  C_8
REMARK    4  A    between atoms: N_16  and  C_17
REMARK                            x       y       z     vdW  Elec       q    Type
REMARK                         _______ _______ _______ _____ _____    ______ ____
ROOT
ATOM      1  C   UNL     1       7.005   7.530  17.208  0.00  0.00    +0.000 C 
ENDROOT
BRANCH   1   2
ATOM      2  N   UNL     1       6.883   6.065  17.428  0.00  0.00    +0.000 NA
ATOM      3  C   UNL     1       6.545   5.701  18.832  0.00  0.00    +0.000 C 
ATOM      4  C   UNL     1       5.077   5.858  19.315  0.00  0.00    +0.000 C 
ATOM      5  N   UNL     1       4.070   5.474  18.311  0.00  0.00    +0.000 N 
ATOM      6  C   UNL     1       4.374   5.937  16.946  0.00  0.00    +0.000 C 
ATOM      7  C   UNL     1       5.812   5.525  16.545  0.00  0.00    +0.000 C 
BRANCH   5   8
ATOM      8  C   UNL     1       3.419   4.243  18.357  0.00  0.00    +0.000 A 
ATOM      9  C   UNL     1       2.012   4.221  18.300  0.00  0.00    +0.000 A 
ATOM     10  C   UNL     1       1.292   3.025  18.279  0.00  0.00    +0.000 A 
ATOM     11  C   UNL     1       1.967   1.811  18.317  0.00  0.00    +0.000 A 
ATOM     12  C   UNL     1       3.360   1.804  18.387  0.00  0.00    +0.000 A 
ATOM     13  C   UNL     1       4.077   3.011  18.423  0.00  0.00    +0.000 A 
ENDBRANCH   5   8
ENDBRANCH   1   2
BRANCH   1  15
ATOM     14  O   UNL     1       8.717   7.514  18.898  0.00  0.00    +0.000 OA
ATOM     15  C   UNL     1       8.038   8.190  18.126  0.00  0.00    +0.000 C 
ATOM     16  N   UNL     1       8.106   9.564  17.974  0.00  0.00    +0.000 N 
ATOM     17  H   UNL     1       7.657   9.898  17.123  0.00  0.00    +0.000 HD
BRANCH  16  18
ATOM     18  C   UNL     1       9.099  10.364  18.565  0.00  0.00    +0.000 A 
ATOM     19  C   UNL     1      10.054  10.941  17.725  0.00  0.00    +0.000 A 
ATOM     20  C   UNL     1      11.127  11.649  18.269  0.00  0.00    +0.000 A 
ATOM     21  C   UNL     1      11.205  11.825  19.646  0.00  0.00    +0.000 A 
ATOM     22  F   UNL     1      12.240  12.498  20.166  0.00  0.00    +0.000 F 
ATOM     23  C   UNL     1      10.230  11.309  20.489  0.00  0.00    +0.000 A 
ATOM     24  C   UNL     1       9.177  10.567  19.948  0.00  0.00    +0.000 A 
ENDBRANCH  16  18
ENDBRANCH   1  15
TORSDOF 4
ENDMDL
MODEL 5
REMARK VINA RESULT:      -7.1      1.186      1.673
REMARK  Name = 
REMARK  4 active torsions:
REMARK  status: ('A' for Active; 'I' for Inactive)
REMARK    1  A    between atoms: C_2  and  C_3
REMARK    2  A    between atoms: C_3  and  N_4
REMARK    3  A    between atoms: N_7  and  C_8
REMARK    4  A    between atoms: N_16  and  C_17
REMARK                            x       y       z     vdW  Elec       q    Type
REMARK                         _______ _______ _______ _____ _____    ______ ____
ROOT
ATOM      1  C   UNL     1       7.133   6.347  16.994  0.00  0.00    +0.000 C 
ENDROOT
BRANCH   1   2
ATOM      2  N   UNL     1       5.649   6.390  17.079  0.00  0.00    +0.000 NA
ATOM      3  C   UNL     1       4.976   5.343  16.261  0.00  0.00    +0.000 C 
ATOM      4  C   UNL     1       4.927   3.887  16.799  0.00  0.00    +0.000 C 
ATOM      5  N   UNL     1       4.695   3.790  18.251  0.00  0.00    +0.000 N 
ATOM      6  C   UNL     1       5.455   4.769  19.049  0.00  0.00    +0.000 C 
ATOM      7  C   UNL     1       5.236   6.199  18.497  0.00  0.00    +0.000 C 
BRANCH   5   8
ATOM      8  C   UNL     1       3.440   3.487  18.776  0.00  0.00    +0.000 A 
ATOM      9  C   UNL     1       2.323   3.528  17.921  0.00  0.00    +0.000 A 
ATOM     10  C   UNL     1       1.044   3.180  18.358  0.00  0.00    +0.000 A 
ATOM     11  C   UNL     1       0.848   2.780  19.675  0.00  0.00    +0.000 A 
ATOM     12  C   UNL     1       1.936   2.744  20.548  0.00  0.00    +0.000 A 
ATOM     13  C   UNL     1       3.217   3.110  20.104  0.00  0.00    +0.000 A 
ENDBRANCH   5   8
ENDBRANCH   1   2
BRANCH   1  15
ATOM     14  O   UNL     1       8.441   7.026  18.895  0.00  0.00    +0.000 OA
ATOM     15  C   UNL     1       7.815   7.379  17.897  0.00  0.00    +0.000 C 
ATOM     16  N   UNL     1       7.647   8.682  17.460  0.00  0.00    +0.000 N 
ATOM     17  H   UNL     1       7.323   8.746  16.497  0.00  0.00    +0.000 HD
BRANCH  16  18
ATOM     18  C   UNL     1       8.331   9.780  18.011  0.00  0.00    +0.000 A 
ATOM     19  C   UNL     1       9.087   9.562  19.165  0.00  0.00    +0.000 A 
ATOM     20  C   UNL     1       9.691  10.637  19.818  0.00  0.00    +0.000 A 
ATOM     21  C   UNL     1       9.586  11.914  19.278  0.00  0.00    +0.000 A 
ATOM     22  F   UNL     1      10.161  12.945  19.911  0.00  0.00    +0.000 F 
ATOM     23  C   UNL     1       8.889  12.136  18.098  0.00  0.00    +0.000 A 
ATOM     24  C   UNL     1       8.250  11.067  17.466  0.00  0.00    +0.000 A 
ENDBRANCH  16  18
ENDBRANCH   1  15
TORSDOF 4
ENDMDL
MODEL 6
REMARK VINA RESULT:      -7.1      1.122      1.140
REMARK  Name = 
REMARK  4 active torsions:
REMARK  status: ('A' for Active; 'I' for Inactive)
REMARK    1  A    between atoms: C_2  and  C_3
REMARK    2  A    between atoms: C_3  and  N_4
REMARK    3  A    between atoms: N_7  and  C_8
REMARK    4  A    between atoms: N_16  and  C_17
REMARK                            x       y       z     vdW  Elec       q    Type
REMARK                         _______ _______ _______ _____ _____    ______ ____
ROOT
ATOM      1  C   UNL     1       7.645   7.166  17.815  0.00  0.00    +0.000 C 
ENDROOT
BRANCH   1   2
ATOM      2  N   UNL     1       6.265   6.944  17.310  0.00  0.00    +0.000 NA
ATOM      3  C   UNL     1       6.155   5.805  16.357  0.00  0.00    +0.000 C 
ATOM      4  C   UNL     1       6.144   4.356  16.917  0.00  0.00    +0.000 C 
ATOM      5  N   UNL     1       5.377   4.200  18.165  0.00  0.00    +0.000 N 
ATOM      6  C   UNL     1       5.583   5.288  19.138  0.00  0.00    +0.000 C 
ATOM      7  C   UNL     1       5.363   6.664  18.462  0.00  0.00    +0.000 C 
BRANCH   5   8
ATOM      8  C   UNL     1       4.087   3.673  18.175  0.00  0.00    +0.000 A 
ATOM      9  C   UNL     1       3.859   2.457  18.847  0.00  0.00    +0.000 A 
ATOM     10  C   UNL     1       2.585   1.898  18.951  0.00  0.00    +0.000 A 
ATOM     11  C   UNL     1       1.496   2.545  18.380  0.00  0.00    +0.000 A 
ATOM     12  C   UNL     1       1.696   3.745  17.696  0.00  0.00    +0.000 A 
ATOM     13  C   UNL     1       2.983   4.294  17.582  0.00  0.00    +0.000 A 
ENDBRANCH   5   8
ENDBRANCH   1   2
BRANCH   1  15
ATOM     14  O   UNL     1       7.440   9.493  17.245  0.00  0.00    +0.000 OA
ATOM     15  C   UNL     1       8.007   8.648  17.936  0.00  0.00    +0.000 C 
ATOM     16  N   UNL     1       8.992   8.895  18.878  0.00  0.00    +0.000 N 
ATOM     17  H   UNL     1       9.148   8.114  19.512  0.00  0.00    +0.000 HD
BRANCH  16  18
ATOM     18  C   UNL     1       9.357  10.185  19.300  0.00  0.00    +0.000 A 
ATOM     19  C   UNL     1       9.958  11.030  18.364  0.00  0.00    +0.000 A 
ATOM     20  C   UNL     1      10.443  12.278  18.759  0.00  0.00    +0.000 A 
ATOM     21  C   UNL     1      10.270  12.697  20.073  0.00  0.00    +0.000 A 
ATOM     22  F   UNL     1      10.742  13.892  20.451  0.00  0.00    +0.000 F 
ATOM     23  C   UNL     1       9.619  11.893  21.000  0.00  0.00    +0.000 A 
ATOM     24  C   UNL     1       9.169  10.627  20.616  0.00  0.00    +0.000 A 
ENDBRANCH  16  18
ENDBRANCH   1  15
TORSDOF 4
ENDMDL
MODEL 7
REMARK VINA RESULT:      -7.0      4.909      7.014
REMARK  Name = 
REMARK  4 active torsions:
REMARK  status: ('A' for Active; 'I' for Inactive)
REMARK    1  A    between atoms: C_2  and  C_3
REMARK    2  A    between atoms: C_3  and  N_4
REMARK    3  A    between atoms: N_7  and  C_8
REMARK    4  A    between atoms: N_16  and  C_17
REMARK                            x       y       z     vdW  Elec       q    Type
REMARK                         _______ _______ _______ _____ _____    ______ ____
ROOT
ATOM      1  C   UNL     1       4.618   5.411  18.999  0.00  0.00    +0.000 C 
ENDROOT
BRANCH   1   2
ATOM      2  N   UNL     1       5.208   6.125  17.836  0.00  0.00    +0.000 NA
ATOM      3  C   UNL     1       6.670   5.888  17.672  0.00  0.00    +0.000 C 
ATOM      4  C   UNL     1       7.147   4.550  17.046  0.00  0.00    +0.000 C 
ATOM      5  N   UNL     1       6.309   4.075  15.931  0.00  0.00    +0.000 N 
ATOM      6  C   UNL     1       4.861   4.223  16.160  0.00  0.00    +0.000 C 
ATOM      7  C   UNL     1       4.529   5.674  16.590  0.00  0.00    +0.000 C 
BRANCH   5   8
ATOM      8  C   UNL     1       6.689   4.247  14.601  0.00  0.00    +0.000 A 
ATOM      9  C   UNL     1       6.061   3.465  13.613  0.00  0.00    +0.000 A 
ATOM     10  C   UNL     1       6.345   3.622  12.256  0.00  0.00    +0.000 A 
ATOM     11  C   UNL     1       7.272   4.574  11.848  0.00  0.00    +0.000 A 
ATOM     12  C   UNL     1       7.919   5.353  12.807  0.00  0.00    +0.000 A 
ATOM     13  C   UNL     1       7.640   5.179  14.172  0.00  0.00    +0.000 A 
ENDBRANCH   5   8
ENDBRANCH   1   2
BRANCH   1  15
ATOM     14  O   UNL     1       2.499   5.333  20.135  0.00  0.00    +0.000 OA
ATOM     15  C   UNL     1       3.267   5.988  19.432  0.00  0.00    +0.000 C 
ATOM     16  N   UNL     1       3.044   7.271  18.961  0.00  0.00    +0.000 N 
ATOM     17  H   UNL     1       3.888   7.727  18.619  0.00  0.00    +0.000 HD
BRANCH  16  18
ATOM     18  C   UNL     1       1.968   8.075  19.376  0.00  0.00    +0.000 A 
ATOM     19  C   UNL     1       1.403   8.940  18.436  0.00  0.00    +0.000 A 
ATOM     20  C   UNL     1       0.411   9.841  18.823  0.00  0.00    +0.000 A 
ATOM     21  C   UNL     1      -0.053   9.829  20.135  0.00  0.00    +0.000 A 
ATOM     22  F   UNL     1      -1.001  10.699  20.506  0.00  0.00    +0.000 F 
ATOM     23  C   UNL     1       0.456   8.932  21.064  0.00  0.00    +0.000 A 
ATOM     24  C   UNL     1       1.478   8.057  20.687  0.00  0.00    +0.000 A 
ENDBRANCH  16  18
ENDBRANCH   1  15
TORSDOF 4
ENDMDL
MODEL 8
REMARK VINA RESULT:      -6.9      7.797      9.896
REMARK  Name = 
REMARK  4 active torsions:
REMARK  status: ('A' for Active; 'I' for Inactive)
REMARK    1  A    between atoms: C_2  and  C_3
REMARK    2  A    between atoms: C_3  and  N_4
REMARK    3  A    between atoms: N_7  and  C_8
REMARK    4  A    between atoms: N_16  and  C_17
REMARK                            x       y       z     vdW  Elec       q    Type
REMARK                         _______ _______ _______ _____ _____    ______ ____
ROOT
ATOM      1  C   UNL     1       1.434   8.638  21.050  0.00  0.00    +0.000 C 
ENDROOT
BRANCH   1   2
ATOM      2  N   UNL     1      -0.039   8.837  21.031  0.00  0.00    +0.000 NA
ATOM      3  C   UNL     1      -0.646   8.915  22.389  0.00  0.00    +0.000 C 
ATOM      4  C   UNL     1      -0.516  10.237  23.195  0.00  0.00    +0.000 C 
ATOM      5  N   UNL     1      -0.655  11.455  22.378  0.00  0.00    +0.000 N 
ATOM      6  C   UNL     1       0.043  11.394  21.081  0.00  0.00    +0.000 C 
ATOM      7  C   UNL     1      -0.352  10.106  20.317  0.00  0.00    +0.000 C 
BRANCH   5   8
ATOM      8  C   UNL     1      -1.842  12.186  22.345  0.00  0.00    +0.000 A 
ATOM      9  C   UNL     1      -2.769  12.015  23.391  0.00  0.00    +0.000 A 
ATOM     10  C   UNL     1      -3.950  12.755  23.459  0.00  0.00    +0.000 A 
ATOM     11  C   UNL     1      -4.238  13.692  22.473  0.00  0.00    +0.000 A 
ATOM     12  C   UNL     1      -3.342  13.871  21.418  0.00  0.00    +0.000 A 
ATOM     13  C   UNL     1      -2.163  13.112  21.348  0.00  0.00    +0.000 A 
ENDBRANCH   5   8
ENDBRANCH   1   2
BRANCH   1  15
ATOM     14  O   UNL     1       2.129   8.290  18.774  0.00  0.00    +0.000 OA
ATOM     15  C   UNL     1       1.938   7.788  19.880  0.00  0.00    +0.000 C 
ATOM     16  N   UNL     1       2.144   6.461  20.218  0.00  0.00    +0.000 N 
ATOM     17  H   UNL     1       2.174   6.301  21.223  0.00  0.00    +0.000 HD
BRANCH  16  18
ATOM     18  C   UNL     1       2.777   5.534  19.373  0.00  0.00    +0.000 A 
ATOM     19  C   UNL     1       4.157   5.364  19.512  0.00  0.00    +0.000 A 
ATOM     20  C   UNL     1       4.853   4.543  18.624  0.00  0.00    +0.000 A 
ATOM     21  C   UNL     1       4.155   3.849  17.640  0.00  0.00    +0.000 A 
ATOM     22  F   UNL     1       4.827   3.067  16.785  0.00  0.00    +0.000 F 
ATOM     23  C   UNL     1       2.776   3.960  17.530  0.00  0.00    +0.000 A 
ATOM     24  C   UNL     1       2.084   4.813  18.393  0.00  0.00    +0.000 A 
ENDBRANCH  16  18
ENDBRANCH   1  15
TORSDOF 4
ENDMDL
MODEL 9
REMARK VINA RESULT:      -6.9      7.795     10.041
REMARK  Name = 
REMARK  4 active torsions:
REMARK  status: ('A' for Active; 'I' for Inactive)
REMARK    1  A    between atoms: C_2  and  C_3
REMARK    2  A    between atoms: C_3  and  N_4
REMARK    3  A    between atoms: N_7  and  C_8
REMARK    4  A    between atoms: N_16  and  C_17
REMARK                            x       y       z     vdW  Elec       q    Type
REMARK                         _______ _______ _______ _____ _____    ______ ____
ROOT
ATOM      1  C   UNL     1       1.477   8.539  21.102  0.00  0.00    +0.000 C 
ENDROOT
BRANCH   1   2
ATOM      2  N   UNL     1      -0.002   8.685  21.120  0.00  0.00    +0.000 NA
ATOM      3  C   UNL     1      -0.567   8.858  22.487  0.00  0.00    +0.000 C 
ATOM      4  C   UNL     1      -0.458  10.247  23.173  0.00  0.00    +0.000 C 
ATOM      5  N   UNL     1      -0.670  11.386  22.262  0.00  0.00    +0.000 N 
ATOM      6  C   UNL     1      -0.013  11.238  20.951  0.00  0.00    +0.000 C 
ATOM      7  C   UNL     1      -0.385   9.877  20.313  0.00  0.00    +0.000 C 
BRANCH   5   8
ATOM      8  C   UNL     1      -1.883  12.070  22.210  0.00  0.00    +0.000 A 
ATOM      9  C   UNL     1      -2.714  12.058  23.347  0.00  0.00    +0.000 A 
ATOM     10  C   UNL     1      -3.914  12.769  23.393  0.00  0.00    +0.000 A 
ATOM     11  C   UNL     1      -4.318  13.516  22.292  0.00  0.00    +0.000 A 
ATOM     12  C   UNL     1      -3.520  13.535  21.148  0.00  0.00    +0.000 A 
ATOM     13  C   UNL     1      -2.321  12.805  21.104  0.00  0.00    +0.000 A 
ENDBRANCH   5   8
ENDBRANCH   1   2
BRANCH   1  15
ATOM     14  O   UNL     1       2.315   8.067  18.897  0.00  0.00    +0.000 OA
ATOM     15  C   UNL     1       1.973   7.613  19.988  0.00  0.00    +0.000 C 
ATOM     16  N   UNL     1       1.991   6.277  20.356  0.00  0.00    +0.000 N 
ATOM     17  H   UNL     1       1.917   6.135  21.361  0.00  0.00    +0.000 HD
BRANCH  16  18
ATOM     18  C   UNL     1       2.579   5.265  19.577  0.00  0.00    +0.000 A 
ATOM     19  C   UNL     1       1.731   4.448  18.825  0.00  0.00    +0.000 A 
ATOM     20  C   UNL     1       2.250   3.358  18.125  0.00  0.00    +0.000 A 
ATOM     21  C   UNL     1       3.622   3.128  18.133  0.00  0.00    +0.000 A 
ATOM     22  F   UNL     1       4.116   2.078  17.466  0.00  0.00    +0.000 F 
ATOM     23  C   UNL     1       4.484   3.969  18.825  0.00  0.00    +0.000 A 
ATOM     24  C   UNL     1       3.960   5.037  19.558  0.00  0.00    +0.000 A 
ENDBRANCH  16  18
ENDBRANCH   1  15
TORSDOF 4
ENDMDL
