MODEL 1
REMARK VINA RESULT:      -8.0      0.000      0.000
REMARK  Name = 
REMARK  7 active torsions:
REMARK  status: ('A' for Active; 'I' for Inactive)
REMARK    1  A    between atoms: C_1  and  C_2
REMARK    2  A    between atoms: C_2  and  C_19
REMARK    3  A    between atoms: N_3  and  N_4
REMARK    4  A    between atoms: C_7  and  C_8
REMARK    5  A    between atoms: C_10  and  C_11
REMARK    6  A    between atoms: C_16  and  O_17
REMARK    7  A    between atoms: C_24  and  O_25
REMARK                            x       y       z     vdW  Elec       q    Type
REMARK                         _______ _______ _______ _____ _____    ______ ____
ROOT
ATOM      1  N   UNL     1       1.260   7.323  20.630  0.00  0.00    +0.000 N 
ATOM      2  C   UNL     1       2.000   6.176  20.223  0.00  0.00    +0.000 A 
ATOM      3  C   UNL     1       1.883   5.045  21.009  0.00  0.00    +0.000 A 
ATOM      4  C   UNL     1       2.604   3.934  20.625  0.00  0.00    +0.000 A 
ATOM      5  C   UNL     1       2.604   2.677  21.441  0.00  0.00    +0.000 C 
ATOM      6  N   UNL     1       3.357   3.927  19.514  0.00  0.00    +0.000 NA
ATOM      7  C   UNL     1       3.381   5.050  18.775  0.00  0.00    +0.000 A 
ATOM      8  N   UNL     1       2.746   6.189  19.106  0.00  0.00    +0.000 NA
ATOM      9  H   UNL     1       0.275   7.101  20.489  0.00  0.00    +0.000 HD
ENDROOT
BRANCH   7  10
ATOM     10  C   UNL     1       4.194   5.073  17.543  0.00  0.00    +0.000 A 
ATOM     11  C   UNL     1       4.481   6.310  16.925  0.00  0.00    +0.000 A 
ATOM     12  C   UNL     1       5.269   6.395  15.774  0.00  0.00    +0.000 A 
ATOM     13  C   UNL     1       5.791   5.239  15.206  0.00  0.00    +0.000 A 
ATOM     14  C   UNL     1       5.513   4.000  15.778  0.00  0.00    +0.000 A 
ATOM     15  C   UNL     1       4.717   3.921  16.928  0.00  0.00    +0.000 A 
BRANCH  15  16
ATOM     16  O   UNL     1       4.421   2.677  17.420  0.00  0.00    +0.000 OA
ATOM     17  H   UNL     1       4.259   2.066  16.687  0.00  0.00    +0.000 HD
ENDBRANCH  15  16
ENDBRANCH   7  10
BRANCH   1  20
ATOM     18  C   UNL     1      -0.527   9.467  20.851  0.00  0.00    +0.000 C 
ATOM     19  C   UNL     1       0.863   9.547  20.246  0.00  0.00    +0.000 C 
ATOM     20  N   UNL     1       1.671   8.529  20.138  0.00  0.00    +0.000 NA
BRANCH  19  21
ATOM     21  C   UNL     1       1.329  10.883  19.735  0.00  0.00    +0.000 A 
ATOM     22  C   UNL     1       1.236  11.985  20.602  0.00  0.00    +0.000 A 
ATOM     23  C   UNL     1       1.684  13.248  20.204  0.00  0.00    +0.000 A 
ATOM     24  C   UNL     1       2.222  13.430  18.932  0.00  0.00    +0.000 A 
ATOM     25  C   UNL     1       2.295  12.354  18.049  0.00  0.00    +0.000 A 
ATOM     26  C   UNL     1       1.845  11.089  18.445  0.00  0.00    +0.000 A 
BRANCH  26  27
ATOM     27  O   UNL     1       1.898  10.073  17.533  0.00  0.00    +0.000 OA
ATOM     28  H   UNL     1       1.120   9.501  17.641  0.00  0.00    +0.000 HD
ENDBRANCH  26  27
ENDBRANCH  19  21
ENDBRANCH   1  20
TORSDOF 5
ENDMDL
MODEL 2
REMARK VINA RESULT:      -8.0      1.197      1.241
REMARK  Name = 
REMARK  7 active torsions:
REMARK  status: ('A' for Active; 'I' for Inactive)
REMARK    1  A    between atoms: C_1  and  C_2
REMARK    2  A    between atoms: C_2  and  C_19
REMARK    3  A    between atoms: N_3  and  N_4
REMARK    4  A    between atoms: C_7  and  C_8
REMARK    5  A    between atoms: C_10  and  C_11
REMARK    6  A    between atoms: C_16  and  O_17
REMARK    7  A    between atoms: C_24  and  O_25
REMARK                            x       y       z     vdW  Elec       q    Type
REMARK                         _______ _______ _______ _____ _____    ______ ____
ROOT
ATOM      1  N   UNL     1       1.129   7.463  20.302  0.00  0.00    +0.000 N 
ATOM      2  C   UNL     1       2.008   6.355  20.127  0.00  0.00    +0.000 A 
ATOM      3  C   UNL     1       1.746   5.225  20.879  0.00  0.00    +0.000 A 
ATOM      4  C   UNL     1       2.598   4.152  20.720  0.00  0.00    +0.000 A 
ATOM      5  C   UNL     1       2.448   2.903  21.534  0.00  0.00    +0.000 C 
ATOM      6  N   UNL     1       3.615   4.178  19.844  0.00  0.00    +0.000 NA
ATOM      7  C   UNL     1       3.774   5.296  19.113  0.00  0.00    +0.000 A 
ATOM      8  N   UNL     1       3.018   6.401  19.243  0.00  0.00    +0.000 NA
ATOM      9  H   UNL     1       0.228   7.187  19.914  0.00  0.00    +0.000 HD
ENDROOT
BRANCH   7  10
ATOM     10  C   UNL     1       4.879   5.354  18.137  0.00  0.00    +0.000 A 
ATOM     11  C   UNL     1       4.582   5.425  16.758  0.00  0.00    +0.000 A 
ATOM     12  C   UNL     1       5.586   5.511  15.790  0.00  0.00    +0.000 A 
ATOM     13  C   UNL     1       6.921   5.525  16.176  0.00  0.00    +0.000 A 
ATOM     14  C   UNL     1       7.251   5.438  17.526  0.00  0.00    +0.000 A 
ATOM     15  C   UNL     1       6.241   5.345  18.491  0.00  0.00    +0.000 A 
BRANCH  15  16
ATOM     16  O   UNL     1       6.614   5.200  19.801  0.00  0.00    +0.000 OA
ATOM     17  H   UNL     1       7.496   5.578  19.933  0.00  0.00    +0.000 HD
ENDBRANCH  15  16
ENDBRANCH   7  10
BRANCH   1  20
ATOM     18  C   UNL     1      -0.559   9.659  20.710  0.00  0.00    +0.000 C 
ATOM     19  C   UNL     1       0.832   9.726  20.106  0.00  0.00    +0.000 C 
ATOM     20  N   UNL     1       1.594   8.686  19.910  0.00  0.00    +0.000 NA
BRANCH  19  21
ATOM     21  C   UNL     1       1.357  11.078  19.704  0.00  0.00    +0.000 A 
ATOM     22  C   UNL     1       1.270  12.120  20.644  0.00  0.00    +0.000 A 
ATOM     23  C   UNL     1       1.770  13.392  20.350  0.00  0.00    +0.000 A 
ATOM     24  C   UNL     1       2.355  13.643  19.111  0.00  0.00    +0.000 A 
ATOM     25  C   UNL     1       2.424  12.629  18.157  0.00  0.00    +0.000 A 
ATOM     26  C   UNL     1       1.921  11.355  18.449  0.00  0.00    +0.000 A 
BRANCH  26  27
ATOM     27  O   UNL     1       1.972  10.404  17.470  0.00  0.00    +0.000 OA
ATOM     28  H   UNL     1       2.583   9.698  17.738  0.00  0.00    +0.000 HD
ENDBRANCH  26  27
ENDBRANCH  19  21
ENDBRANCH   1  20
TORSDOF 5
ENDMDL
MODEL 3
REMARK VINA RESULT:      -7.9      2.530      8.283
REMARK  Name = 
REMARK  7 active torsions:
REMARK  status: ('A' for Active; 'I' for Inactive)
REMARK    1  A    between atoms: C_1  and  C_2
REMARK    2  A    between atoms: C_2  and  C_19
REMARK    3  A    between atoms: N_3  and  N_4
REMARK    4  A    between atoms: C_7  and  C_8
REMARK    5  A    between atoms: C_10  and  C_11
REMARK    6  A    between atoms: C_16  and  O_17
REMARK    7  A    between atoms: C_24  and  O_25
REMARK                            x       y       z     vdW  Elec       q    Type
REMARK                         _______ _______ _______ _____ _____    ______ ____
ROOT
ATOM      1  N   UNL     1       2.042   9.179  17.551  0.00  0.00    +0.000 N 
ATOM      2  C   UNL     1       1.822  10.365  18.310  0.00  0.00    +0.000 A 
ATOM      3  C   UNL     1       2.491  11.503  17.899  0.00  0.00    +0.000 A 
ATOM      4  C   UNL     1       2.290  12.652  18.635  0.00  0.00    +0.000 A 
ATOM      5  C   UNL     1       3.016  13.924  18.320  0.00  0.00    +0.000 C 
ATOM      6  N   UNL     1       1.450  12.685  19.682  0.00  0.00    +0.000 NA
ATOM      7  C   UNL     1       0.798  11.549  19.989  0.00  0.00    +0.000 A 
ATOM      8  N   UNL     1       0.976  10.377  19.352  0.00  0.00    +0.000 NA
ATOM      9  H   UNL     1       1.609   9.330  16.640  0.00  0.00    +0.000 HD
ENDROOT
BRANCH   7  10
ATOM     10  C   UNL     1      -0.138  11.553  21.130  0.00  0.00    +0.000 A 
ATOM     11  C   UNL     1      -1.066  12.610  21.261  0.00  0.00    +0.000 A 
ATOM     12  C   UNL     1      -1.994  12.651  22.305  0.00  0.00    +0.000 A 
ATOM     13  C   UNL     1      -2.017  11.634  23.252  0.00  0.00    +0.000 A 
ATOM     14  C   UNL     1      -1.104  10.586  23.164  0.00  0.00    +0.000 A 
ATOM     15  C   UNL     1      -0.172  10.554  22.120  0.00  0.00    +0.000 A 
BRANCH  15  16
ATOM     16  O   UNL     1       0.745   9.536  22.108  0.00  0.00    +0.000 OA
ATOM     17  H   UNL     1       1.630   9.896  21.953  0.00  0.00    +0.000 HD
ENDBRANCH  15  16
ENDBRANCH   7  10
BRANCH   1  20
ATOM     18  C   UNL     1       3.995   7.175  17.462  0.00  0.00    +0.000 C 
ATOM     19  C   UNL     1       2.646   7.051  18.146  0.00  0.00    +0.000 C 
ATOM     20  N   UNL     1       1.745   7.994  18.159  0.00  0.00    +0.000 NA
BRANCH  19  21
ATOM     21  C   UNL     1       2.331   5.757  18.846  0.00  0.00    +0.000 A 
ATOM     22  C   UNL     1       2.335   4.580  18.077  0.00  0.00    +0.000 A 
ATOM     23  C   UNL     1       2.086   3.338  18.670  0.00  0.00    +0.000 A 
ATOM     24  C   UNL     1       1.822   3.256  20.035  0.00  0.00    +0.000 A 
ATOM     25  C   UNL     1       1.786   4.416  20.806  0.00  0.00    +0.000 A 
ATOM     26  C   UNL     1       2.032   5.661  20.214  0.00  0.00    +0.000 A 
BRANCH  26  27
ATOM     27  O   UNL     1       1.947   6.775  21.000  0.00  0.00    +0.000 OA
ATOM     28  H   UNL     1       2.739   7.322  20.872  0.00  0.00    +0.000 HD
ENDBRANCH  26  27
ENDBRANCH  19  21
ENDBRANCH   1  20
TORSDOF 5
ENDMDL
MODEL 4
REMARK VINA RESULT:      -7.8      4.436      6.832
REMARK  Name = 
REMARK  7 active torsions:
REMARK  status: ('A' for Active; 'I' for Inactive)
REMARK    1  A    between atoms: C_1  and  C_2
REMARK    2  A    between atoms: C_2  and  C_19
REMARK    3  A    between atoms: N_3  and  N_4
REMARK    4  A    between atoms: C_7  and  C_8
REMARK    5  A    between atoms: C_10  and  C_11
REMARK    6  A    between atoms: C_16  and  O_17
REMARK    7  A    between atoms: C_24  and  O_25
REMARK                            x       y       z     vdW  Elec       q    Type
REMARK                         _______ _______ _______ _____ _____    ______ ____
ROOT
ATOM      1  N   UNL     1       6.193   4.953  19.596  0.00  0.00    +0.000 N 
ATOM      2  C   UNL     1       6.652   5.565  18.394  0.00  0.00    +0.000 A 
ATOM      3  C   UNL     1       7.359   6.746  18.525  0.00  0.00    +0.000 A 
ATOM      4  C   UNL     1       7.799   7.348  17.364  0.00  0.00    +0.000 A 
ATOM      5  C   UNL     1       8.515   8.664  17.385  0.00  0.00    +0.000 C 
ATOM      6  N   UNL     1       7.592   6.798  16.158  0.00  0.00    +0.000 NA
ATOM      7  C   UNL     1       6.939   5.622  16.117  0.00  0.00    +0.000 A 
ATOM      8  N   UNL     1       6.437   4.997  17.197  0.00  0.00    +0.000 NA
ATOM      9  H   UNL     1       7.020   4.620  20.090  0.00  0.00    +0.000 HD
ENDROOT
BRANCH   7  10
ATOM     10  C   UNL     1       6.701   4.987  14.807  0.00  0.00    +0.000 A 
ATOM     11  C   UNL     1       5.577   4.149  14.637  0.00  0.00    +0.000 A 
ATOM     12  C   UNL     1       5.286   3.544  13.411  0.00  0.00    +0.000 A 
ATOM     13  C   UNL     1       6.117   3.759  12.319  0.00  0.00    +0.000 A 
ATOM     14  C   UNL     1       7.245   4.564  12.455  0.00  0.00    +0.000 A 
ATOM     15  C   UNL     1       7.536   5.162  13.687  0.00  0.00    +0.000 A 
BRANCH  15  16
ATOM     16  O   UNL     1       8.687   5.897  13.790  0.00  0.00    +0.000 OA
ATOM     17  H   UNL     1       9.266   5.504  14.459  0.00  0.00    +0.000 HD
ENDBRANCH  15  16
ENDBRANCH   7  10
BRANCH   1  20
ATOM     18  C   UNL     1       3.589   5.981  19.558  0.00  0.00    +0.000 C 
ATOM     19  C   UNL     1       3.950   4.511  19.441  0.00  0.00    +0.000 C 
ATOM     20  N   UNL     1       5.171   4.055  19.479  0.00  0.00    +0.000 NA
BRANCH  19  21
ATOM     21  C   UNL     1       2.826   3.524  19.278  0.00  0.00    +0.000 A 
ATOM     22  C   UNL     1       1.635   3.766  19.984  0.00  0.00    +0.000 A 
ATOM     23  C   UNL     1       0.538   2.909  19.851  0.00  0.00    +0.000 A 
ATOM     24  C   UNL     1       0.620   1.795  19.020  0.00  0.00    +0.000 A 
ATOM     25  C   UNL     1       1.803   1.524  18.335  0.00  0.00    +0.000 A 
ATOM     26  C   UNL     1       2.903   2.380  18.469  0.00  0.00    +0.000 A 
BRANCH  26  27
ATOM     27  O   UNL     1       4.056   2.054  17.811  0.00  0.00    +0.000 OA
ATOM     28  H   UNL     1       4.695   2.780  17.900  0.00  0.00    +0.000 HD
ENDBRANCH  26  27
ENDBRANCH  19  21
ENDBRANCH   1  20
TORSDOF 5
ENDMDL
MODEL 5
REMARK VINA RESULT:      -7.8      3.072      8.442
REMARK  Name = 
REMARK  7 active torsions:
REMARK  status: ('A' for Active; 'I' for Inactive)
REMARK    1  A    between atoms: C_1  and  C_2
REMARK    2  A    between atoms: C_2  and  C_19
REMARK    3  A    between atoms: N_3  and  N_4
REMARK    4  A    between atoms: C_7  and  C_8
REMARK    5  A    between atoms: C_10  and  C_11
REMARK    6  A    between atoms: C_16  and  O_17
REMARK    7  A    between atoms: C_24  and  O_25
REMARK                            x       y       z     vdW  Elec       q    Type
REMARK                         _______ _______ _______ _____ _____    ______ ____
ROOT
ATOM      1  N   UNL     1       2.582   9.024  18.142  0.00  0.00    +0.000 N 
ATOM      2  C   UNL     1       1.742  10.173  18.202  0.00  0.00    +0.000 A 
ATOM      3  C   UNL     1       2.368  11.405  18.225  0.00  0.00    +0.000 A 
ATOM      4  C   UNL     1       1.560  12.521  18.292  0.00  0.00    +0.000 A 
ATOM      5  C   UNL     1       2.134  13.902  18.389  0.00  0.00    +0.000 C 
ATOM      6  N   UNL     1       0.221  12.428  18.293  0.00  0.00    +0.000 NA
ATOM      7  C   UNL     1      -0.314  11.196  18.219  0.00  0.00    +0.000 A 
ATOM      8  N   UNL     1       0.404  10.058  18.200  0.00  0.00    +0.000 NA
ATOM      9  H   UNL     1       3.017   9.028  17.220  0.00  0.00    +0.000 HD
ENDROOT
BRANCH   7  10
ATOM     10  C   UNL     1      -1.783  11.059  18.212  0.00  0.00    +0.000 A 
ATOM     11  C   UNL     1      -2.374   9.973  17.529  0.00  0.00    +0.000 A 
ATOM     12  C   UNL     1      -3.758   9.777  17.512  0.00  0.00    +0.000 A 
ATOM     13  C   UNL     1      -4.591  10.667  18.179  0.00  0.00    +0.000 A 
ATOM     14  C   UNL     1      -4.044  11.760  18.847  0.00  0.00    +0.000 A 
ATOM     15  C   UNL     1      -2.657  11.955  18.854  0.00  0.00    +0.000 A 
BRANCH  15  16
ATOM     16  O   UNL     1      -2.169  13.075  19.473  0.00  0.00    +0.000 OA
ATOM     17  H   UNL     1      -2.764  13.336  20.192  0.00  0.00    +0.000 HD
ENDBRANCH  15  16
ENDBRANCH   7  10
BRANCH   1  20
ATOM     18  C   UNL     1       4.055   6.702  17.615  0.00  0.00    +0.000 C 
ATOM     19  C   UNL     1       2.708   6.744  18.315  0.00  0.00    +0.000 C 
ATOM     20  N   UNL     1       2.033   7.837  18.534  0.00  0.00    +0.000 NA
BRANCH  19  21
ATOM     21  C   UNL     1       2.118   5.438  18.776  0.00  0.00    +0.000 A 
ATOM     22  C   UNL     1       1.825   4.472  17.800  0.00  0.00    +0.000 A 
ATOM     23  C   UNL     1       1.308   3.223  18.161  0.00  0.00    +0.000 A 
ATOM     24  C   UNL     1       1.069   2.929  19.501  0.00  0.00    +0.000 A 
ATOM     25  C   UNL     1       1.328   3.887  20.480  0.00  0.00    +0.000 A 
ATOM     26  C   UNL     1       1.843   5.137  20.119  0.00  0.00    +0.000 A 
BRANCH  26  27
ATOM     27  O   UNL     1       2.042   6.060  21.107  0.00  0.00    +0.000 OA
ATOM     28  H   UNL     1       2.705   5.725  21.733  0.00  0.00    +0.000 HD
ENDBRANCH  26  27
ENDBRANCH  19  21
ENDBRANCH   1  20
TORSDOF 5
ENDMDL
MODEL 6
REMARK VINA RESULT:      -7.8      2.557      8.529
REMARK  Name = 
REMARK  7 active torsions:
REMARK  status: ('A' for Active; 'I' for Inactive)
REMARK    1  A    between atoms: C_1  and  C_2
REMARK    2  A    between atoms: C_2  and  C_19
REMARK    3  A    between atoms: N_3  and  N_4
REMARK    4  A    between atoms: C_7  and  C_8
REMARK    5  A    between atoms: C_10  and  C_11
REMARK    6  A    between atoms: C_16  and  O_17
REMARK    7  A    between atoms: C_24  and  O_25
REMARK                            x       y       z     vdW  Elec       q    Type
REMARK                         _______ _______ _______ _____ _____    ______ ____
ROOT
ATOM      1  N   UNL     1       2.049   9.194  17.583  0.00  0.00    +0.000 N 
ATOM      2  C   UNL     1       1.803  10.389  18.320  0.00  0.00    +0.000 A 
ATOM      3  C   UNL     1       2.507  11.515  17.938  0.00  0.00    +0.000 A 
ATOM      4  C   UNL     1       2.281  12.672  18.653  0.00  0.00    +0.000 A 
ATOM      5  C   UNL     1       3.039  13.933  18.368  0.00  0.00    +0.000 C 
ATOM      6  N   UNL     1       1.385  12.725  19.651  0.00  0.00    +0.000 NA
ATOM      7  C   UNL     1       0.703  11.599  19.931  0.00  0.00    +0.000 A 
ATOM      8  N   UNL     1       0.900  10.420  19.314  0.00  0.00    +0.000 NA
ATOM      9  H   UNL     1       1.668   9.343  16.649  0.00  0.00    +0.000 HD
ENDROOT
BRANCH   7  10
ATOM     10  C   UNL     1      -0.294  11.625  21.018  0.00  0.00    +0.000 A 
ATOM     11  C   UNL     1      -0.200  10.684  22.067  0.00  0.00    +0.000 A 
ATOM     12  C   UNL     1      -1.099  10.679  23.137  0.00  0.00    +0.000 A 
ATOM     13  C   UNL     1      -2.122  11.617  23.186  0.00  0.00    +0.000 A 
ATOM     14  C   UNL     1      -2.257  12.549  22.159  0.00  0.00    +0.000 A 
ATOM     15  C   UNL     1      -1.358  12.544  21.086  0.00  0.00    +0.000 A 
BRANCH  15  16
ATOM     16  O   UNL     1      -1.565  13.440  20.070  0.00  0.00    +0.000 OA
ATOM     17  H   UNL     1      -0.837  14.077  20.044  0.00  0.00    +0.000 HD
ENDBRANCH  15  16
ENDBRANCH   7  10
BRANCH   1  20
ATOM     18  C   UNL     1       3.895   7.095  17.433  0.00  0.00    +0.000 C 
ATOM     19  C   UNL     1       2.555   7.031  18.142  0.00  0.00    +0.000 C 
ATOM     20  N   UNL     1       1.703   8.017  18.184  0.00  0.00    +0.000 NA
BRANCH  19  21
ATOM     21  C   UNL     1       2.188   5.745  18.833  0.00  0.00    +0.000 A 
ATOM     22  C   UNL     1       2.031   4.597  18.037  0.00  0.00    +0.000 A 
ATOM     23  C   UNL     1       1.725   3.362  18.617  0.00  0.00    +0.000 A 
ATOM     24  C   UNL     1       1.565   3.259  19.996  0.00  0.00    +0.000 A 
ATOM     25  C   UNL     1       1.690   4.393  20.797  0.00  0.00    +0.000 A 
ATOM     26  C   UNL     1       1.993   5.631  20.218  0.00  0.00    +0.000 A 
BRANCH  26  27
ATOM     27  O   UNL     1       2.065   6.723  21.036  0.00  0.00    +0.000 OA
ATOM     28  H   UNL     1       2.192   6.431  21.954  0.00  0.00    +0.000 HD
ENDBRANCH  26  27
ENDBRANCH  19  21
ENDBRANCH   1  20
TORSDOF 5
ENDMDL
MODEL 7
REMARK VINA RESULT:      -7.8      2.016      4.250
REMARK  Name = 
REMARK  7 active torsions:
REMARK  status: ('A' for Active; 'I' for Inactive)
REMARK    1  A    between atoms: C_1  and  C_2
REMARK    2  A    between atoms: C_2  and  C_19
REMARK    3  A    between atoms: N_3  and  N_4
REMARK    4  A    between atoms: C_7  and  C_8
REMARK    5  A    between atoms: C_10  and  C_11
REMARK    6  A    between atoms: C_16  and  O_17
REMARK    7  A    between atoms: C_24  and  O_25
REMARK                            x       y       z     vdW  Elec       q    Type
REMARK                         _______ _______ _______ _____ _____    ______ ____
ROOT
ATOM      1  N   UNL     1       2.939   9.152  17.726  0.00  0.00    +0.000 N 
ATOM      2  C   UNL     1       3.272   7.767  17.686  0.00  0.00    +0.000 A 
ATOM      3  C   UNL     1       4.283   7.393  16.821  0.00  0.00    +0.000 A 
ATOM      4  C   UNL     1       4.604   6.052  16.771  0.00  0.00    +0.000 A 
ATOM      5  C   UNL     1       5.637   5.527  15.821  0.00  0.00    +0.000 C 
ATOM      6  N   UNL     1       3.996   5.148  17.554  0.00  0.00    +0.000 NA
ATOM      7  C   UNL     1       3.056   5.598  18.405  0.00  0.00    +0.000 A 
ATOM      8  N   UNL     1       2.653   6.879  18.480  0.00  0.00    +0.000 NA
ATOM      9  H   UNL     1       3.732   9.632  18.150  0.00  0.00    +0.000 HD
ENDROOT
BRANCH   7  10
ATOM     10  C   UNL     1       2.373   4.631  19.285  0.00  0.00    +0.000 A 
ATOM     11  C   UNL     1       2.680   4.610  20.663  0.00  0.00    +0.000 A 
ATOM     12  C   UNL     1       2.045   3.735  21.549  0.00  0.00    +0.000 A 
ATOM     13  C   UNL     1       1.082   2.852  21.077  0.00  0.00    +0.000 A 
ATOM     14  C   UNL     1       0.767   2.831  19.720  0.00  0.00    +0.000 A 
ATOM     15  C   UNL     1       1.412   3.705  18.837  0.00  0.00    +0.000 A 
BRANCH  15  16
ATOM     16  O   UNL     1       1.113   3.608  17.503  0.00  0.00    +0.000 OA
ATOM     17  H   UNL     1       1.865   3.227  17.028  0.00  0.00    +0.000 HD
ENDBRANCH  15  16
ENDBRANCH   7  10
BRANCH   1  20
ATOM     18  C   UNL     1       2.396  11.872  18.109  0.00  0.00    +0.000 C 
ATOM     19  C   UNL     1       1.429  10.739  18.400  0.00  0.00    +0.000 C 
ATOM     20  N   UNL     1       1.712   9.477  18.230  0.00  0.00    +0.000 NA
BRANCH  19  21
ATOM     21  C   UNL     1       0.065  11.099  18.923  0.00  0.00    +0.000 A 
ATOM     22  C   UNL     1      -0.007  11.757  20.163  0.00  0.00    +0.000 A 
ATOM     23  C   UNL     1      -1.240  12.152  20.692  0.00  0.00    +0.000 A 
ATOM     24  C   UNL     1      -2.416  11.886  19.994  0.00  0.00    +0.000 A 
ATOM     25  C   UNL     1      -2.364  11.209  18.778  0.00  0.00    +0.000 A 
ATOM     26  C   UNL     1      -1.131  10.810  18.248  0.00  0.00    +0.000 A 
BRANCH  26  27
ATOM     27  O   UNL     1      -1.131  10.113  17.073  0.00  0.00    +0.000 OA
ATOM     28  H   UNL     1      -1.996  10.209  16.641  0.00  0.00    +0.000 HD
ENDBRANCH  26  27
ENDBRANCH  19  21
ENDBRANCH   1  20
TORSDOF 5
ENDMDL
MODEL 8
REMARK VINA RESULT:      -7.8      2.296      4.342
REMARK  Name = 
REMARK  7 active torsions:
REMARK  status: ('A' for Active; 'I' for Inactive)
REMARK    1  A    between atoms: C_1  and  C_2
REMARK    2  A    between atoms: C_2  and  C_19
REMARK    3  A    between atoms: N_3  and  N_4
REMARK    4  A    between atoms: C_7  and  C_8
REMARK    5  A    between atoms: C_10  and  C_11
REMARK    6  A    between atoms: C_16  and  O_17
REMARK    7  A    between atoms: C_24  and  O_25
REMARK                            x       y       z     vdW  Elec       q    Type
REMARK                         _______ _______ _______ _____ _____    ______ ____
ROOT
ATOM      1  N   UNL     1       2.917   9.171  17.796  0.00  0.00    +0.000 N 
ATOM      2  C   UNL     1       3.233   7.787  17.673  0.00  0.00    +0.000 A 
ATOM      3  C   UNL     1       4.321   7.462  16.884  0.00  0.00    +0.000 A 
ATOM      4  C   UNL     1       4.627   6.124  16.753  0.00  0.00    +0.000 A 
ATOM      5  C   UNL     1       5.742   5.655  15.870  0.00  0.00    +0.000 C 
ATOM      6  N   UNL     1       3.931   5.172  17.395  0.00  0.00    +0.000 NA
ATOM      7  C   UNL     1       2.917   5.571  18.184  0.00  0.00    +0.000 A 
ATOM      8  N   UNL     1       2.526   6.851  18.325  0.00  0.00    +0.000 NA
ATOM      9  H   UNL     1       3.670   9.597  18.335  0.00  0.00    +0.000 HD
ENDROOT
BRANCH   7  10
ATOM     10  C   UNL     1       2.136   4.550  18.908  0.00  0.00    +0.000 A 
ATOM     11  C   UNL     1       1.512   3.511  18.183  0.00  0.00    +0.000 A 
ATOM     12  C   UNL     1       0.784   2.502  18.818  0.00  0.00    +0.000 A 
ATOM     13  C   UNL     1       0.657   2.506  20.202  0.00  0.00    +0.000 A 
ATOM     14  C   UNL     1       1.243   3.526  20.948  0.00  0.00    +0.000 A 
ATOM     15  C   UNL     1       1.966   4.539  20.305  0.00  0.00    +0.000 A 
BRANCH  15  16
ATOM     16  O   UNL     1       2.474   5.553  21.074  0.00  0.00    +0.000 OA
ATOM     17  H   UNL     1       2.877   5.185  21.873  0.00  0.00    +0.000 HD
ENDBRANCH  15  16
ENDBRANCH   7  10
BRANCH   1  20
ATOM     18  C   UNL     1       2.322  11.882  18.165  0.00  0.00    +0.000 C 
ATOM     19  C   UNL     1       1.344  10.738  18.363  0.00  0.00    +0.000 C 
ATOM     20  N   UNL     1       1.650   9.480  18.202  0.00  0.00    +0.000 NA
BRANCH  19  21
ATOM     21  C   UNL     1      -0.061  11.081  18.777  0.00  0.00    +0.000 A 
ATOM     22  C   UNL     1      -0.229  11.875  19.924  0.00  0.00    +0.000 A 
ATOM     23  C   UNL     1      -1.506  12.261  20.346  0.00  0.00    +0.000 A 
ATOM     24  C   UNL     1      -2.630  11.851  19.634  0.00  0.00    +0.000 A 
ATOM     25  C   UNL     1      -2.482  11.039  18.510  0.00  0.00    +0.000 A 
ATOM     26  C   UNL     1      -1.205  10.650  18.088  0.00  0.00    +0.000 A 
BRANCH  26  27
ATOM     27  O   UNL     1      -1.111   9.821  17.006  0.00  0.00    +0.000 OA
ATOM     28  H   UNL     1      -1.770   9.112  17.085  0.00  0.00    +0.000 HD
ENDBRANCH  26  27
ENDBRANCH  19  21
ENDBRANCH   1  20
TORSDOF 5
ENDMDL
MODEL 9
REMARK VINA RESULT:      -7.7      0.980      1.371
REMARK  Name = 
REMARK  7 active torsions:
REMARK  status: ('A' for Active; 'I' for Inactive)
REMARK    1  A    between atoms: C_1  and  C_2
REMARK    2  A    between atoms: C_2  and  C_19
REMARK    3  A    between atoms: N_3  and  N_4
REMARK    4  A    between atoms: C_7  and  C_8
REMARK    5  A    between atoms: C_10  and  C_11
REMARK    6  A    between atoms: C_16  and  O_17
REMARK    7  A    between atoms: C_24  and  O_25
REMARK                            x       y       z     vdW  Elec       q    Type
REMARK                         _______ _______ _______ _____ _____    ______ ____
ROOT
ATOM      1  N   UNL     1       1.238   7.409  20.675  0.00  0.00    +0.000 N 
ATOM      2  C   UNL     1       1.966   6.252  20.270  0.00  0.00    +0.000 A 
ATOM      3  C   UNL     1       1.821   5.119  21.048  0.00  0.00    +0.000 A 
ATOM      4  C   UNL     1       2.530   3.999  20.667  0.00  0.00    +0.000 A 
ATOM      5  C   UNL     1       2.500   2.738  21.476  0.00  0.00    +0.000 C 
ATOM      6  N   UNL     1       3.296   3.986  19.565  0.00  0.00    +0.000 NA
ATOM      7  C   UNL     1       3.346   5.113  18.833  0.00  0.00    +0.000 A 
ATOM      8  N   UNL     1       2.725   6.260  19.163  0.00  0.00    +0.000 NA
ATOM      9  H   UNL     1       0.252   7.203  20.521  0.00  0.00    +0.000 HD
ENDROOT
BRANCH   7  10
ATOM     10  C   UNL     1       4.174   5.130  17.611  0.00  0.00    +0.000 A 
ATOM     11  C   UNL     1       4.708   3.919  17.119  0.00  0.00    +0.000 A 
ATOM     12  C   UNL     1       5.476   3.871  15.952  0.00  0.00    +0.000 A 
ATOM     13  C   UNL     1       5.733   5.038  15.244  0.00  0.00    +0.000 A 
ATOM     14  C   UNL     1       5.238   6.254  15.710  0.00  0.00    +0.000 A 
ATOM     15  C   UNL     1       4.475   6.297  16.885  0.00  0.00    +0.000 A 
BRANCH  15  16
ATOM     16  O   UNL     1       4.060   7.522  17.337  0.00  0.00    +0.000 OA
ATOM     17  H   UNL     1       4.166   7.567  18.298  0.00  0.00    +0.000 HD
ENDBRANCH  15  16
ENDBRANCH   7  10
BRANCH   1  20
ATOM     18  C   UNL     1      -0.604   9.516  20.650  0.00  0.00    +0.000 C 
ATOM     19  C   UNL     1       0.839   9.612  20.191  0.00  0.00    +0.000 C 
ATOM     20  N   UNL     1       1.675   8.611  20.195  0.00  0.00    +0.000 NA
BRANCH  19  21
ATOM     21  C   UNL     1       1.329  10.945  19.694  0.00  0.00    +0.000 A 
ATOM     22  C   UNL     1       1.181  12.055  20.542  0.00  0.00    +0.000 A 
ATOM     23  C   UNL     1       1.646  13.317  20.158  0.00  0.00    +0.000 A 
ATOM     24  C   UNL     1       2.257  13.488  18.919  0.00  0.00    +0.000 A 
ATOM     25  C   UNL     1       2.387  12.403  18.053  0.00  0.00    +0.000 A 
ATOM     26  C   UNL     1       1.919  11.140  18.435  0.00  0.00    +0.000 A 
BRANCH  26  27
ATOM     27  O   UNL     1       2.030  10.115  17.538  0.00  0.00    +0.000 OA
ATOM     28  H   UNL     1       2.856  10.213  17.036  0.00  0.00    +0.000 HD
ENDBRANCH  26  27
ENDBRANCH  19  21
ENDBRANCH   1  20
TORSDOF 5
ENDMDL
