MODEL 1
REMARK VINA RESULT:      -8.0      0.000      0.000
REMARK  Name = 
REMARK  6 active torsions:
REMARK  status: ('A' for Active; 'I' for Inactive)
REMARK    1  A    between atoms: C_1  and  O_2
REMARK    2  A    between atoms: O_2  and  C_3
REMARK    3  A    between atoms: C_9  and  C_10
REMARK    4  A    between atoms: C_11  and  O_12
REMARK    5  A    between atoms: C_17  and  C_18
REMARK    6  A    between atoms: C_19  and  C_20
REMARK                            x       y       z     vdW  Elec       q    Type
REMARK                         _______ _______ _______ _____ _____    ______ ____
ROOT
ATOM      1  C   UNL     1       3.619   6.844  17.844  0.00  0.00    +0.000 C 
ATOM      2  N   UNL     1       3.591   6.642  19.292  0.00  0.00    +0.000 N 
ATOM      3  C   UNL     1       3.640   5.275  19.679  0.00  0.00    +0.000 A 
ATOM      4  C   UNL     1       4.754   4.454  19.479  0.00  0.00    +0.000 A 
ATOM      5  C   UNL     1       4.739   3.112  19.895  0.00  0.00    +0.000 A 
ATOM      6  C   UNL     1       3.607   2.562  20.484  0.00  0.00    +0.000 A 
ATOM      7  C   UNL     1       2.469   3.348  20.696  0.00  0.00    +0.000 A 
ATOM      8  C   UNL     1       1.258   2.702  21.303  0.00  0.00    +0.000 C 
ATOM      9  C   UNL     1       2.510   4.702  20.316  0.00  0.00    +0.000 A 
ATOM     10  C   UNL     1       5.943   4.849  18.706  0.00  0.00    +0.000 C 
ATOM     11  O   UNL     1       7.056   4.459  19.044  0.00  0.00    +0.000 OA
ATOM     12  N   UNL     1       5.641   5.331  17.459  0.00  0.00    +0.000 N 
ATOM     13  C   UNL     1       5.871   4.631  16.305  0.00  0.00    +0.000 C 
ATOM     14  C   UNL     1       5.425   5.295  15.235  0.00  0.00    +0.000 C 
ATOM     15  C   UNL     1       4.910   6.658  15.644  0.00  0.00    +0.000 C 
ATOM     16  C   UNL     1       5.004   6.620  17.187  0.00  0.00    +0.000 C 
ATOM     17  H   UNL     1       2.685   6.989  19.628  0.00  0.00    +0.000 HD
ENDROOT
BRANCH   1  19
ATOM     18  C   UNL     1       1.892   8.507  18.184  0.00  0.00    +0.000 C 
ATOM     19  O   UNL     1       3.119   8.161  17.548  0.00  0.00    +0.000 OA
ENDBRANCH   1  19
BRANCH   9  20
ATOM     20  O   UNL     1       1.432   5.537  20.506  0.00  0.00    +0.000 OA
ATOM     21  H   UNL     1       1.709   6.450  20.331  0.00  0.00    +0.000 HD
ENDBRANCH   9  20
BRANCH  14  22
ATOM     22  C   UNL     1       5.380   4.769  13.896  0.00  0.00    +0.000 C 
ATOM     23  C   UNL     1       5.848   3.560  13.558  0.00  0.00    +0.000 C 
BRANCH  23  24
ATOM     24  C   UNL     1       5.818   3.096  12.156  0.00  0.00    +0.000 C 
ATOM     25  N   UNL     1       7.007   2.583  11.739  0.00  0.00    +0.000 N 
ATOM     26  O   UNL     1       4.841   3.164  11.427  0.00  0.00    +0.000 OA
ATOM     27  H   UNL     1       7.826   2.510  12.324  0.00  0.00    +0.000 HD
ATOM     28  H   UNL     1       7.061   2.244  10.788  0.00  0.00    +0.000 HD
ENDBRANCH  23  24
ENDBRANCH  14  22
TORSDOF 4
ENDMDL
MODEL 2
REMARK VINA RESULT:      -7.6      3.097      5.466
REMARK  Name = 
REMARK  6 active torsions:
REMARK  status: ('A' for Active; 'I' for Inactive)
REMARK    1  A    between atoms: C_1  and  O_2
REMARK    2  A    between atoms: O_2  and  C_3
REMARK    3  A    between atoms: C_9  and  C_10
REMARK    4  A    between atoms: C_11  and  O_12
REMARK    5  A    between atoms: C_17  and  C_18
REMARK    6  A    between atoms: C_19  and  C_20
REMARK                            x       y       z     vdW  Elec       q    Type
REMARK                         _______ _______ _______ _____ _____    ______ ____
ROOT
ATOM      1  C   UNL     1       5.747   4.399  16.755  0.00  0.00    +0.000 C 
ATOM      2  N   UNL     1       4.412   3.822  16.911  0.00  0.00    +0.000 N 
ATOM      3  C   UNL     1       3.759   4.211  18.113  0.00  0.00    +0.000 A 
ATOM      4  C   UNL     1       3.341   5.519  18.376  0.00  0.00    +0.000 A 
ATOM      5  C   UNL     1       2.692   5.835  19.583  0.00  0.00    +0.000 A 
ATOM      6  C   UNL     1       2.480   4.861  20.551  0.00  0.00    +0.000 A 
ATOM      7  C   UNL     1       2.889   3.542  20.329  0.00  0.00    +0.000 A 
ATOM      8  C   UNL     1       2.671   2.534  21.419  0.00  0.00    +0.000 C 
ATOM      9  C   UNL     1       3.498   3.229  19.100  0.00  0.00    +0.000 A 
ATOM     10  C   UNL     1       3.665   6.678  17.527  0.00  0.00    +0.000 C 
ATOM     11  O   UNL     1       2.854   7.588  17.389  0.00  0.00    +0.000 OA
ATOM     12  N   UNL     1       5.004   6.791  17.256  0.00  0.00    +0.000 N 
ATOM     13  C   UNL     1       5.808   7.746  17.817  0.00  0.00    +0.000 C 
ATOM     14  C   UNL     1       7.081   7.596  17.439  0.00  0.00    +0.000 C 
ATOM     15  C   UNL     1       7.194   6.481  16.422  0.00  0.00    +0.000 C 
ATOM     16  C   UNL     1       5.762   5.901  16.376  0.00  0.00    +0.000 C 
ATOM     17  H   UNL     1       4.529   2.805  16.981  0.00  0.00    +0.000 HD
ENDROOT
BRANCH   1  19
ATOM     18  C   UNL     1       6.098   3.813  14.432  0.00  0.00    +0.000 C 
ATOM     19  O   UNL     1       6.480   3.621  15.791  0.00  0.00    +0.000 OA
ENDBRANCH   1  19
BRANCH   9  20
ATOM     20  O   UNL     1       3.914   1.950  18.808  0.00  0.00    +0.000 OA
ATOM     21  H   UNL     1       3.317   1.320  19.241  0.00  0.00    +0.000 HD
ENDBRANCH   9  20
BRANCH  14  22
ATOM     22  C   UNL     1       8.192   8.341  17.968  0.00  0.00    +0.000 C 
ATOM     23  C   UNL     1       8.207   9.676  18.074  0.00  0.00    +0.000 C 
BRANCH  23  24
ATOM     24  C   UNL     1       9.399  10.388  18.580  0.00  0.00    +0.000 C 
ATOM     25  N   UNL     1       9.589  10.225  19.916  0.00  0.00    +0.000 N 
ATOM     26  O   UNL     1      10.145  11.063  17.888  0.00  0.00    +0.000 OA
ATOM     27  H   UNL     1       8.990   9.667  20.508  0.00  0.00    +0.000 HD
ATOM     28  H   UNL     1      10.388  10.682  20.334  0.00  0.00    +0.000 HD
ENDBRANCH  23  24
ENDBRANCH  14  22
TORSDOF 4
ENDMDL
MODEL 3
REMARK VINA RESULT:      -7.1      4.390      7.188
REMARK  Name = 
REMARK  6 active torsions:
REMARK  status: ('A' for Active; 'I' for Inactive)
REMARK    1  A    between atoms: C_1  and  O_2
REMARK    2  A    between atoms: O_2  and  C_3
REMARK    3  A    between atoms: C_9  and  C_10
REMARK    4  A    between atoms: C_11  and  O_12
REMARK    5  A    between atoms: C_17  and  C_18
REMARK    6  A    between atoms: C_19  and  C_20
REMARK                            x       y       z     vdW  Elec       q    Type
REMARK                         _______ _______ _______ _____ _____    ______ ____
ROOT
ATOM      1  C   UNL     1       1.001   8.589  20.966  0.00  0.00    +0.000 C 
ATOM      2  N   UNL     1       2.177   7.721  20.997  0.00  0.00    +0.000 N 
ATOM      3  C   UNL     1       2.207   6.761  19.949  0.00  0.00    +0.000 A 
ATOM      4  C   UNL     1       2.358   7.094  18.600  0.00  0.00    +0.000 A 
ATOM      5  C   UNL     1       2.388   6.093  17.613  0.00  0.00    +0.000 A 
ATOM      6  C   UNL     1       2.237   4.755  17.954  0.00  0.00    +0.000 A 
ATOM      7  C   UNL     1       2.077   4.380  19.292  0.00  0.00    +0.000 A 
ATOM      8  C   UNL     1       1.882   2.925  19.607  0.00  0.00    +0.000 C 
ATOM      9  C   UNL     1       2.092   5.386  20.275  0.00  0.00    +0.000 A 
ATOM     10  C   UNL     1       2.341   8.473  18.082  0.00  0.00    +0.000 C 
ATOM     11  O   UNL     1       3.053   8.784  17.132  0.00  0.00    +0.000 OA
ATOM     12  N   UNL     1       1.250   9.191  18.496  0.00  0.00    +0.000 N 
ATOM     13  C   UNL     1       0.206   9.516  17.672  0.00  0.00    +0.000 C 
ATOM     14  C   UNL     1      -0.758  10.159  18.337  0.00  0.00    +0.000 C 
ATOM     15  C   UNL     1      -0.324  10.417  19.764  0.00  0.00    +0.000 C 
ATOM     16  C   UNL     1       1.028   9.673  19.859  0.00  0.00    +0.000 C 
ATOM     17  H   UNL     1       2.127   7.175  21.866  0.00  0.00    +0.000 HD
ENDROOT
BRANCH   1  19
ATOM     18  C   UNL     1      -0.483   9.088  22.813  0.00  0.00    +0.000 C 
ATOM     19  O   UNL     1       0.828   9.187  22.264  0.00  0.00    +0.000 OA
ENDBRANCH   1  19
BRANCH   9  20
ATOM     20  O   UNL     1       1.953   5.089  21.611  0.00  0.00    +0.000 OA
ATOM     21  H   UNL     1       2.826   5.124  22.032  0.00  0.00    +0.000 HD
ENDBRANCH   9  20
BRANCH  14  22
ATOM     22  C   UNL     1      -2.046  10.503  17.796  0.00  0.00    +0.000 C 
ATOM     23  C   UNL     1      -2.319  10.525  16.485  0.00  0.00    +0.000 C 
BRANCH  23  24
ATOM     24  C   UNL     1      -3.649  10.934  15.990  0.00  0.00    +0.000 C 
ATOM     25  N   UNL     1      -4.229  11.897  16.755  0.00  0.00    +0.000 N 
ATOM     26  O   UNL     1      -4.194  10.464  15.003  0.00  0.00    +0.000 OA
ATOM     27  H   UNL     1      -3.797  12.306  17.571  0.00  0.00    +0.000 HD
ATOM     28  H   UNL     1      -5.142  12.228  16.476  0.00  0.00    +0.000 HD
ENDBRANCH  23  24
ENDBRANCH  14  22
TORSDOF 4
ENDMDL
MODEL 4
REMARK VINA RESULT:      -6.9      4.487      7.898
REMARK  Name = 
REMARK  6 active torsions:
REMARK  status: ('A' for Active; 'I' for Inactive)
REMARK    1  A    between atoms: C_1  and  O_2
REMARK    2  A    between atoms: O_2  and  C_3
REMARK    3  A    between atoms: C_9  and  C_10
REMARK    4  A    between atoms: C_11  and  O_12
REMARK    5  A    between atoms: C_17  and  C_18
REMARK    6  A    between atoms: C_19  and  C_20
REMARK                            x       y       z     vdW  Elec       q    Type
REMARK                         _______ _______ _______ _____ _____    ______ ____
ROOT
ATOM      1  C   UNL     1       0.885   8.732  21.078  0.00  0.00    +0.000 C 
ATOM      2  N   UNL     1       2.113   7.939  21.030  0.00  0.00    +0.000 N 
ATOM      3  C   UNL     1       2.152   7.012  19.952  0.00  0.00    +0.000 A 
ATOM      4  C   UNL     1       2.219   7.392  18.609  0.00  0.00    +0.000 A 
ATOM      5  C   UNL     1       2.265   6.422  17.591  0.00  0.00    +0.000 A 
ATOM      6  C   UNL     1       2.212   5.068  17.897  0.00  0.00    +0.000 A 
ATOM      7  C   UNL     1       2.138   4.647  19.229  0.00  0.00    +0.000 A 
ATOM      8  C   UNL     1       2.048   3.175  19.508  0.00  0.00    +0.000 C 
ATOM      9  C   UNL     1       2.138   5.624  20.241  0.00  0.00    +0.000 A 
ATOM     10  C   UNL     1       2.093   8.780  18.134  0.00  0.00    +0.000 C 
ATOM     11  O   UNL     1       2.739   9.161  17.164  0.00  0.00    +0.000 OA
ATOM     12  N   UNL     1       0.981   9.417  18.619  0.00  0.00    +0.000 N 
ATOM     13  C   UNL     1      -0.119   9.698  17.853  0.00  0.00    +0.000 C 
ATOM     14  C   UNL     1      -1.089  10.261  18.580  0.00  0.00    +0.000 C 
ATOM     15  C   UNL     1      -0.605  10.505  19.994  0.00  0.00    +0.000 C 
ATOM     16  C   UNL     1       0.793   9.846  20.005  0.00  0.00    +0.000 C 
ATOM     17  H   UNL     1       2.136   7.368  21.883  0.00  0.00    +0.000 HD
ENDROOT
BRANCH   1  19
ATOM     18  C   UNL     1      -0.577   9.211  22.948  0.00  0.00    +0.000 C 
ATOM     19  O   UNL     1       0.737   9.281  22.400  0.00  0.00    +0.000 OA
ENDBRANCH   1  19
BRANCH   9  20
ATOM     20  O   UNL     1       2.079   5.282  21.573  0.00  0.00    +0.000 OA
ATOM     21  H   UNL     1       2.596   5.924  22.084  0.00  0.00    +0.000 HD
ENDBRANCH   9  20
BRANCH  14  22
ATOM     22  C   UNL     1      -2.420  10.537  18.109  0.00  0.00    +0.000 C 
ATOM     23  C   UNL     1      -3.161  11.566  18.541  0.00  0.00    +0.000 C 
BRANCH  23  24
ATOM     24  C   UNL     1      -4.541  11.768  18.053  0.00  0.00    +0.000 C 
ATOM     25  N   UNL     1      -4.600  12.060  16.727  0.00  0.00    +0.000 N 
ATOM     26  O   UNL     1      -5.539  11.694  18.754  0.00  0.00    +0.000 OA
ATOM     27  H   UNL     1      -3.791  12.121  16.126  0.00  0.00    +0.000 HD
ATOM     28  H   UNL     1      -5.514  12.211  16.322  0.00  0.00    +0.000 HD
ENDBRANCH  23  24
ENDBRANCH  14  22
TORSDOF 4
ENDMDL
MODEL 5
REMARK VINA RESULT:      -6.9      2.519      6.589
REMARK  Name = 
REMARK  6 active torsions:
REMARK  status: ('A' for Active; 'I' for Inactive)
REMARK    1  A    between atoms: C_1  and  O_2
REMARK    2  A    between atoms: O_2  and  C_3
REMARK    3  A    between atoms: C_9  and  C_10
REMARK    4  A    between atoms: C_11  and  O_12
REMARK    5  A    between atoms: C_17  and  C_18
REMARK    6  A    between atoms: C_19  and  C_20
REMARK                            x       y       z     vdW  Elec       q    Type
REMARK                         _______ _______ _______ _____ _____    ______ ____
ROOT
ATOM      1  C   UNL     1       3.310   3.749  17.336  0.00  0.00    +0.000 C 
ATOM      2  N   UNL     1       4.557   3.080  16.966  0.00  0.00    +0.000 N 
ATOM      3  C   UNL     1       5.602   3.976  16.609  0.00  0.00    +0.000 A 
ATOM      4  C   UNL     1       6.215   4.848  17.514  0.00  0.00    +0.000 A 
ATOM      5  C   UNL     1       7.250   5.702  17.097  0.00  0.00    +0.000 A 
ATOM      6  C   UNL     1       7.665   5.721  15.771  0.00  0.00    +0.000 A 
ATOM      7  C   UNL     1       7.073   4.868  14.833  0.00  0.00    +0.000 A 
ATOM      8  C   UNL     1       7.531   4.950  13.405  0.00  0.00    +0.000 C 
ATOM      9  C   UNL     1       6.068   3.987  15.271  0.00  0.00    +0.000 A 
ATOM     10  C   UNL     1       5.752   5.066  18.895  0.00  0.00    +0.000 C 
ATOM     11  O   UNL     1       6.563   5.278  19.791  0.00  0.00    +0.000 OA
ATOM     12  N   UNL     1       4.417   5.365  18.976  0.00  0.00    +0.000 N 
ATOM     13  C   UNL     1       3.942   6.616  19.265  0.00  0.00    +0.000 C 
ATOM     14  C   UNL     1       2.607   6.654  19.217  0.00  0.00    +0.000 C 
ATOM     15  C   UNL     1       2.055   5.267  18.967  0.00  0.00    +0.000 C 
ATOM     16  C   UNL     1       3.327   4.420  18.732  0.00  0.00    +0.000 C 
ATOM     17  H   UNL     1       4.365   2.532  16.119  0.00  0.00    +0.000 HD
ENDROOT
BRANCH   1  19
ATOM     18  C   UNL     1       2.177   1.819  18.260  0.00  0.00    +0.000 C 
ATOM     19  O   UNL     1       2.227   2.806  17.234  0.00  0.00    +0.000 OA
ENDBRANCH   1  19
BRANCH   9  20
ATOM     20  O   UNL     1       5.451   3.111  14.406  0.00  0.00    +0.000 OA
ATOM     21  H   UNL     1       6.086   2.849  13.721  0.00  0.00    +0.000 HD
ENDBRANCH   9  20
BRANCH  14  22
ATOM     22  C   UNL     1       1.811   7.848  19.323  0.00  0.00    +0.000 C 
ATOM     23  C   UNL     1       1.800   8.817  18.399  0.00  0.00    +0.000 C 
BRANCH  23  24
ATOM     24  C   UNL     1       0.998  10.043  18.589  0.00  0.00    +0.000 C 
ATOM     25  N   UNL     1       1.591  11.153  18.075  0.00  0.00    +0.000 N 
ATOM     26  O   UNL     1      -0.084  10.079  19.154  0.00  0.00    +0.000 OA
ATOM     27  H   UNL     1       2.481  11.148  17.598  0.00  0.00    +0.000 HD
ATOM     28  H   UNL     1       1.098  12.031  18.168  0.00  0.00    +0.000 HD
ENDBRANCH  23  24
ENDBRANCH  14  22
TORSDOF 4
ENDMDL
MODEL 6
REMARK VINA RESULT:      -6.6      4.731      8.398
REMARK  Name = 
REMARK  6 active torsions:
REMARK  status: ('A' for Active; 'I' for Inactive)
REMARK    1  A    between atoms: C_1  and  O_2
REMARK    2  A    between atoms: O_2  and  C_3
REMARK    3  A    between atoms: C_9  and  C_10
REMARK    4  A    between atoms: C_11  and  O_12
REMARK    5  A    between atoms: C_17  and  C_18
REMARK    6  A    between atoms: C_19  and  C_20
REMARK                            x       y       z     vdW  Elec       q    Type
REMARK                         _______ _______ _______ _____ _____    ______ ____
ROOT
ATOM      1  C   UNL     1       0.808  10.447  21.390  0.00  0.00    +0.000 C 
ATOM      2  N   UNL     1      -0.133  11.544  21.619  0.00  0.00    +0.000 N 
ATOM      3  C   UNL     1      -0.075  12.562  20.628  0.00  0.00    +0.000 A 
ATOM      4  C   UNL     1      -0.459  12.369  19.298  0.00  0.00    +0.000 A 
ATOM      5  C   UNL     1      -0.385  13.423  18.371  0.00  0.00    +0.000 A 
ATOM      6  C   UNL     1       0.100  14.669  18.748  0.00  0.00    +0.000 A 
ATOM      7  C   UNL     1       0.502  14.901  20.068  0.00  0.00    +0.000 A 
ATOM      8  C   UNL     1       1.053  16.252  20.419  0.00  0.00    +0.000 C 
ATOM      9  C   UNL     1       0.382  13.852  20.998  0.00  0.00    +0.000 A 
ATOM     10  C   UNL     1      -0.813  11.061  18.721  0.00  0.00    +0.000 C 
ATOM     11  O   UNL     1      -1.686  10.982  17.863  0.00  0.00    +0.000 OA
ATOM     12  N   UNL     1       0.132  10.096  18.952  0.00  0.00    +0.000 N 
ATOM     13  C   UNL     1       0.970   9.616  17.981  0.00  0.00    +0.000 C 
ATOM     14  C   UNL     1       1.840   8.733  18.480  0.00  0.00    +0.000 C 
ATOM     15  C   UNL     1       1.536   8.471  19.940  0.00  0.00    +0.000 C 
ATOM     16  C   UNL     1       0.405   9.479  20.250  0.00  0.00    +0.000 C 
ATOM     17  H   UNL     1       0.143  12.000  22.496  0.00  0.00    +0.000 HD
ENDROOT
BRANCH   1  19
ATOM     18  C   UNL     1      -0.177   9.533  23.405  0.00  0.00    +0.000 C 
ATOM     19  O   UNL     1       0.999   9.732  22.625  0.00  0.00    +0.000 OA
ENDBRANCH   1  19
BRANCH   9  20
ATOM     20  O   UNL     1       0.746  14.013  22.315  0.00  0.00    +0.000 OA
ATOM     21  H   UNL     1      -0.056  14.133  22.849  0.00  0.00    +0.000 HD
ENDBRANCH   9  20
BRANCH  14  22
ATOM     22  C   UNL     1       2.943   8.162  17.756  0.00  0.00    +0.000 C 
ATOM     23  C   UNL     1       3.393   6.915  17.951  0.00  0.00    +0.000 C 
BRANCH  23  24
ATOM     24  C   UNL     1       4.563   6.402  17.209  0.00  0.00    +0.000 C 
ATOM     25  N   UNL     1       5.304   5.517  17.929  0.00  0.00    +0.000 N 
ATOM     26  O   UNL     1       4.858   6.731  16.071  0.00  0.00    +0.000 OA
ATOM     27  H   UNL     1       5.078   5.225  18.869  0.00  0.00    +0.000 HD
ATOM     28  H   UNL     1       6.122   5.123  17.485  0.00  0.00    +0.000 HD
ENDBRANCH  23  24
ENDBRANCH  14  22
TORSDOF 4
ENDMDL
MODEL 7
REMARK VINA RESULT:      -6.6      2.533      6.987
REMARK  Name = 
REMARK  6 active torsions:
REMARK  status: ('A' for Active; 'I' for Inactive)
REMARK    1  A    between atoms: C_1  and  O_2
REMARK    2  A    between atoms: O_2  and  C_3
REMARK    3  A    between atoms: C_9  and  C_10
REMARK    4  A    between atoms: C_11  and  O_12
REMARK    5  A    between atoms: C_17  and  C_18
REMARK    6  A    between atoms: C_19  and  C_20
REMARK                            x       y       z     vdW  Elec       q    Type
REMARK                         _______ _______ _______ _____ _____    ______ ____
ROOT
ATOM      1  C   UNL     1       3.315   3.641  17.417  0.00  0.00    +0.000 C 
ATOM      2  N   UNL     1       4.557   2.998  16.988  0.00  0.00    +0.000 N 
ATOM      3  C   UNL     1       5.587   3.917  16.644  0.00  0.00    +0.000 A 
ATOM      4  C   UNL     1       6.215   4.755  17.570  0.00  0.00    +0.000 A 
ATOM      5  C   UNL     1       7.234   5.634  17.164  0.00  0.00    +0.000 A 
ATOM      6  C   UNL     1       7.616   5.713  15.830  0.00  0.00    +0.000 A 
ATOM      7  C   UNL     1       7.007   4.896  14.871  0.00  0.00    +0.000 A 
ATOM      8  C   UNL     1       7.428   5.041  13.438  0.00  0.00    +0.000 C 
ATOM      9  C   UNL     1       6.019   3.988  15.296  0.00  0.00    +0.000 A 
ATOM     10  C   UNL     1       5.786   4.910  18.969  0.00  0.00    +0.000 C 
ATOM     11  O   UNL     1       6.617   5.091  19.853  0.00  0.00    +0.000 OA
ATOM     12  N   UNL     1       4.451   5.195  19.096  0.00  0.00    +0.000 N 
ATOM     13  C   UNL     1       3.974   6.428  19.450  0.00  0.00    +0.000 C 
ATOM     14  C   UNL     1       2.639   6.458  19.436  0.00  0.00    +0.000 C 
ATOM     15  C   UNL     1       2.090   5.078  19.141  0.00  0.00    +0.000 C 
ATOM     16  C   UNL     1       3.362   4.252  18.839  0.00  0.00    +0.000 C 
ATOM     17  H   UNL     1       4.349   2.485  16.124  0.00  0.00    +0.000 HD
ENDROOT
BRANCH   1  19
ATOM     18  C   UNL     1       2.166   1.719  18.338  0.00  0.00    +0.000 C 
ATOM     19  O   UNL     1       2.237   2.694  17.301  0.00  0.00    +0.000 OA
ENDBRANCH   1  19
BRANCH   9  20
ATOM     20  O   UNL     1       5.387   3.145  14.411  0.00  0.00    +0.000 OA
ATOM     21  H   UNL     1       5.960   2.381  14.243  0.00  0.00    +0.000 HD
ENDBRANCH   9  20
BRANCH  14  22
ATOM     22  C   UNL     1       1.837   7.639  19.612  0.00  0.00    +0.000 C 
ATOM     23  C   UNL     1       1.452   8.103  20.809  0.00  0.00    +0.000 C 
BRANCH  23  24
ATOM     24  C   UNL     1       0.587   9.295  20.921  0.00  0.00    +0.000 C 
ATOM     25  N   UNL     1      -0.358   9.178  21.892  0.00  0.00    +0.000 N 
ATOM     26  O   UNL     1       0.687  10.290  20.220  0.00  0.00    +0.000 OA
ATOM     27  H   UNL     1      -0.457   8.369  22.489  0.00  0.00    +0.000 HD
ATOM     28  H   UNL     1      -0.987   9.957  22.028  0.00  0.00    +0.000 HD
ENDBRANCH  23  24
ENDBRANCH  14  22
TORSDOF 4
ENDMDL
MODEL 8
REMARK VINA RESULT:      -6.6      8.111     10.183
REMARK  Name = 
REMARK  6 active torsions:
REMARK  status: ('A' for Active; 'I' for Inactive)
REMARK    1  A    between atoms: C_1  and  O_2
REMARK    2  A    between atoms: O_2  and  C_3
REMARK    3  A    between atoms: C_9  and  C_10
REMARK    4  A    between atoms: C_11  and  O_12
REMARK    5  A    between atoms: C_17  and  C_18
REMARK    6  A    between atoms: C_19  and  C_20
REMARK                            x       y       z     vdW  Elec       q    Type
REMARK                         _______ _______ _______ _____ _____    ______ ____
ROOT
ATOM      1  C   UNL     1      10.118  13.444  17.831  0.00  0.00    +0.000 C 
ATOM      2  N   UNL     1      10.103  14.777  18.432  0.00  0.00    +0.000 N 
ATOM      3  C   UNL     1       8.983  15.011  19.275  0.00  0.00    +0.000 A 
ATOM      4  C   UNL     1       8.776  14.347  20.488  0.00  0.00    +0.000 A 
ATOM      5  C   UNL     1       7.650  14.634  21.279  0.00  0.00    +0.000 A 
ATOM      6  C   UNL     1       6.703  15.559  20.859  0.00  0.00    +0.000 A 
ATOM      7  C   UNL     1       6.869  16.240  19.649  0.00  0.00    +0.000 A 
ATOM      8  C   UNL     1       5.801  17.204  19.220  0.00  0.00    +0.000 C 
ATOM      9  C   UNL     1       8.022  15.978  18.886  0.00  0.00    +0.000 A 
ATOM     10  C   UNL     1       9.594  13.218  20.962  0.00  0.00    +0.000 C 
ATOM     11  O   UNL     1       9.827  13.085  22.159  0.00  0.00    +0.000 OA
ATOM     12  N   UNL     1       9.719  12.216  20.036  0.00  0.00    +0.000 N 
ATOM     13  C   UNL     1       9.082  11.009  20.142  0.00  0.00    +0.000 C 
ATOM     14  C   UNL     1       9.317  10.238  19.076  0.00  0.00    +0.000 C 
ATOM     15  C   UNL     1      10.308  10.914  18.152  0.00  0.00    +0.000 C 
ATOM     16  C   UNL     1      10.504  12.302  18.804  0.00  0.00    +0.000 C 
ATOM     17  H   UNL     1      10.013  15.453  17.664  0.00  0.00    +0.000 HD
ENDROOT
BRANCH   1  19
ATOM     18  C   UNL     1      12.333  13.858  16.946  0.00  0.00    +0.000 C 
ATOM     19  O   UNL     1      10.990  13.458  16.686  0.00  0.00    +0.000 OA
ENDBRANCH   1  19
BRANCH   9  20
ATOM     20  O   UNL     1       8.256  16.620  17.692  0.00  0.00    +0.000 OA
ATOM     21  H   UNL     1       7.427  16.660  17.190  0.00  0.00    +0.000 HD
ENDBRANCH   9  20
BRANCH  14  22
ATOM     22  C   UNL     1       8.677   8.977  18.812  0.00  0.00    +0.000 C 
ATOM     23  C   UNL     1       8.057   8.686  17.661  0.00  0.00    +0.000 C 
BRANCH  23  24
ATOM     24  C   UNL     1       7.376   7.389  17.469  0.00  0.00    +0.000 C 
ATOM     25  N   UNL     1       7.780   6.439  18.353  0.00  0.00    +0.000 N 
ATOM     26  O   UNL     1       6.539   7.170  16.607  0.00  0.00    +0.000 OA
ATOM     27  H   UNL     1       8.465   6.597  19.079  0.00  0.00    +0.000 HD
ATOM     28  H   UNL     1       7.355   5.524  18.283  0.00  0.00    +0.000 HD
ENDBRANCH  23  24
ENDBRANCH  14  22
TORSDOF 4
ENDMDL
MODEL 9
REMARK VINA RESULT:      -6.4      6.044      9.414
REMARK  Name = 
REMARK  6 active torsions:
REMARK  status: ('A' for Active; 'I' for Inactive)
REMARK    1  A    between atoms: C_1  and  O_2
REMARK    2  A    between atoms: O_2  and  C_3
REMARK    3  A    between atoms: C_9  and  C_10
REMARK    4  A    between atoms: C_11  and  O_12
REMARK    5  A    between atoms: C_17  and  C_18
REMARK    6  A    between atoms: C_19  and  C_20
REMARK                            x       y       z     vdW  Elec       q    Type
REMARK                         _______ _______ _______ _____ _____    ______ ____
ROOT
ATOM      1  C   UNL     1      -1.664  11.590  18.803  0.00  0.00    +0.000 C 
ATOM      2  N   UNL     1      -2.272  12.828  19.289  0.00  0.00    +0.000 N 
ATOM      3  C   UNL     1      -2.439  12.868  20.700  0.00  0.00    +0.000 A 
ATOM      4  C   UNL     1      -1.373  12.912  21.603  0.00  0.00    +0.000 A 
ATOM      5  C   UNL     1      -1.608  12.959  22.988  0.00  0.00    +0.000 A 
ATOM      6  C   UNL     1      -2.903  12.930  23.491  0.00  0.00    +0.000 A 
ATOM      7  C   UNL     1      -3.997  12.878  22.621  0.00  0.00    +0.000 A 
ATOM      8  C   UNL     1      -5.376  12.812  23.211  0.00  0.00    +0.000 C 
ATOM      9  C   UNL     1      -3.751  12.876  21.236  0.00  0.00    +0.000 A 
ATOM     10  C   UNL     1       0.041  12.761  21.221  0.00  0.00    +0.000 C 
ATOM     11  O   UNL     1       0.912  13.389  21.815  0.00  0.00    +0.000 OA
ATOM     12  N   UNL     1       0.279  11.646  20.461  0.00  0.00    +0.000 N 
ATOM     13  C   UNL     1       0.918  10.533  20.936  0.00  0.00    +0.000 C 
ATOM     14  C   UNL     1       0.961   9.564  20.016  0.00  0.00    +0.000 C 
ATOM     15  C   UNL     1       0.384  10.062  18.709  0.00  0.00    +0.000 C 
ATOM     16  C   UNL     1      -0.143  11.469  19.071  0.00  0.00    +0.000 C 
ATOM     17  H   UNL     1      -3.222  12.871  18.900  0.00  0.00    +0.000 HD
ENDROOT
BRANCH   1  19
ATOM     18  C   UNL     1      -3.311  11.184  17.075  0.00  0.00    +0.000 C 
ATOM     19  O   UNL     1      -1.950  11.451  17.399  0.00  0.00    +0.000 OA
ENDBRANCH   1  19
BRANCH   9  20
ATOM     20  O   UNL     1      -4.780  12.839  20.322  0.00  0.00    +0.000 OA
ATOM     21  H   UNL     1      -5.357  12.088  20.531  0.00  0.00    +0.000 HD
ENDBRANCH   9  20
BRANCH  14  22
ATOM     22  C   UNL     1       1.429   8.224  20.250  0.00  0.00    +0.000 C 
ATOM     23  C   UNL     1       2.212   7.552  19.396  0.00  0.00    +0.000 C 
BRANCH  23  24
ATOM     24  C   UNL     1       2.619   6.158  19.670  0.00  0.00    +0.000 C 
ATOM     25  N   UNL     1       2.143   5.688  20.853  0.00  0.00    +0.000 N 
ATOM     26  O   UNL     1       3.317   5.484  18.929  0.00  0.00    +0.000 OA
ATOM     27  H   UNL     1       1.559   6.223  21.480  0.00  0.00    +0.000 HD
ATOM     28  H   UNL     1       2.380   4.739  21.109  0.00  0.00    +0.000 HD
ENDBRANCH  23  24
ENDBRANCH  14  22
TORSDOF 4
ENDMDL
