MODEL 1
REMARK VINA RESULT:      -5.3      0.000      0.000
REMARK  Name = 
REMARK  16 active torsions:
REMARK  status: ('A' for Active; 'I' for Inactive)
REMARK    1  A    between atoms: C_1  and  C_2
REMARK    2  A    between atoms: C_2  and  C_3
REMARK    3  A    between atoms: C_3  and  C_4
REMARK    4  A    between atoms: C_4  and  N_5
REMARK    5  A    between atoms: N_5  and  C_6
REMARK    6  A    between atoms: N_5  and  C_10
REMARK    7  A    between atoms: N_5  and  C_14
REMARK    8  A    between atoms: C_6  and  C_7
REMARK    9  A    between atoms: C_7  and  C_8
REMARK   10  A    between atoms: C_8  and  C_9
REMARK   11  A    between atoms: C_10  and  C_11
REMARK   12  A    between atoms: C_11  and  C_12
REMARK   13  A    between atoms: C_12  and  C_13
REMARK   14  A    between atoms: C_14  and  C_15
REMARK   15  A    between atoms: C_15  and  C_16
REMARK   16  A    between atoms: C_16  and  C_17
REMARK                            x       y       z     vdW  Elec       q    Type
REMARK                         _______ _______ _______ _____ _____    ______ ____
ROOT
ATOM      1  N   UNL     1       4.558   4.317  18.527  0.00  0.00    +0.000 N 
ENDROOT
BRANCH   1   2
ATOM      2  C   UNL     1       4.051   3.954  17.069  0.00  0.00    +0.000 C 
BRANCH   2   3
ATOM      3  C   UNL     1       5.061   4.132  15.887  0.00  0.00    +0.000 C 
BRANCH   3   5
ATOM      4  C   UNL     1       6.997   4.845  14.583  0.00  0.00    +0.000 C 
ATOM      5  C   UNL     1       5.594   5.316  15.014  0.00  0.00    +0.000 C 
ENDBRANCH   3   5
ENDBRANCH   2   3
ENDBRANCH   1   2
BRANCH   1   6
ATOM      6  C   UNL     1       6.142   4.473  18.492  0.00  0.00    +0.000 C 
BRANCH   6   7
ATOM      7  C   UNL     1       6.700   5.631  19.320  0.00  0.00    +0.000 C 
BRANCH   7   8
ATOM      8  C   UNL     1       7.873   6.323  18.605  0.00  0.00    +0.000 C 
ATOM      9  C   UNL     1       7.381   7.299  17.544  0.00  0.00    +0.000 C 
ENDBRANCH   7   8
ENDBRANCH   6   7
ENDBRANCH   1   6
BRANCH   1  10
ATOM     10  C   UNL     1       3.876   5.587  19.126  0.00  0.00    +0.000 C 
BRANCH  10  11
ATOM     11  C   UNL     1       2.869   6.230  18.176  0.00  0.00    +0.000 C 
BRANCH  11  12
ATOM     12  C   UNL     1       3.370   7.559  17.687  0.00  0.00    +0.000 C 
ATOM     13  C   UNL     1       2.281   8.606  17.823  0.00  0.00    +0.000 C 
ENDBRANCH  11  12
ENDBRANCH  10  11
ENDBRANCH   1  10
BRANCH   1  14
ATOM     14  C   UNL     1       4.192   3.179  19.516  0.00  0.00    +0.000 C 
BRANCH  14  15
ATOM     15  C   UNL     1       2.907   2.618  19.246  0.00  0.00    +0.000 C 
BRANCH  15  16
ATOM     16  C   UNL     1       1.706   2.521  20.266  0.00  0.00    +0.000 C 
ATOM     17  C   UNL     1       0.829   3.749  20.290  0.00  0.00    +0.000 C 
ENDBRANCH  15  16
ENDBRANCH  14  15
ENDBRANCH   1  14
TORSDOF 12
ENDMDL
MODEL 2
REMARK VINA RESULT:      -5.2      0.741      3.774
REMARK  Name = 
REMARK  16 active torsions:
REMARK  status: ('A' for Active; 'I' for Inactive)
REMARK    1  A    between atoms: C_1  and  C_2
REMARK    2  A    between atoms: C_2  and  C_3
REMARK    3  A    between atoms: C_3  and  C_4
REMARK    4  A    between atoms: C_4  and  N_5
REMARK    5  A    between atoms: N_5  and  C_6
REMARK    6  A    between atoms: N_5  and  C_10
REMARK    7  A    between atoms: N_5  and  C_14
REMARK    8  A    between atoms: C_6  and  C_7
REMARK    9  A    between atoms: C_7  and  C_8
REMARK   10  A    between atoms: C_8  and  C_9
REMARK   11  A    between atoms: C_10  and  C_11
REMARK   12  A    between atoms: C_11  and  C_12
REMARK   13  A    between atoms: C_12  and  C_13
REMARK   14  A    between atoms: C_14  and  C_15
REMARK   15  A    between atoms: C_15  and  C_16
REMARK   16  A    between atoms: C_16  and  C_17
REMARK                            x       y       z     vdW  Elec       q    Type
REMARK                         _______ _______ _______ _____ _____    ______ ____
ROOT
ATOM      1  N   UNL     1       4.091   4.488  18.476  0.00  0.00    +0.000 N 
ENDROOT
BRANCH   1   2
ATOM      2  C   UNL     1       5.560   4.228  19.017  0.00  0.00    +0.000 C 
BRANCH   2   3
ATOM      3  C   UNL     1       6.465   5.478  19.278  0.00  0.00    +0.000 C 
BRANCH   3   5
ATOM      4  C   UNL     1       7.161   7.054  17.549  0.00  0.00    +0.000 C 
ATOM      5  C   UNL     1       7.737   6.117  18.629  0.00  0.00    +0.000 C 
ENDBRANCH   3   5
ENDBRANCH   2   3
ENDBRANCH   1   2
BRANCH   1   6
ATOM      6  C   UNL     1       3.547   5.842  19.111  0.00  0.00    +0.000 C 
BRANCH   6   7
ATOM      7  C   UNL     1       3.200   6.939  18.103  0.00  0.00    +0.000 C 
BRANCH   7   8
ATOM      8  C   UNL     1       2.222   7.966  18.699  0.00  0.00    +0.000 C 
ATOM      9  C   UNL     1       1.986   9.128  17.744  0.00  0.00    +0.000 C 
ENDBRANCH   7   8
ENDBRANCH   6   7
ENDBRANCH   1   6
BRANCH   1  10
ATOM     10  C   UNL     1       3.997   4.513  16.919  0.00  0.00    +0.000 C 
BRANCH  10  11
ATOM     11  C   UNL     1       5.245   3.964  16.233  0.00  0.00    +0.000 C 
BRANCH  11  12
ATOM     12  C   UNL     1       5.518   4.700  14.953  0.00  0.00    +0.000 C 
ATOM     13  C   UNL     1       7.011   4.737  14.684  0.00  0.00    +0.000 C 
ENDBRANCH  11  12
ENDBRANCH  10  11
ENDBRANCH   1  10
BRANCH   1  14
ATOM     14  C   UNL     1       3.156   3.327  18.903  0.00  0.00    +0.000 C 
BRANCH  14  15
ATOM     15  C   UNL     1       1.817   3.766  19.134  0.00  0.00    +0.000 C 
BRANCH  15  16
ATOM     16  C   UNL     1       0.971   3.512  20.442  0.00  0.00    +0.000 C 
ATOM     17  C   UNL     1       1.763   2.892  21.567  0.00  0.00    +0.000 C 
ENDBRANCH  15  16
ENDBRANCH  14  15
ENDBRANCH   1  14
TORSDOF 12
ENDMDL
MODEL 3
REMARK VINA RESULT:      -5.2      0.435      4.605
REMARK  Name = 
REMARK  16 active torsions:
REMARK  status: ('A' for Active; 'I' for Inactive)
REMARK    1  A    between atoms: C_1  and  C_2
REMARK    2  A    between atoms: C_2  and  C_3
REMARK    3  A    between atoms: C_3  and  C_4
REMARK    4  A    between atoms: C_4  and  N_5
REMARK    5  A    between atoms: N_5  and  C_6
REMARK    6  A    between atoms: N_5  and  C_10
REMARK    7  A    between atoms: N_5  and  C_14
REMARK    8  A    between atoms: C_6  and  C_7
REMARK    9  A    between atoms: C_7  and  C_8
REMARK   10  A    between atoms: C_8  and  C_9
REMARK   11  A    between atoms: C_10  and  C_11
REMARK   12  A    between atoms: C_11  and  C_12
REMARK   13  A    between atoms: C_12  and  C_13
REMARK   14  A    between atoms: C_14  and  C_15
REMARK   15  A    between atoms: C_15  and  C_16
REMARK   16  A    between atoms: C_16  and  C_17
REMARK                            x       y       z     vdW  Elec       q    Type
REMARK                         _______ _______ _______ _____ _____    ______ ____
ROOT
ATOM      1  N   UNL     1       4.742   4.204  18.532  0.00  0.00    +0.000 N 
ENDROOT
BRANCH   1   2
ATOM      2  C   UNL     1       4.373   2.947  19.427  0.00  0.00    +0.000 C 
BRANCH   2   3
ATOM      3  C   UNL     1       2.895   2.436  19.380  0.00  0.00    +0.000 C 
BRANCH   3   5
ATOM      4  C   UNL     1       1.255   2.922  21.121  0.00  0.00    +0.000 C 
ATOM      5  C   UNL     1       1.472   3.046  19.600  0.00  0.00    +0.000 C 
ENDBRANCH   3   5
ENDBRANCH   2   3
ENDBRANCH   1   2
BRANCH   1   6
ATOM      6  C   UNL     1       4.220   3.945  17.051  0.00  0.00    +0.000 C 
BRANCH   6   7
ATOM      7  C   UNL     1       5.312   3.694  16.011  0.00  0.00    +0.000 C 
BRANCH   7   8
ATOM      8  C   UNL     1       5.526   4.921  15.108  0.00  0.00    +0.000 C 
ATOM      9  C   UNL     1       6.915   4.916  14.483  0.00  0.00    +0.000 C 
ENDBRANCH   7   8
ENDBRANCH   6   7
ENDBRANCH   1   6
BRANCH   1  10
ATOM     10  C   UNL     1       4.198   5.553  19.098  0.00  0.00    +0.000 C 
BRANCH  10  11
ATOM     11  C   UNL     1       3.072   6.146  18.256  0.00  0.00    +0.000 C 
BRANCH  11  12
ATOM     12  C   UNL     1       3.480   7.468  17.672  0.00  0.00    +0.000 C 
ATOM     13  C   UNL     1       2.373   8.486  17.867  0.00  0.00    +0.000 C 
ENDBRANCH  11  12
ENDBRANCH  10  11
ENDBRANCH   1  10
BRANCH   1  14
ATOM     14  C   UNL     1       6.281   4.393  18.491  0.00  0.00    +0.000 C 
BRANCH  14  15
ATOM     15  C   UNL     1       6.694   5.616  19.100  0.00  0.00    +0.000 C 
BRANCH  15  16
ATOM     16  C   UNL     1       7.882   6.537  18.617  0.00  0.00    +0.000 C 
ATOM     17  C   UNL     1       7.513   7.458  17.480  0.00  0.00    +0.000 C 
ENDBRANCH  15  16
ENDBRANCH  14  15
ENDBRANCH   1  14
TORSDOF 12
ENDMDL
MODEL 4
REMARK VINA RESULT:      -5.2      1.312      4.208
REMARK  Name = 
REMARK  16 active torsions:
REMARK  status: ('A' for Active; 'I' for Inactive)
REMARK    1  A    between atoms: C_1  and  C_2
REMARK    2  A    between atoms: C_2  and  C_3
REMARK    3  A    between atoms: C_3  and  C_4
REMARK    4  A    between atoms: C_4  and  N_5
REMARK    5  A    between atoms: N_5  and  C_6
REMARK    6  A    between atoms: N_5  and  C_10
REMARK    7  A    between atoms: N_5  and  C_14
REMARK    8  A    between atoms: C_6  and  C_7
REMARK    9  A    between atoms: C_7  and  C_8
REMARK   10  A    between atoms: C_8  and  C_9
REMARK   11  A    between atoms: C_10  and  C_11
REMARK   12  A    between atoms: C_11  and  C_12
REMARK   13  A    between atoms: C_12  and  C_13
REMARK   14  A    between atoms: C_14  and  C_15
REMARK   15  A    between atoms: C_15  and  C_16
REMARK   16  A    between atoms: C_16  and  C_17
REMARK                            x       y       z     vdW  Elec       q    Type
REMARK                         _______ _______ _______ _____ _____    ______ ____
ROOT
ATOM      1  N   UNL     1       5.127   4.587  17.057  0.00  0.00    +0.000 N 
ENDROOT
BRANCH   1   2
ATOM      2  C   UNL     1       4.661   6.030  16.593  0.00  0.00    +0.000 C 
BRANCH   2   3
ATOM      3  C   UNL     1       3.973   6.945  17.660  0.00  0.00    +0.000 C 
BRANCH   3   5
ATOM      4  C   UNL     1       2.227   8.646  17.775  0.00  0.00    +0.000 C 
ATOM      5  C   UNL     1       2.520   7.189  18.184  0.00  0.00    +0.000 C 
ENDBRANCH   3   5
ENDBRANCH   2   3
ENDBRANCH   1   2
BRANCH   1   6
ATOM      6  C   UNL     1       5.846   3.866  15.833  0.00  0.00    +0.000 C 
BRANCH   6   7
ATOM      7  C   UNL     1       5.473   4.404  14.451  0.00  0.00    +0.000 C 
BRANCH   7   8
ATOM      8  C   UNL     1       6.417   3.868  13.361  0.00  0.00    +0.000 C 
ATOM      9  C   UNL     1       5.640   3.261  12.201  0.00  0.00    +0.000 C 
ENDBRANCH   7   8
ENDBRANCH   6   7
ENDBRANCH   1   6
BRANCH   1  10
ATOM     10  C   UNL     1       6.043   4.605  18.321  0.00  0.00    +0.000 C 
BRANCH  10  11
ATOM     11  C   UNL     1       7.479   5.022  18.015  0.00  0.00    +0.000 C 
BRANCH  11  12
ATOM     12  C   UNL     1       7.826   6.301  18.721  0.00  0.00    +0.000 C 
ATOM     13  C   UNL     1       7.732   7.468  17.756  0.00  0.00    +0.000 C 
ENDBRANCH  11  12
ENDBRANCH  10  11
ENDBRANCH   1  10
BRANCH   1  14
ATOM     14  C   UNL     1       3.898   3.742  17.481  0.00  0.00    +0.000 C 
BRANCH  14  15
ATOM     15  C   UNL     1       3.895   3.451  18.878  0.00  0.00    +0.000 C 
BRANCH  15  16
ATOM     16  C   UNL     1       2.784   3.887  19.913  0.00  0.00    +0.000 C 
ATOM     17  C   UNL     1       1.375   3.636  19.433  0.00  0.00    +0.000 C 
ENDBRANCH  15  16
ENDBRANCH  14  15
ENDBRANCH   1  14
TORSDOF 12
ENDMDL
MODEL 5
REMARK VINA RESULT:      -5.2      0.564      4.247
REMARK  Name = 
REMARK  16 active torsions:
REMARK  status: ('A' for Active; 'I' for Inactive)
REMARK    1  A    between atoms: C_1  and  C_2
REMARK    2  A    between atoms: C_2  and  C_3
REMARK    3  A    between atoms: C_3  and  C_4
REMARK    4  A    between atoms: C_4  and  N_5
REMARK    5  A    between atoms: N_5  and  C_6
REMARK    6  A    between atoms: N_5  and  C_10
REMARK    7  A    between atoms: N_5  and  C_14
REMARK    8  A    between atoms: C_6  and  C_7
REMARK    9  A    between atoms: C_7  and  C_8
REMARK   10  A    between atoms: C_8  and  C_9
REMARK   11  A    between atoms: C_10  and  C_11
REMARK   12  A    between atoms: C_11  and  C_12
REMARK   13  A    between atoms: C_12  and  C_13
REMARK   14  A    between atoms: C_14  and  C_15
REMARK   15  A    between atoms: C_15  and  C_16
REMARK   16  A    between atoms: C_16  and  C_17
REMARK                            x       y       z     vdW  Elec       q    Type
REMARK                         _______ _______ _______ _____ _____    ______ ____
ROOT
ATOM      1  N   UNL     1       4.473   4.371  18.497  0.00  0.00    +0.000 N 
ENDROOT
BRANCH   1   2
ATOM      2  C   UNL     1       3.857   3.145  19.292  0.00  0.00    +0.000 C 
BRANCH   2   3
ATOM      3  C   UNL     1       2.527   2.526  18.748  0.00  0.00    +0.000 C 
BRANCH   3   5
ATOM      4  C   UNL     1       0.935   3.750  20.135  0.00  0.00    +0.000 C 
ATOM      5  C   UNL     1       0.995   2.760  18.955  0.00  0.00    +0.000 C 
ENDBRANCH   3   5
ENDBRANCH   2   3
ENDBRANCH   1   2
BRANCH   1   6
ATOM      6  C   UNL     1       6.057   4.337  18.653  0.00  0.00    +0.000 C 
BRANCH   6   7
ATOM      7  C   UNL     1       6.669   5.557  19.343  0.00  0.00    +0.000 C 
BRANCH   7   8
ATOM      8  C   UNL     1       7.823   6.153  18.518  0.00  0.00    +0.000 C 
ATOM      9  C   UNL     1       7.322   7.212  17.545  0.00  0.00    +0.000 C 
ENDBRANCH   7   8
ENDBRANCH   6   7
ENDBRANCH   1   6
BRANCH   1  10
ATOM     10  C   UNL     1       4.053   4.414  16.994  0.00  0.00    +0.000 C 
BRANCH  10  11
ATOM     11  C   UNL     1       5.162   3.961  16.048  0.00  0.00    +0.000 C 
BRANCH  11  12
ATOM     12  C   UNL     1       5.529   5.059  15.092  0.00  0.00    +0.000 C 
ATOM     13  C   UNL     1       6.942   4.849  14.580  0.00  0.00    +0.000 C 
ENDBRANCH  11  12
ENDBRANCH  10  11
ENDBRANCH   1  10
BRANCH   1  14
ATOM     14  C   UNL     1       3.944   5.705  19.085  0.00  0.00    +0.000 C 
BRANCH  14  15
ATOM     15  C   UNL     1       3.390   6.559  18.083  0.00  0.00    +0.000 C 
BRANCH  15  16
ATOM     16  C   UNL     1       2.089   7.441  18.233  0.00  0.00    +0.000 C 
ATOM     17  C   UNL     1       2.274   8.874  17.799  0.00  0.00    +0.000 C 
ENDBRANCH  15  16
ENDBRANCH  14  15
ENDBRANCH   1  14
TORSDOF 12
ENDMDL
MODEL 6
REMARK VINA RESULT:      -5.2      0.915      4.679
REMARK  Name = 
REMARK  16 active torsions:
REMARK  status: ('A' for Active; 'I' for Inactive)
REMARK    1  A    between atoms: C_1  and  C_2
REMARK    2  A    between atoms: C_2  and  C_3
REMARK    3  A    between atoms: C_3  and  C_4
REMARK    4  A    between atoms: C_4  and  N_5
REMARK    5  A    between atoms: N_5  and  C_6
REMARK    6  A    between atoms: N_5  and  C_10
REMARK    7  A    between atoms: N_5  and  C_14
REMARK    8  A    between atoms: C_6  and  C_7
REMARK    9  A    between atoms: C_7  and  C_8
REMARK   10  A    between atoms: C_8  and  C_9
REMARK   11  A    between atoms: C_10  and  C_11
REMARK   12  A    between atoms: C_11  and  C_12
REMARK   13  A    between atoms: C_12  and  C_13
REMARK   14  A    between atoms: C_14  and  C_15
REMARK   15  A    between atoms: C_15  and  C_16
REMARK   16  A    between atoms: C_16  and  C_17
REMARK                            x       y       z     vdW  Elec       q    Type
REMARK                         _______ _______ _______ _____ _____    ______ ____
ROOT
ATOM      1  N   UNL     1       3.988   4.810  18.152  0.00  0.00    +0.000 N 
ENDROOT
BRANCH   1   2
ATOM      2  C   UNL     1       3.829   3.834  19.393  0.00  0.00    +0.000 C 
BRANCH   2   3
ATOM      3  C   UNL     1       2.505   3.008  19.497  0.00  0.00    +0.000 C 
BRANCH   3   5
ATOM      4  C   UNL     1       1.551   2.672  21.719  0.00  0.00    +0.000 C 
ATOM      5  C   UNL     1       1.161   3.106  20.292  0.00  0.00    +0.000 C 
ENDBRANCH   3   5
ENDBRANCH   2   3
ENDBRANCH   1   2
BRANCH   1   6
ATOM      6  C   UNL     1       5.140   5.861  18.475  0.00  0.00    +0.000 C 
BRANCH   6   7
ATOM      7  C   UNL     1       6.318   5.309  19.278  0.00  0.00    +0.000 C 
BRANCH   7   8
ATOM      8  C   UNL     1       7.666   5.738  18.673  0.00  0.00    +0.000 C 
ATOM      9  C   UNL     1       7.513   6.971  17.793  0.00  0.00    +0.000 C 
ENDBRANCH   7   8
ENDBRANCH   6   7
ENDBRANCH   1   6
BRANCH   1  10
ATOM     10  C   UNL     1       4.259   4.067  16.807  0.00  0.00    +0.000 C 
BRANCH  10  11
ATOM     11  C   UNL     1       5.116   4.875  15.837  0.00  0.00    +0.000 C 
BRANCH  11  12
ATOM     12  C   UNL     1       6.251   4.046  15.307  0.00  0.00    +0.000 C 
ATOM     13  C   UNL     1       6.149   3.933  13.797  0.00  0.00    +0.000 C 
ENDBRANCH  11  12
ENDBRANCH  10  11
ENDBRANCH   1  10
BRANCH   1  14
ATOM     14  C   UNL     1       2.665   5.581  17.910  0.00  0.00    +0.000 C 
BRANCH  14  15
ATOM     15  C   UNL     1       2.691   6.894  18.471  0.00  0.00    +0.000 C 
BRANCH  15  16
ATOM     16  C   UNL     1       2.584   8.248  17.666  0.00  0.00    +0.000 C 
ATOM     17  C   UNL     1       1.492   9.164  18.161  0.00  0.00    +0.000 C 
ENDBRANCH  15  16
ENDBRANCH  14  15
ENDBRANCH   1  14
TORSDOF 12
ENDMDL
MODEL 7
REMARK VINA RESULT:      -5.2      1.254      4.763
REMARK  Name = 
REMARK  16 active torsions:
REMARK  status: ('A' for Active; 'I' for Inactive)
REMARK    1  A    between atoms: C_1  and  C_2
REMARK    2  A    between atoms: C_2  and  C_3
REMARK    3  A    between atoms: C_3  and  C_4
REMARK    4  A    between atoms: C_4  and  N_5
REMARK    5  A    between atoms: N_5  and  C_6
REMARK    6  A    between atoms: N_5  and  C_10
REMARK    7  A    between atoms: N_5  and  C_14
REMARK    8  A    between atoms: C_6  and  C_7
REMARK    9  A    between atoms: C_7  and  C_8
REMARK   10  A    between atoms: C_8  and  C_9
REMARK   11  A    between atoms: C_10  and  C_11
REMARK   12  A    between atoms: C_11  and  C_12
REMARK   13  A    between atoms: C_12  and  C_13
REMARK   14  A    between atoms: C_14  and  C_15
REMARK   15  A    between atoms: C_15  and  C_16
REMARK   16  A    between atoms: C_16  and  C_17
REMARK                            x       y       z     vdW  Elec       q    Type
REMARK                         _______ _______ _______ _____ _____    ______ ____
ROOT
ATOM      1  N   UNL     1       5.078   4.922  17.353  0.00  0.00    +0.000 N 
ENDROOT
BRANCH   1   2
ATOM      2  C   UNL     1       4.209   3.606  17.179  0.00  0.00    +0.000 C 
BRANCH   2   3
ATOM      3  C   UNL     1       2.997   3.408  18.148  0.00  0.00    +0.000 C 
BRANCH   3   5
ATOM      4  C   UNL     1       0.960   3.123  19.462  0.00  0.00    +0.000 C 
ATOM      5  C   UNL     1       1.464   3.716  18.131  0.00  0.00    +0.000 C 
ENDBRANCH   3   5
ENDBRANCH   2   3
ENDBRANCH   1   2
BRANCH   1   6
ATOM      6  C   UNL     1       5.350   5.547  15.914  0.00  0.00    +0.000 C 
BRANCH   6   7
ATOM      7  C   UNL     1       5.153   4.586  14.740  0.00  0.00    +0.000 C 
BRANCH   7   8
ATOM      8  C   UNL     1       6.491   4.229  14.071  0.00  0.00    +0.000 C 
ATOM      9  C   UNL     1       6.277   3.573  12.714  0.00  0.00    +0.000 C 
ENDBRANCH   7   8
ENDBRANCH   6   7
ENDBRANCH   1   6
BRANCH   1  10
ATOM     10  C   UNL     1       4.436   5.970  18.314  0.00  0.00    +0.000 C 
BRANCH  10  11
ATOM     11  C   UNL     1       3.855   7.178  17.583  0.00  0.00    +0.000 C 
BRANCH  11  12
ATOM     12  C   UNL     1       2.422   7.399  17.972  0.00  0.00    +0.000 C 
ATOM     13  C   UNL     1       2.273   7.308  19.479  0.00  0.00    +0.000 C 
ENDBRANCH  11  12
ENDBRANCH  10  11
ENDBRANCH   1  10
BRANCH   1  14
ATOM     14  C   UNL     1       6.440   4.577  18.010  0.00  0.00    +0.000 C 
BRANCH  14  15
ATOM     15  C   UNL     1       7.475   5.479  17.621  0.00  0.00    +0.000 C 
BRANCH  15  16
ATOM     16  C   UNL     1       7.895   6.794  18.387  0.00  0.00    +0.000 C 
ATOM     17  C   UNL     1       7.696   8.056  17.582  0.00  0.00    +0.000 C 
ENDBRANCH  15  16
ENDBRANCH  14  15
ENDBRANCH   1  14
TORSDOF 12
ENDMDL
MODEL 8
REMARK VINA RESULT:      -5.2      1.097      4.315
REMARK  Name = 
REMARK  16 active torsions:
REMARK  status: ('A' for Active; 'I' for Inactive)
REMARK    1  A    between atoms: C_1  and  C_2
REMARK    2  A    between atoms: C_2  and  C_3
REMARK    3  A    between atoms: C_3  and  C_4
REMARK    4  A    between atoms: C_4  and  N_5
REMARK    5  A    between atoms: N_5  and  C_6
REMARK    6  A    between atoms: N_5  and  C_10
REMARK    7  A    between atoms: N_5  and  C_14
REMARK    8  A    between atoms: C_6  and  C_7
REMARK    9  A    between atoms: C_7  and  C_8
REMARK   10  A    between atoms: C_8  and  C_9
REMARK   11  A    between atoms: C_10  and  C_11
REMARK   12  A    between atoms: C_11  and  C_12
REMARK   13  A    between atoms: C_12  and  C_13
REMARK   14  A    between atoms: C_14  and  C_15
REMARK   15  A    between atoms: C_15  and  C_16
REMARK   16  A    between atoms: C_16  and  C_17
REMARK                            x       y       z     vdW  Elec       q    Type
REMARK                         _______ _______ _______ _____ _____    ______ ____
ROOT
ATOM      1  N   UNL     1       3.851   4.915  18.133  0.00  0.00    +0.000 N 
ENDROOT
BRANCH   1   2
ATOM      2  C   UNL     1       4.909   4.666  19.287  0.00  0.00    +0.000 C 
BRANCH   2   3
ATOM      3  C   UNL     1       6.261   5.450  19.209  0.00  0.00    +0.000 C 
BRANCH   3   5
ATOM      4  C   UNL     1       7.516   6.919  17.719  0.00  0.00    +0.000 C 
ATOM      5  C   UNL     1       7.508   5.478  18.266  0.00  0.00    +0.000 C 
ENDBRANCH   3   5
ENDBRANCH   2   3
ENDBRANCH   1   2
BRANCH   1   6
ATOM      6  C   UNL     1       4.206   3.968  16.903  0.00  0.00    +0.000 C 
BRANCH   6   7
ATOM      7  C   UNL     1       4.894   4.662  15.726  0.00  0.00    +0.000 C 
BRANCH   7   8
ATOM      8  C   UNL     1       6.106   3.858  15.227  0.00  0.00    +0.000 C 
ATOM      9  C   UNL     1       6.253   3.955  13.714  0.00  0.00    +0.000 C 
ENDBRANCH   7   8
ENDBRANCH   6   7
ENDBRANCH   1   6
BRANCH   1  10
ATOM     10  C   UNL     1       2.372   4.718  18.591  0.00  0.00    +0.000 C 
BRANCH  10  11
ATOM     11  C   UNL     1       2.252   4.147  20.001  0.00  0.00    +0.000 C 
BRANCH  11  12
ATOM     12  C   UNL     1       1.055   3.246  20.113  0.00  0.00    +0.000 C 
ATOM     13  C   UNL     1       0.872   2.465  18.825  0.00  0.00    +0.000 C 
ENDBRANCH  11  12
ENDBRANCH  10  11
ENDBRANCH   1  10
BRANCH   1  14
ATOM     14  C   UNL     1       3.917   6.390  17.660  0.00  0.00    +0.000 C 
BRANCH  14  15
ATOM     15  C   UNL     1       2.895   7.196  18.248  0.00  0.00    +0.000 C 
BRANCH  15  16
ATOM     16  C   UNL     1       2.392   8.593  17.711  0.00  0.00    +0.000 C 
ATOM     17  C   UNL     1       1.379   9.259  18.610  0.00  0.00    +0.000 C 
ENDBRANCH  15  16
ENDBRANCH  14  15
ENDBRANCH   1  14
TORSDOF 12
ENDMDL
MODEL 9
REMARK VINA RESULT:      -5.1      1.651      5.514
REMARK  Name = 
REMARK  16 active torsions:
REMARK  status: ('A' for Active; 'I' for Inactive)
REMARK    1  A    between atoms: C_1  and  C_2
REMARK    2  A    between atoms: C_2  and  C_3
REMARK    3  A    between atoms: C_3  and  C_4
REMARK    4  A    between atoms: C_4  and  N_5
REMARK    5  A    between atoms: N_5  and  C_6
REMARK    6  A    between atoms: N_5  and  C_10
REMARK    7  A    between atoms: N_5  and  C_14
REMARK    8  A    between atoms: C_6  and  C_7
REMARK    9  A    between atoms: C_7  and  C_8
REMARK   10  A    between atoms: C_8  and  C_9
REMARK   11  A    between atoms: C_10  and  C_11
REMARK   12  A    between atoms: C_11  and  C_12
REMARK   13  A    between atoms: C_12  and  C_13
REMARK   14  A    between atoms: C_14  and  C_15
REMARK   15  A    between atoms: C_15  and  C_16
REMARK   16  A    between atoms: C_16  and  C_17
REMARK                            x       y       z     vdW  Elec       q    Type
REMARK                         _______ _______ _______ _____ _____    ______ ____
ROOT
ATOM      1  N   UNL     1       3.582   5.597  18.429  0.00  0.00    +0.000 N 
ENDROOT
BRANCH   1   2
ATOM      2  C   UNL     1       3.689   6.973  17.647  0.00  0.00    +0.000 C 
BRANCH   2   3
ATOM      3  C   UNL     1       2.473   7.953  17.738  0.00  0.00    +0.000 C 
BRANCH   3   5
ATOM      4  C   UNL     1       0.730   9.634  18.046  0.00  0.00    +0.000 C 
ATOM      5  C   UNL     1       2.261   9.490  17.935  0.00  0.00    +0.000 C 
ENDBRANCH   3   5
ENDBRANCH   2   3
ENDBRANCH   1   2
BRANCH   1   6
ATOM      6  C   UNL     1       2.225   5.589  19.262  0.00  0.00    +0.000 C 
BRANCH   6   7
ATOM      7  C   UNL     1       2.342   5.054  20.690  0.00  0.00    +0.000 C 
BRANCH   7   8
ATOM      8  C   UNL     1       1.431   3.834  20.912  0.00  0.00    +0.000 C 
ATOM      9  C   UNL     1       2.187   2.687  21.569  0.00  0.00    +0.000 C 
ENDBRANCH   7   8
ENDBRANCH   6   7
ENDBRANCH   1   6
BRANCH   1  10
ATOM     10  C   UNL     1       3.688   4.345  17.504  0.00  0.00    +0.000 C 
BRANCH  10  11
ATOM     11  C   UNL     1       2.344   3.664  17.262  0.00  0.00    +0.000 C 
BRANCH  11  12
ATOM     12  C   UNL     1       2.359   2.253  17.778  0.00  0.00    +0.000 C 
ATOM     13  C   UNL     1       3.752   1.892  18.259  0.00  0.00    +0.000 C 
ENDBRANCH  11  12
ENDBRANCH  10  11
ENDBRANCH   1  10
BRANCH   1  14
ATOM     14  C   UNL     1       4.771   5.453  19.415  0.00  0.00    +0.000 C 
BRANCH  14  15
ATOM     15  C   UNL     1       5.953   4.974  18.773  0.00  0.00    +0.000 C 
BRANCH  15  16
ATOM     16  C   UNL     1       7.353   5.704  18.744  0.00  0.00    +0.000 C 
ATOM     17  C   UNL     1       7.426   6.837  17.749  0.00  0.00    +0.000 C 
ENDBRANCH  15  16
ENDBRANCH  14  15
ENDBRANCH   1  14
TORSDOF 12
ENDMDL
