MODEL 1
REMARK VINA RESULT:      -6.7      0.000      0.000
REMARK  Name = 
REMARK  12 active torsions:
REMARK  status: ('A' for Active; 'I' for Inactive)
REMARK    1  A    between atoms: C_1  and  O_2
REMARK    2  A    between atoms: O_2  and  C_3
REMARK    3  A    between atoms: C_6  and  N_7
REMARK    4  A    between atoms: N_7  and  S_8
REMARK    5  A    between atoms: S_8  and  C_11
REMARK    6  A    between atoms: C_13  and  C_14
REMARK    7  A    between atoms: C_17  and  C_18
REMARK    8  A    between atoms: C_18  and  C_19
REMARK    9  A    between atoms: C_18  and  C_20
REMARK   10  A    between atoms: C_23  and  C_24
REMARK   11  A    between atoms: C_26  and  O_27
REMARK   12  A    between atoms: O_27  and  C_28
REMARK                            x       y       z     vdW  Elec       q    Type
REMARK                         _______ _______ _______ _____ _____    ______ ____
ROOT
ATOM      1  S   UNL     1       6.136   5.088  17.190  0.00  0.00    +0.000 S 
ATOM      2  O   UNL     1       5.782   3.699  16.958  0.00  0.00    +0.000 OA
ATOM      3  O   UNL     1       7.342   5.423  17.917  0.00  0.00    +0.000 OA
ENDROOT
BRANCH   1   4
ATOM      4  C   UNL     1       4.797   5.910  17.916  0.00  0.00    +0.000 A 
ATOM      5  C   UNL     1       4.300   7.183  17.390  0.00  0.00    +0.000 A 
ATOM      6  C   UNL     1       3.136   7.511  17.984  0.00  0.00    +0.000 A 
ATOM      7  C   UNL     1       2.247   8.667  17.718  0.00  0.00    +0.000 C 
ATOM      8  C   UNL     1       2.839   6.387  18.857  0.00  0.00    +0.000 A 
ATOM      9  C   UNL     1       1.583   6.064  19.237  0.00  0.00    +0.000 A 
ATOM     10  C   UNL     1       1.286   4.735  19.756  0.00  0.00    +0.000 A 
ATOM     11  C   UNL     1       1.896   4.572  20.956  0.00  0.00    +0.000 A 
ATOM     12  C   UNL     1       3.272   4.067  20.911  0.00  0.00    +0.000 A 
ATOM     13  C   UNL     1       4.171   4.343  19.926  0.00  0.00    +0.000 A 
ATOM     14  C   UNL     1       5.185   3.252  19.705  0.00  0.00    +0.000 C 
ATOM     15  C   UNL     1       4.025   5.473  18.955  0.00  0.00    +0.000 A 
BRANCH  10  16
ATOM     16  C   UNL     1       1.452   3.620  18.652  0.00  0.00    +0.000 C 
ATOM     17  C   UNL     1       0.668   2.339  18.951  0.00  0.00    +0.000 C 
ATOM     18  C   UNL     1       1.347   4.039  17.177  0.00  0.00    +0.000 C 
ENDBRANCH  10  16
ENDBRANCH   1   4
BRANCH   1  19
ATOM     19  N   UNL     1       6.400   5.812  15.642  0.00  0.00    +0.000 N 
ATOM     20  H   UNL     1       7.374   6.129  15.678  0.00  0.00    +0.000 HD
BRANCH  19  24
ATOM     21  C   UNL     1       5.881   3.272  12.278  0.00  0.00    +0.000 A 
ATOM     22  C   UNL     1       4.850   3.436  13.204  0.00  0.00    +0.000 A 
ATOM     23  C   UNL     1       5.021   4.260  14.322  0.00  0.00    +0.000 A 
ATOM     24  C   UNL     1       6.217   4.956  14.492  0.00  0.00    +0.000 A 
ATOM     25  C   UNL     1       7.257   4.811  13.552  0.00  0.00    +0.000 A 
ATOM     26  C   UNL     1       7.077   3.972  12.443  0.00  0.00    +0.000 A 
BRANCH  21  28
ATOM     27  C   UNL     1       6.371   1.269  11.123  0.00  0.00    +0.000 C 
ATOM     28  O   UNL     1       5.599   2.466  11.207  0.00  0.00    +0.000 OA
ENDBRANCH  21  28
BRANCH  25  29
ATOM     29  O   UNL     1       8.378   5.580  13.766  0.00  0.00    +0.000 OA
ATOM     30  C   UNL     1       8.973   6.158  12.608  0.00  0.00    +0.000 C 
ENDBRANCH  25  29
ENDBRANCH  19  24
ENDBRANCH   1  19
TORSDOF 6
ENDMDL
MODEL 2
REMARK VINA RESULT:      -6.7      4.388      7.194
REMARK  Name = 
REMARK  12 active torsions:
REMARK  status: ('A' for Active; 'I' for Inactive)
REMARK    1  A    between atoms: C_1  and  O_2
REMARK    2  A    between atoms: O_2  and  C_3
REMARK    3  A    between atoms: C_6  and  N_7
REMARK    4  A    between atoms: N_7  and  S_8
REMARK    5  A    between atoms: S_8  and  C_11
REMARK    6  A    between atoms: C_13  and  C_14
REMARK    7  A    between atoms: C_17  and  C_18
REMARK    8  A    between atoms: C_18  and  C_19
REMARK    9  A    between atoms: C_18  and  C_20
REMARK   10  A    between atoms: C_23  and  C_24
REMARK   11  A    between atoms: C_26  and  O_27
REMARK   12  A    between atoms: O_27  and  C_28
REMARK                            x       y       z     vdW  Elec       q    Type
REMARK                         _______ _______ _______ _____ _____    ______ ____
ROOT
ATOM      1  S   UNL     1       1.704   8.533  18.608  0.00  0.00    +0.000 S 
ATOM      2  O   UNL     1       2.504   9.633  18.099  0.00  0.00    +0.000 OA
ATOM      3  O   UNL     1       0.869   7.761  17.711  0.00  0.00    +0.000 OA
ENDROOT
BRANCH   1   4
ATOM      4  C   UNL     1       0.739   9.088  19.932  0.00  0.00    +0.000 A 
ATOM      5  C   UNL     1       1.041   8.711  21.315  0.00  0.00    +0.000 A 
ATOM      6  C   UNL     1       0.288   9.430  22.170  0.00  0.00    +0.000 A 
ATOM      7  C   UNL     1       0.308   9.433  23.652  0.00  0.00    +0.000 C 
ATOM      8  C   UNL     1      -0.461  10.343  21.323  0.00  0.00    +0.000 A 
ATOM      9  C   UNL     1      -0.930  11.533  21.760  0.00  0.00    +0.000 A 
ATOM     10  C   UNL     1      -1.305  12.573  20.811  0.00  0.00    +0.000 A 
ATOM     11  C   UNL     1      -2.402  12.179  20.118  0.00  0.00    +0.000 A 
ATOM     12  C   UNL     1      -2.145  11.396  18.905  0.00  0.00    +0.000 A 
ATOM     13  C   UNL     1      -1.112  10.523  18.746  0.00  0.00    +0.000 A 
ATOM     14  C   UNL     1      -0.645  10.385  17.321  0.00  0.00    +0.000 C 
ATOM     15  C   UNL     1      -0.314   9.958  19.880  0.00  0.00    +0.000 A 
BRANCH  10  16
ATOM     16  C   UNL     1      -0.057  13.130  20.023  0.00  0.00    +0.000 C 
ATOM     17  C   UNL     1      -0.360  14.385  19.200  0.00  0.00    +0.000 C 
ATOM     18  C   UNL     1       1.285  13.228  20.766  0.00  0.00    +0.000 C 
ENDBRANCH  10  16
ENDBRANCH   1   4
BRANCH   1  19
ATOM     19  N   UNL     1       2.799   7.352  19.234  0.00  0.00    +0.000 N 
ATOM     20  H   UNL     1       2.223   6.787  19.867  0.00  0.00    +0.000 HD
BRANCH  19  24
ATOM     21  C   UNL     1       4.642   4.816  16.370  0.00  0.00    +0.000 A 
ATOM     22  C   UNL     1       5.020   6.156  16.473  0.00  0.00    +0.000 A 
ATOM     23  C   UNL     1       4.406   6.999  17.406  0.00  0.00    +0.000 A 
ATOM     24  C   UNL     1       3.436   6.487  18.267  0.00  0.00    +0.000 A 
ATOM     25  C   UNL     1       3.061   5.132  18.182  0.00  0.00    +0.000 A 
ATOM     26  C   UNL     1       3.676   4.300  17.234  0.00  0.00    +0.000 A 
BRANCH  21  28
ATOM     27  C   UNL     1       6.572   4.622  15.019  0.00  0.00    +0.000 C 
ATOM     28  O   UNL     1       5.327   4.072  15.444  0.00  0.00    +0.000 OA
ENDBRANCH  21  28
BRANCH  25  29
ATOM     29  O   UNL     1       2.141   4.699  19.109  0.00  0.00    +0.000 OA
ATOM     30  C   UNL     1       1.381   3.548  18.750  0.00  0.00    +0.000 C 
ENDBRANCH  25  29
ENDBRANCH  19  24
ENDBRANCH   1  19
TORSDOF 6
ENDMDL
MODEL 3
REMARK VINA RESULT:      -6.6      5.545      8.261
REMARK  Name = 
REMARK  12 active torsions:
REMARK  status: ('A' for Active; 'I' for Inactive)
REMARK    1  A    between atoms: C_1  and  O_2
REMARK    2  A    between atoms: O_2  and  C_3
REMARK    3  A    between atoms: C_6  and  N_7
REMARK    4  A    between atoms: N_7  and  S_8
REMARK    5  A    between atoms: S_8  and  C_11
REMARK    6  A    between atoms: C_13  and  C_14
REMARK    7  A    between atoms: C_17  and  C_18
REMARK    8  A    between atoms: C_18  and  C_19
REMARK    9  A    between atoms: C_18  and  C_20
REMARK   10  A    between atoms: C_23  and  C_24
REMARK   11  A    between atoms: C_26  and  O_27
REMARK   12  A    between atoms: O_27  and  C_28
REMARK                            x       y       z     vdW  Elec       q    Type
REMARK                         _______ _______ _______ _____ _____    ______ ____
ROOT
ATOM      1  S   UNL     1       0.830   9.179  20.839  0.00  0.00    +0.000 S 
ATOM      2  O   UNL     1      -0.516   8.636  20.786  0.00  0.00    +0.000 OA
ATOM      3  O   UNL     1       1.677   8.920  21.985  0.00  0.00    +0.000 OA
ENDROOT
BRANCH   1   4
ATOM      4  C   UNL     1       0.774  10.885  20.558  0.00  0.00    +0.000 A 
ATOM      5  C   UNL     1       1.482  11.503  19.434  0.00  0.00    +0.000 A 
ATOM      6  C   UNL     1       1.116  12.793  19.305  0.00  0.00    +0.000 A 
ATOM      7  C   UNL     1       1.521  13.777  18.272  0.00  0.00    +0.000 C 
ATOM      8  C   UNL     1       0.095  12.991  20.320  0.00  0.00    +0.000 A 
ATOM      9  C   UNL     1      -0.867  13.934  20.220  0.00  0.00    +0.000 A 
ATOM     10  C   UNL     1      -2.081  13.840  21.022  0.00  0.00    +0.000 A 
ATOM     11  C   UNL     1      -1.773  14.020  22.331  0.00  0.00    +0.000 A 
ATOM     12  C   UNL     1      -1.389  12.812  23.069  0.00  0.00    +0.000 A 
ATOM     13  C   UNL     1      -0.715  11.755  22.537  0.00  0.00    +0.000 A 
ATOM     14  C   UNL     1      -1.029  10.438  23.197  0.00  0.00    +0.000 C 
ATOM     15  C   UNL     1       0.047  11.813  21.250  0.00  0.00    +0.000 A 
BRANCH  10  16
ATOM     16  C   UNL     1      -2.970  12.605  20.605  0.00  0.00    +0.000 C 
ATOM     17  C   UNL     1      -4.414  12.691  21.107  0.00  0.00    +0.000 C 
ATOM     18  C   UNL     1      -2.884  12.108  19.153  0.00  0.00    +0.000 C 
ENDBRANCH  10  16
ENDBRANCH   1   4
BRANCH   1  19
ATOM     19  N   UNL     1       1.717   8.476  19.533  0.00  0.00    +0.000 N 
ATOM     20  H   UNL     1       2.550   9.066  19.450  0.00  0.00    +0.000 HD
BRANCH  19  24
ATOM     21  C   UNL     1       2.932   4.437  20.033  0.00  0.00    +0.000 A 
ATOM     22  C   UNL     1       1.950   4.986  20.860  0.00  0.00    +0.000 A 
ATOM     23  C   UNL     1       1.556   6.320  20.708  0.00  0.00    +0.000 A 
ATOM     24  C   UNL     1       2.120   7.097  19.697  0.00  0.00    +0.000 A 
ATOM     25  C   UNL     1       3.099   6.546  18.847  0.00  0.00    +0.000 A 
ATOM     26  C   UNL     1       3.493   5.211  19.017  0.00  0.00    +0.000 A 
BRANCH  21  28
ATOM     27  C   UNL     1       3.408   2.332  19.071  0.00  0.00    +0.000 C 
ATOM     28  O   UNL     1       3.221   3.115  20.248  0.00  0.00    +0.000 OA
ENDBRANCH  21  28
BRANCH  25  29
ATOM     29  O   UNL     1       3.557   7.365  17.841  0.00  0.00    +0.000 OA
ATOM     30  C   UNL     1       4.584   6.828  17.011  0.00  0.00    +0.000 C 
ENDBRANCH  25  29
ENDBRANCH  19  24
ENDBRANCH   1  19
TORSDOF 6
ENDMDL
MODEL 4
REMARK VINA RESULT:      -6.6      4.538      7.329
REMARK  Name = 
REMARK  12 active torsions:
REMARK  status: ('A' for Active; 'I' for Inactive)
REMARK    1  A    between atoms: C_1  and  O_2
REMARK    2  A    between atoms: O_2  and  C_3
REMARK    3  A    between atoms: C_6  and  N_7
REMARK    4  A    between atoms: N_7  and  S_8
REMARK    5  A    between atoms: S_8  and  C_11
REMARK    6  A    between atoms: C_13  and  C_14
REMARK    7  A    between atoms: C_17  and  C_18
REMARK    8  A    between atoms: C_18  and  C_19
REMARK    9  A    between atoms: C_18  and  C_20
REMARK   10  A    between atoms: C_23  and  C_24
REMARK   11  A    between atoms: C_26  and  O_27
REMARK   12  A    between atoms: O_27  and  C_28
REMARK                            x       y       z     vdW  Elec       q    Type
REMARK                         _______ _______ _______ _____ _____    ______ ____
ROOT
ATOM      1  S   UNL     1       1.624   8.832  18.413  0.00  0.00    +0.000 S 
ATOM      2  O   UNL     1       2.203  10.021  17.813  0.00  0.00    +0.000 OA
ATOM      3  O   UNL     1       0.846   7.913  17.608  0.00  0.00    +0.000 OA
ENDROOT
BRANCH   1   4
ATOM      4  C   UNL     1       0.697   9.282  19.803  0.00  0.00    +0.000 A 
ATOM      5  C   UNL     1       1.057   8.826  21.148  0.00  0.00    +0.000 A 
ATOM      6  C   UNL     1       0.322   9.473  22.073  0.00  0.00    +0.000 A 
ATOM      7  C   UNL     1       0.395   9.384  23.551  0.00  0.00    +0.000 C 
ATOM      8  C   UNL     1      -0.477  10.420  21.312  0.00  0.00    +0.000 A 
ATOM      9  C   UNL     1      -0.953  11.570  21.840  0.00  0.00    +0.000 A 
ATOM     10  C   UNL     1      -1.382  12.659  20.972  0.00  0.00    +0.000 A 
ATOM     11  C   UNL     1      -2.496  12.285  20.294  0.00  0.00    +0.000 A 
ATOM     12  C   UNL     1      -2.268  11.585  19.026  0.00  0.00    +0.000 A 
ATOM     13  C   UNL     1      -1.224  10.746  18.776  0.00  0.00    +0.000 A 
ATOM     14  C   UNL     1      -0.807  10.708  17.329  0.00  0.00    +0.000 C 
ATOM     15  C   UNL     1      -0.374  10.130  19.843  0.00  0.00    +0.000 A 
BRANCH  10  16
ATOM     16  C   UNL     1      -0.175  13.292  20.177  0.00  0.00    +0.000 C 
ATOM     17  C   UNL     1      -0.533  14.591  19.449  0.00  0.00    +0.000 C 
ATOM     18  C   UNL     1       1.191  13.369  20.875  0.00  0.00    +0.000 C 
ENDBRANCH  10  16
ENDBRANCH   1   4
BRANCH   1  19
ATOM     19  N   UNL     1       2.933   7.851  18.969  0.00  0.00    +0.000 N 
ATOM     20  H   UNL     1       2.917   7.965  19.987  0.00  0.00    +0.000 HD
BRANCH  19  24
ATOM     21  C   UNL     1       2.768   3.712  18.033  0.00  0.00    +0.000 A 
ATOM     22  C   UNL     1       1.984   4.234  19.063  0.00  0.00    +0.000 A 
ATOM     23  C   UNL     1       2.045   5.595  19.385  0.00  0.00    +0.000 A 
ATOM     24  C   UNL     1       2.866   6.444  18.644  0.00  0.00    +0.000 A 
ATOM     25  C   UNL     1       3.648   5.928  17.591  0.00  0.00    +0.000 A 
ATOM     26  C   UNL     1       3.586   4.561  17.287  0.00  0.00    +0.000 A 
BRANCH  21  28
ATOM     27  C   UNL     1       3.454   1.507  18.537  0.00  0.00    +0.000 C 
ATOM     28  O   UNL     1       2.610   2.374  17.782  0.00  0.00    +0.000 OA
ENDBRANCH  21  28
BRANCH  25  29
ATOM     29  O   UNL     1       4.381   6.847  16.877  0.00  0.00    +0.000 OA
ATOM     30  C   UNL     1       5.249   6.318  15.878  0.00  0.00    +0.000 C 
ENDBRANCH  25  29
ENDBRANCH  19  24
ENDBRANCH   1  19
TORSDOF 6
ENDMDL
MODEL 5
REMARK VINA RESULT:      -6.3      9.605     12.465
REMARK  Name = 
REMARK  12 active torsions:
REMARK  status: ('A' for Active; 'I' for Inactive)
REMARK    1  A    between atoms: C_1  and  O_2
REMARK    2  A    between atoms: O_2  and  C_3
REMARK    3  A    between atoms: C_6  and  N_7
REMARK    4  A    between atoms: N_7  and  S_8
REMARK    5  A    between atoms: S_8  and  C_11
REMARK    6  A    between atoms: C_13  and  C_14
REMARK    7  A    between atoms: C_17  and  C_18
REMARK    8  A    between atoms: C_18  and  C_19
REMARK    9  A    between atoms: C_18  and  C_20
REMARK   10  A    between atoms: C_23  and  C_24
REMARK   11  A    between atoms: C_26  and  O_27
REMARK   12  A    between atoms: O_27  and  C_28
REMARK                            x       y       z     vdW  Elec       q    Type
REMARK                         _______ _______ _______ _____ _____    ______ ____
ROOT
ATOM      1  S   UNL     1      -1.717  13.317  22.919  0.00  0.00    +0.000 S 
ATOM      2  O   UNL     1      -2.267  11.975  22.998  0.00  0.00    +0.000 OA
ATOM      3  O   UNL     1      -1.021  13.889  24.052  0.00  0.00    +0.000 OA
ENDROOT
BRANCH   1   4
ATOM      4  C   UNL     1      -2.952  14.416  22.407  0.00  0.00    +0.000 A 
ATOM      5  C   UNL     1      -2.680  15.482  21.441  0.00  0.00    +0.000 A 
ATOM      6  C   UNL     1      -3.832  16.060  21.047  0.00  0.00    +0.000 A 
ATOM      7  C   UNL     1      -4.042  17.125  20.038  0.00  0.00    +0.000 C 
ATOM      8  C   UNL     1      -4.874  15.301  21.718  0.00  0.00    +0.000 A 
ATOM      9  C   UNL     1      -6.134  15.202  21.241  0.00  0.00    +0.000 A 
ATOM     10  C   UNL     1      -7.015  14.133  21.696  0.00  0.00    +0.000 A 
ATOM     11  C   UNL     1      -7.322  14.326  23.003  0.00  0.00    +0.000 A 
ATOM     12  C   UNL     1      -6.387  13.743  23.972  0.00  0.00    +0.000 A 
ATOM     13  C   UNL     1      -5.043  13.627  23.784  0.00  0.00    +0.000 A 
ATOM     14  C   UNL     1      -4.427  12.458  24.507  0.00  0.00    +0.000 C 
ATOM     15  C   UNL     1      -4.275  14.390  22.751  0.00  0.00    +0.000 A 
BRANCH  10  16
ATOM     16  C   UNL     1      -6.514  12.714  21.226  0.00  0.00    +0.000 C 
ATOM     17  C   UNL     1      -7.573  11.615  21.353  0.00  0.00    +0.000 C 
ATOM     18  C   UNL     1      -5.732  12.622  19.906  0.00  0.00    +0.000 C 
ENDBRANCH  10  16
ENDBRANCH   1   4
BRANCH   1  19
ATOM     19  N   UNL     1      -0.507  13.301  21.685  0.00  0.00    +0.000 N 
ATOM     20  H   UNL     1       0.353  13.046  22.182  0.00  0.00    +0.000 HD
BRANCH  19  24
ATOM     21  C   UNL     1      -1.148  10.583  18.486  0.00  0.00    +0.000 A 
ATOM     22  C   UNL     1      -1.780  11.827  18.491  0.00  0.00    +0.000 A 
ATOM     23  C   UNL     1      -1.583  12.721  19.550  0.00  0.00    +0.000 A 
ATOM     24  C   UNL     1      -0.717  12.382  20.589  0.00  0.00    +0.000 A 
ATOM     25  C   UNL     1      -0.061  11.135  20.582  0.00  0.00    +0.000 A 
ATOM     26  C   UNL     1      -0.276  10.244  19.521  0.00  0.00    +0.000 A 
BRANCH  21  28
ATOM     27  C   UNL     1      -2.360  10.302  16.476  0.00  0.00    +0.000 C 
ATOM     28  O   UNL     1      -1.386   9.797  17.388  0.00  0.00    +0.000 OA
ENDBRANCH  21  28
BRANCH  25  29
ATOM     29  O   UNL     1       0.820  10.909  21.615  0.00  0.00    +0.000 OA
ATOM     30  C   UNL     1       0.972   9.553  22.026  0.00  0.00    +0.000 C 
ENDBRANCH  25  29
ENDBRANCH  19  24
ENDBRANCH   1  19
TORSDOF 6
ENDMDL
MODEL 6
REMARK VINA RESULT:      -6.3      9.036     12.446
REMARK  Name = 
REMARK  12 active torsions:
REMARK  status: ('A' for Active; 'I' for Inactive)
REMARK    1  A    between atoms: C_1  and  O_2
REMARK    2  A    between atoms: O_2  and  C_3
REMARK    3  A    between atoms: C_6  and  N_7
REMARK    4  A    between atoms: N_7  and  S_8
REMARK    5  A    between atoms: S_8  and  C_11
REMARK    6  A    between atoms: C_13  and  C_14
REMARK    7  A    between atoms: C_17  and  C_18
REMARK    8  A    between atoms: C_18  and  C_19
REMARK    9  A    between atoms: C_18  and  C_20
REMARK   10  A    between atoms: C_23  and  C_24
REMARK   11  A    between atoms: C_26  and  O_27
REMARK   12  A    between atoms: O_27  and  C_28
REMARK                            x       y       z     vdW  Elec       q    Type
REMARK                         _______ _______ _______ _____ _____    ______ ____
ROOT
ATOM      1  S   UNL     1       6.440  15.115  19.670  0.00  0.00    +0.000 S 
ATOM      2  O   UNL     1       6.430  14.465  18.371  0.00  0.00    +0.000 OA
ATOM      3  O   UNL     1       6.592  16.552  19.766  0.00  0.00    +0.000 OA
ENDROOT
BRANCH   1   4
ATOM      4  C   UNL     1       7.621  14.358  20.684  0.00  0.00    +0.000 A 
ATOM      5  C   UNL     1       7.257  13.751  21.967  0.00  0.00    +0.000 A 
ATOM      6  C   UNL     1       8.294  13.049  22.461  0.00  0.00    +0.000 A 
ATOM      7  C   UNL     1       8.357  12.221  23.689  0.00  0.00    +0.000 C 
ATOM      8  C   UNL     1       9.324  13.144  21.440  0.00  0.00    +0.000 A 
ATOM      9  C   UNL     1      10.294  12.215  21.287  0.00  0.00    +0.000 A 
ATOM     10  C   UNL     1      11.039  12.124  20.037  0.00  0.00    +0.000 A 
ATOM     11  C   UNL     1      11.810  13.230  19.888  0.00  0.00    +0.000 A 
ATOM     12  C   UNL     1      11.168  14.373  19.231  0.00  0.00    +0.000 A 
ATOM     13  C   UNL     1       9.849  14.693  19.337  0.00  0.00    +0.000 A 
ATOM     14  C   UNL     1       9.294  15.397  18.127  0.00  0.00    +0.000 C 
ATOM     15  C   UNL     1       8.945  14.165  20.408  0.00  0.00    +0.000 A 
BRANCH  10  16
ATOM     16  C   UNL     1      10.126  11.657  18.838  0.00  0.00    +0.000 C 
ATOM     17  C   UNL     1      10.858  11.602  17.494  0.00  0.00    +0.000 C 
ATOM     18  C   UNL     1       9.209  10.443  19.055  0.00  0.00    +0.000 C 
ENDBRANCH  10  16
ENDBRANCH   1   4
BRANCH   1  19
ATOM     19  N   UNL     1       4.895  14.838  20.392  0.00  0.00    +0.000 N 
ATOM     20  H   UNL     1       5.052  15.003  21.391  0.00  0.00    +0.000 HD
BRANCH  19  24
ATOM     21  C   UNL     1       1.685  17.281  19.064  0.00  0.00    +0.000 A 
ATOM     22  C   UNL     1       2.528  17.719  20.086  0.00  0.00    +0.000 A 
ATOM     23  C   UNL     1       3.579  16.911  20.537  0.00  0.00    +0.000 A 
ATOM     24  C   UNL     1       3.810  15.676  19.933  0.00  0.00    +0.000 A 
ATOM     25  C   UNL     1       2.975  15.234  18.888  0.00  0.00    +0.000 A 
ATOM     26  C   UNL     1       1.918  16.048  18.454  0.00  0.00    +0.000 A 
BRANCH  21  28
ATOM     27  C   UNL     1      -0.234  17.653  17.734  0.00  0.00    +0.000 C 
ATOM     28  O   UNL     1       0.707  18.161  18.679  0.00  0.00    +0.000 OA
ENDBRANCH  21  28
BRANCH  25  29
ATOM     29  O   UNL     1       3.312  14.032  18.311  0.00  0.00    +0.000 OA
ATOM     30  C   UNL     1       2.320  13.010  18.361  0.00  0.00    +0.000 C 
ENDBRANCH  25  29
ENDBRANCH  19  24
ENDBRANCH   1  19
TORSDOF 6
ENDMDL
MODEL 7
REMARK VINA RESULT:      -6.3      8.799     11.755
REMARK  Name = 
REMARK  12 active torsions:
REMARK  status: ('A' for Active; 'I' for Inactive)
REMARK    1  A    between atoms: C_1  and  O_2
REMARK    2  A    between atoms: O_2  and  C_3
REMARK    3  A    between atoms: C_6  and  N_7
REMARK    4  A    between atoms: N_7  and  S_8
REMARK    5  A    between atoms: S_8  and  C_11
REMARK    6  A    between atoms: C_13  and  C_14
REMARK    7  A    between atoms: C_17  and  C_18
REMARK    8  A    between atoms: C_18  and  C_19
REMARK    9  A    between atoms: C_18  and  C_20
REMARK   10  A    between atoms: C_23  and  C_24
REMARK   11  A    between atoms: C_26  and  O_27
REMARK   12  A    between atoms: O_27  and  C_28
REMARK                            x       y       z     vdW  Elec       q    Type
REMARK                         _______ _______ _______ _____ _____    ______ ____
ROOT
ATOM      1  S   UNL     1       6.664  15.367  19.313  0.00  0.00    +0.000 S 
ATOM      2  O   UNL     1       6.260  14.467  18.247  0.00  0.00    +0.000 OA
ATOM      3  O   UNL     1       7.283  16.638  18.999  0.00  0.00    +0.000 OA
ENDROOT
BRANCH   1   4
ATOM      4  C   UNL     1       7.669  14.516  20.435  0.00  0.00    +0.000 A 
ATOM      5  C   UNL     1       7.141  13.999  21.701  0.00  0.00    +0.000 A 
ATOM      6  C   UNL     1       8.050  13.202  22.294  0.00  0.00    +0.000 A 
ATOM      7  C   UNL     1       7.924  12.414  23.544  0.00  0.00    +0.000 C 
ATOM      8  C   UNL     1       9.158  13.143  21.355  0.00  0.00    +0.000 A 
ATOM      9  C   UNL     1      10.023  12.106  21.302  0.00  0.00    +0.000 A 
ATOM     10  C   UNL     1      10.844  11.887  20.118  0.00  0.00    +0.000 A 
ATOM     11  C   UNL     1      11.747  12.893  20.002  0.00  0.00    +0.000 A 
ATOM     12  C   UNL     1      11.293  14.078  19.267  0.00  0.00    +0.000 A 
ATOM     13  C   UNL     1      10.016  14.549  19.261  0.00  0.00    +0.000 A 
ATOM     14  C   UNL     1       9.639  15.269  17.992  0.00  0.00    +0.000 C 
ATOM     15  C   UNL     1       8.979  14.165  20.270  0.00  0.00    +0.000 A 
BRANCH  10  16
ATOM     16  C   UNL     1       9.976  11.486  18.863  0.00  0.00    +0.000 C 
ATOM     17  C   UNL     1      10.762  11.483  17.549  0.00  0.00    +0.000 C 
ATOM     18  C   UNL     1       9.039  10.274  18.988  0.00  0.00    +0.000 C 
ENDBRANCH  10  16
ENDBRANCH   1   4
BRANCH   1  19
ATOM     19  N   UNL     1       5.231  15.831  20.160  0.00  0.00    +0.000 N 
ATOM     20  H   UNL     1       5.068  16.798  19.865  0.00  0.00    +0.000 HD
BRANCH  19  24
ATOM     21  C   UNL     1       1.770  13.498  19.376  0.00  0.00    +0.000 A 
ATOM     22  C   UNL     1       2.524  13.275  20.529  0.00  0.00    +0.000 A 
ATOM     23  C   UNL     1       3.674  14.031  20.785  0.00  0.00    +0.000 A 
ATOM     24  C   UNL     1       4.046  15.044  19.901  0.00  0.00    +0.000 A 
ATOM     25  C   UNL     1       3.280  15.288  18.744  0.00  0.00    +0.000 A 
ATOM     26  C   UNL     1       2.137  14.515  18.494  0.00  0.00    +0.000 A 
BRANCH  21  28
ATOM     27  C   UNL     1       0.169  12.122  20.438  0.00  0.00    +0.000 C 
ATOM     28  O   UNL     1       0.648  12.723  19.237  0.00  0.00    +0.000 OA
ENDBRANCH  21  28
BRANCH  25  29
ATOM     29  O   UNL     1       3.686  16.344  17.962  0.00  0.00    +0.000 OA
ATOM     30  C   UNL     1       2.655  17.059  17.287  0.00  0.00    +0.000 C 
ENDBRANCH  25  29
ENDBRANCH  19  24
ENDBRANCH   1  19
TORSDOF 6
ENDMDL
MODEL 8
REMARK VINA RESULT:      -6.2      4.742      8.527
REMARK  Name = 
REMARK  12 active torsions:
REMARK  status: ('A' for Active; 'I' for Inactive)
REMARK    1  A    between atoms: C_1  and  O_2
REMARK    2  A    between atoms: O_2  and  C_3
REMARK    3  A    between atoms: C_6  and  N_7
REMARK    4  A    between atoms: N_7  and  S_8
REMARK    5  A    between atoms: S_8  and  C_11
REMARK    6  A    between atoms: C_13  and  C_14
REMARK    7  A    between atoms: C_17  and  C_18
REMARK    8  A    between atoms: C_18  and  C_19
REMARK    9  A    between atoms: C_18  and  C_20
REMARK   10  A    between atoms: C_23  and  C_24
REMARK   11  A    between atoms: C_26  and  O_27
REMARK   12  A    between atoms: O_27  and  C_28
REMARK                            x       y       z     vdW  Elec       q    Type
REMARK                         _______ _______ _______ _____ _____    ______ ____
ROOT
ATOM      1  S   UNL     1       1.593   6.725  20.749  0.00  0.00    +0.000 S 
ATOM      2  O   UNL     1       2.166   5.905  21.801  0.00  0.00    +0.000 OA
ATOM      3  O   UNL     1       0.155   6.840  20.613  0.00  0.00    +0.000 OA
ENDROOT
BRANCH   1   4
ATOM      4  C   UNL     1       2.263   6.257  19.224  0.00  0.00    +0.000 A 
ATOM      5  C   UNL     1       3.052   7.187  18.413  0.00  0.00    +0.000 A 
ATOM      6  C   UNL     1       3.635   6.535  17.389  0.00  0.00    +0.000 A 
ATOM      7  C   UNL     1       4.571   7.056  16.364  0.00  0.00    +0.000 C 
ATOM      8  C   UNL     1       3.274   5.140  17.586  0.00  0.00    +0.000 A 
ATOM      9  C   UNL     1       4.021   4.115  17.120  0.00  0.00    +0.000 A 
ATOM     10  C   UNL     1       3.862   2.775  17.671  0.00  0.00    +0.000 A 
ATOM     11  C   UNL     1       2.641   2.290  17.333  0.00  0.00    +0.000 A 
ATOM     12  C   UNL     1       1.546   2.618  18.253  0.00  0.00    +0.000 A 
ATOM     13  C   UNL     1       1.447   3.776  18.963  0.00  0.00    +0.000 A 
ATOM     14  C   UNL     1       0.711   3.627  20.269  0.00  0.00    +0.000 C 
ATOM     15  C   UNL     1       2.219   5.019  18.647  0.00  0.00    +0.000 A 
BRANCH  10  16
ATOM     16  C   UNL     1       4.333   2.694  19.174  0.00  0.00    +0.000 C 
ATOM     17  C   UNL     1       4.625   1.269  19.650  0.00  0.00    +0.000 C 
ATOM     18  C   UNL     1       5.389   3.701  19.658  0.00  0.00    +0.000 C 
ENDBRANCH  10  16
ENDBRANCH   1   4
BRANCH   1  19
ATOM     19  N   UNL     1       2.087   8.354  21.045  0.00  0.00    +0.000 N 
ATOM     20  H   UNL     1       2.471   8.666  20.147  0.00  0.00    +0.000 HD
BRANCH  19  24
ATOM     21  C   UNL     1      -0.969  11.032  22.278  0.00  0.00    +0.000 A 
ATOM     22  C   UNL     1      -0.422  10.122  23.183  0.00  0.00    +0.000 A 
ATOM     23  C   UNL     1       0.576   9.228  22.778  0.00  0.00    +0.000 A 
ATOM     24  C   UNL     1       1.055   9.273  21.470  0.00  0.00    +0.000 A 
ATOM     25  C   UNL     1       0.521  10.201  20.554  0.00  0.00    +0.000 A 
ATOM     26  C   UNL     1      -0.487  11.084  20.970  0.00  0.00    +0.000 A 
BRANCH  21  28
ATOM     27  C   UNL     1      -1.442  13.168  23.173  0.00  0.00    +0.000 C 
ATOM     28  O   UNL     1      -1.918  11.881  22.786  0.00  0.00    +0.000 OA
ENDBRANCH  21  28
BRANCH  25  29
ATOM     29  O   UNL     1       1.094  10.217  19.304  0.00  0.00    +0.000 OA
ATOM     30  C   UNL     1       0.213   9.997  18.206  0.00  0.00    +0.000 C 
ENDBRANCH  25  29
ENDBRANCH  19  24
ENDBRANCH   1  19
TORSDOF 6
ENDMDL
MODEL 9
REMARK VINA RESULT:      -6.2      4.911      8.085
REMARK  Name = 
REMARK  12 active torsions:
REMARK  status: ('A' for Active; 'I' for Inactive)
REMARK    1  A    between atoms: C_1  and  O_2
REMARK    2  A    between atoms: O_2  and  C_3
REMARK    3  A    between atoms: C_6  and  N_7
REMARK    4  A    between atoms: N_7  and  S_8
REMARK    5  A    between atoms: S_8  and  C_11
REMARK    6  A    between atoms: C_13  and  C_14
REMARK    7  A    between atoms: C_17  and  C_18
REMARK    8  A    between atoms: C_18  and  C_19
REMARK    9  A    between atoms: C_18  and  C_20
REMARK   10  A    between atoms: C_23  and  C_24
REMARK   11  A    between atoms: C_26  and  O_27
REMARK   12  A    between atoms: O_27  and  C_28
REMARK                            x       y       z     vdW  Elec       q    Type
REMARK                         _______ _______ _______ _____ _____    ______ ____
ROOT
ATOM      1  S   UNL     1       1.726   9.755  18.548  0.00  0.00    +0.000 S 
ATOM      2  O   UNL     1       2.070   9.642  19.955  0.00  0.00    +0.000 OA
ATOM      3  O   UNL     1       2.637  10.396  17.623  0.00  0.00    +0.000 OA
ENDROOT
BRANCH   1   4
ATOM      4  C   UNL     1       0.165  10.483  18.393  0.00  0.00    +0.000 A 
ATOM      5  C   UNL     1      -1.000   9.718  17.942  0.00  0.00    +0.000 A 
ATOM      6  C   UNL     1      -2.125  10.440  18.106  0.00  0.00    +0.000 A 
ATOM      7  C   UNL     1      -3.531  10.044  17.854  0.00  0.00    +0.000 C 
ATOM      8  C   UNL     1      -1.684  11.669  18.745  0.00  0.00    +0.000 A 
ATOM      9  C   UNL     1      -2.493  12.424  19.522  0.00  0.00    +0.000 A 
ATOM     10  C   UNL     1      -1.928  13.393  20.453  0.00  0.00    +0.000 A 
ATOM     11  C   UNL     1      -1.340  14.399  19.757  0.00  0.00    +0.000 A 
ATOM     12  C   UNL     1       0.063  14.184  19.388  0.00  0.00    +0.000 A 
ATOM     13  C   UNL     1       0.612  12.976  19.083  0.00  0.00    +0.000 A 
ATOM     14  C   UNL     1       2.078  12.874  19.413  0.00  0.00    +0.000 C 
ATOM     15  C   UNL     1      -0.187  11.762  18.723  0.00  0.00    +0.000 A 
BRANCH  10  16
ATOM     16  C   UNL     1      -1.129  12.695  21.620  0.00  0.00    +0.000 C 
ATOM     17  C   UNL     1      -0.767  13.642  22.768  0.00  0.00    +0.000 C 
ATOM     18  C   UNL     1      -1.623  11.329  22.121  0.00  0.00    +0.000 C 
ENDBRANCH  10  16
ENDBRANCH   1   4
BRANCH   1  19
ATOM     19  N   UNL     1       1.604   8.148  17.923  0.00  0.00    +0.000 N 
ATOM     20  H   UNL     1       1.411   8.282  16.925  0.00  0.00    +0.000 HD
BRANCH  19  24
ATOM     21  C   UNL     1       5.010   5.649  18.357  0.00  0.00    +0.000 A 
ATOM     22  C   UNL     1       4.953   6.592  17.329  0.00  0.00    +0.000 A 
ATOM     23  C   UNL     1       3.827   7.408  17.173  0.00  0.00    +0.000 A 
ATOM     24  C   UNL     1       2.769   7.307  18.076  0.00  0.00    +0.000 A 
ATOM     25  C   UNL     1       2.826   6.370  19.127  0.00  0.00    +0.000 A 
ATOM     26  C   UNL     1       3.955   5.550  19.264  0.00  0.00    +0.000 A 
BRANCH  21  28
ATOM     27  C   UNL     1       7.351   5.683  18.680  0.00  0.00    +0.000 C 
ATOM     28  O   UNL     1       6.169   4.922  18.436  0.00  0.00    +0.000 OA
ENDBRANCH  21  28
BRANCH  25  29
ATOM     29  O   UNL     1       1.766   6.380  20.004  0.00  0.00    +0.000 OA
ATOM     30  C   UNL     1       1.579   5.197  20.777  0.00  0.00    +0.000 C 
ENDBRANCH  25  29
ENDBRANCH  19  24
ENDBRANCH   1  19
TORSDOF 6
ENDMDL
