MODEL 1
REMARK VINA RESULT:      -6.6      0.000      0.000
REMARK  Name = 
REMARK  14 active torsions:
REMARK  status: ('A' for Active; 'I' for Inactive)
REMARK    1  A    between atoms: C_1  and  C_2
REMARK    2  A    between atoms: C_2  and  O_3
REMARK    3  A    between atoms: O_3  and  C_4
REMARK    4  A    between atoms: C_4  and  C_6
REMARK    5  A    between atoms: C_6  and  C_7
REMARK    6  A    between atoms: C_7  and  C_8
REMARK    7  A    between atoms: C_8  and  N_9
REMARK    8  A    between atoms: C_10  and  C_12
REMARK    9  A    between atoms: C_12  and  C_13
REMARK   10  A    between atoms: C_13  and  N_14
REMARK   11  A    between atoms: C_15  and  C_17
REMARK   12  A    between atoms: C_20  and  O_21
REMARK   13  A    between atoms: O_21  and  C_22
REMARK   14  A    between atoms: C_22  and  C_23
REMARK                            x       y       z     vdW  Elec       q    Type
REMARK                         _______ _______ _______ _____ _____    ______ ____
ROOT
ATOM      1  C   UNL     1       7.089   6.467  18.049  0.00  0.00    +0.000 C 
ENDROOT
BRANCH   1   2
ATOM      2  N   UNL     1       6.615   5.916  16.791  0.00  0.00    +0.000 N 
ATOM      3  C   UNL     1       7.233   4.846  16.180  0.00  0.00    +0.000 C 
ATOM      4  O   UNL     1       8.161   4.218  16.677  0.00  0.00    +0.000 OA
ATOM      5  H   UNL     1       5.808   6.346  16.360  0.00  0.00    +0.000 HD
BRANCH   3   6
ATOM      6  C   UNL     1       6.678   4.435  14.866  0.00  0.00    +0.000 A 
ATOM      7  C   UNL     1       5.418   3.842  14.750  0.00  0.00    +0.000 A 
ATOM      8  C   UNL     1       4.941   3.467  13.492  0.00  0.00    +0.000 A 
ATOM      9  C   UNL     1       5.704   3.696  12.343  0.00  0.00    +0.000 A 
ATOM     10  C   UNL     1       6.961   4.290  12.458  0.00  0.00    +0.000 A 
ATOM     11  C   UNL     1       7.444   4.665  13.717  0.00  0.00    +0.000 A 
BRANCH   9  12
ATOM     12  O   UNL     1       5.141   3.260  11.175  0.00  0.00    +0.000 OA
BRANCH  12  13
ATOM     13  C   UNL     1       3.716   3.169  11.162  0.00  0.00    +0.000 C 
ATOM     14  C   UNL     1       3.210   3.904   9.934  0.00  0.00    +0.000 C 
ENDBRANCH  12  13
ENDBRANCH   9  12
ENDBRANCH   3   6
ENDBRANCH   1   2
BRANCH   1  15
ATOM     15  C   UNL     1       6.710   5.614  19.254  0.00  0.00    +0.000 C 
BRANCH  15  17
ATOM     16  N   UNL     1       4.320   5.804  19.519  0.00  0.00    +0.000 N 
ATOM     17  C   UNL     1       5.343   5.000  19.065  0.00  0.00    +0.000 C 
ATOM     18  O   UNL     1       5.162   3.889  18.574  0.00  0.00    +0.000 OA
ATOM     19  H   UNL     1       4.541   6.704  19.927  0.00  0.00    +0.000 HD
BRANCH  16  20
ATOM     20  C   UNL     1       2.934   5.397  19.423  0.00  0.00    +0.000 C 
BRANCH  20  21
ATOM     21  C   UNL     1       2.279   5.221  20.790  0.00  0.00    +0.000 C 
BRANCH  21  22
ATOM     22  C   UNL     1       1.234   4.108  20.796  0.00  0.00    +0.000 C 
BRANCH  22  23
ATOM     23  C   UNL     1       1.874   2.768  21.056  0.00  0.00    +0.000 C 
ATOM     24  O   UNL     1       2.743   2.547  21.886  0.00  0.00    +0.000 OA
BRANCH  23  25
ATOM     25  O   UNL     1       1.403   1.866  20.148  0.00  0.00    +0.000 OA
BRANCH  25  27
ATOM     26  C   UNL     1       2.315   2.036  17.952  0.00  0.00    +0.000 C 
ATOM     27  C   UNL     1       1.144   2.407  18.846  0.00  0.00    +0.000 C 
ENDBRANCH  25  27
ENDBRANCH  23  25
ENDBRANCH  22  23
ENDBRANCH  21  22
ENDBRANCH  20  21
ENDBRANCH  16  20
ENDBRANCH  15  17
ENDBRANCH   1  15
TORSDOF 12
ENDMDL
MODEL 2
REMARK VINA RESULT:      -6.6      3.572      7.615
REMARK  Name = 
REMARK  14 active torsions:
REMARK  status: ('A' for Active; 'I' for Inactive)
REMARK    1  A    between atoms: C_1  and  C_2
REMARK    2  A    between atoms: C_2  and  O_3
REMARK    3  A    between atoms: O_3  and  C_4
REMARK    4  A    between atoms: C_4  and  C_6
REMARK    5  A    between atoms: C_6  and  C_7
REMARK    6  A    between atoms: C_7  and  C_8
REMARK    7  A    between atoms: C_8  and  N_9
REMARK    8  A    between atoms: C_10  and  C_12
REMARK    9  A    between atoms: C_12  and  C_13
REMARK   10  A    between atoms: C_13  and  N_14
REMARK   11  A    between atoms: C_15  and  C_17
REMARK   12  A    between atoms: C_20  and  O_21
REMARK   13  A    between atoms: O_21  and  C_22
REMARK   14  A    between atoms: C_22  and  C_23
REMARK                            x       y       z     vdW  Elec       q    Type
REMARK                         _______ _______ _______ _____ _____    ______ ____
ROOT
ATOM      1  C   UNL     1       1.692   3.736  21.118  0.00  0.00    +0.000 C 
ENDROOT
BRANCH   1   2
ATOM      2  N   UNL     1       1.451   5.061  20.575  0.00  0.00    +0.000 N 
ATOM      3  C   UNL     1       2.472   5.860  20.109  0.00  0.00    +0.000 C 
ATOM      4  O   UNL     1       3.641   5.497  20.029  0.00  0.00    +0.000 OA
ATOM      5  H   UNL     1       0.497   5.396  20.548  0.00  0.00    +0.000 HD
BRANCH   3   6
ATOM      6  C   UNL     1       2.083   7.215  19.645  0.00  0.00    +0.000 A 
ATOM      7  C   UNL     1       1.378   8.101  20.465  0.00  0.00    +0.000 A 
ATOM      8  C   UNL     1       1.028   9.365  19.982  0.00  0.00    +0.000 A 
ATOM      9  C   UNL     1       1.394   9.760  18.692  0.00  0.00    +0.000 A 
ATOM     10  C   UNL     1       2.099   8.877  17.874  0.00  0.00    +0.000 A 
ATOM     11  C   UNL     1       2.450   7.610  18.353  0.00  0.00    +0.000 A 
BRANCH   9  12
ATOM     12  O   UNL     1       0.970  11.009  18.325  0.00  0.00    +0.000 OA
BRANCH  12  13
ATOM     13  C   UNL     1      -0.345  11.372  18.744  0.00  0.00    +0.000 C 
ATOM     14  C   UNL     1      -0.515  12.864  18.517  0.00  0.00    +0.000 C 
ENDBRANCH  12  13
ENDBRANCH   9  12
ENDBRANCH   3   6
ENDBRANCH   1   2
BRANCH   1  15
ATOM     15  C   UNL     1       1.194   2.618  20.209  0.00  0.00    +0.000 C 
BRANCH  15  17
ATOM     16  N   UNL     1       3.077   2.518  18.705  0.00  0.00    +0.000 N 
ATOM     17  C   UNL     1       1.731   2.792  18.808  0.00  0.00    +0.000 C 
ATOM     18  O   UNL     1       1.042   3.160  17.860  0.00  0.00    +0.000 OA
ATOM     19  H   UNL     1       3.589   2.233  19.531  0.00  0.00    +0.000 HD
BRANCH  16  20
ATOM     20  C   UNL     1       3.780   2.622  17.444  0.00  0.00    +0.000 C 
BRANCH  20  21
ATOM     21  C   UNL     1       4.117   4.064  17.077  0.00  0.00    +0.000 C 
BRANCH  21  22
ATOM     22  C   UNL     1       5.447   4.521  17.673  0.00  0.00    +0.000 C 
BRANCH  22  23
ATOM     23  C   UNL     1       6.546   4.471  16.642  0.00  0.00    +0.000 C 
ATOM     24  O   UNL     1       6.450   3.981  15.527  0.00  0.00    +0.000 OA
BRANCH  23  25
ATOM     25  O   UNL     1       7.692   4.967  17.190  0.00  0.00    +0.000 OA
BRANCH  25  27
ATOM     26  C   UNL     1       7.640   7.322  17.556  0.00  0.00    +0.000 C 
ATOM     27  C   UNL     1       7.490   5.958  18.207  0.00  0.00    +0.000 C 
ENDBRANCH  25  27
ENDBRANCH  23  25
ENDBRANCH  22  23
ENDBRANCH  21  22
ENDBRANCH  20  21
ENDBRANCH  16  20
ENDBRANCH  15  17
ENDBRANCH   1  15
TORSDOF 12
ENDMDL
MODEL 3
REMARK VINA RESULT:      -6.6      3.379      7.488
REMARK  Name = 
REMARK  14 active torsions:
REMARK  status: ('A' for Active; 'I' for Inactive)
REMARK    1  A    between atoms: C_1  and  C_2
REMARK    2  A    between atoms: C_2  and  O_3
REMARK    3  A    between atoms: O_3  and  C_4
REMARK    4  A    between atoms: C_4  and  C_6
REMARK    5  A    between atoms: C_6  and  C_7
REMARK    6  A    between atoms: C_7  and  C_8
REMARK    7  A    between atoms: C_8  and  N_9
REMARK    8  A    between atoms: C_10  and  C_12
REMARK    9  A    between atoms: C_12  and  C_13
REMARK   10  A    between atoms: C_13  and  N_14
REMARK   11  A    between atoms: C_15  and  C_17
REMARK   12  A    between atoms: C_20  and  O_21
REMARK   13  A    between atoms: O_21  and  C_22
REMARK   14  A    between atoms: C_22  and  C_23
REMARK                            x       y       z     vdW  Elec       q    Type
REMARK                         _______ _______ _______ _____ _____    ______ ____
ROOT
ATOM      1  C   UNL     1       2.817   3.322  20.501  0.00  0.00    +0.000 C 
ENDROOT
BRANCH   1   2
ATOM      2  N   UNL     1       2.318   4.629  20.109  0.00  0.00    +0.000 N 
ATOM      3  C   UNL     1       3.161   5.664  19.770  0.00  0.00    +0.000 C 
ATOM      4  O   UNL     1       4.379   5.553  19.682  0.00  0.00    +0.000 OA
ATOM      5  H   UNL     1       1.317   4.767  20.093  0.00  0.00    +0.000 HD
BRANCH   3   6
ATOM      6  C   UNL     1       2.510   6.961  19.455  0.00  0.00    +0.000 A 
ATOM      7  C   UNL     1       1.835   7.703  20.429  0.00  0.00    +0.000 A 
ATOM      8  C   UNL     1       1.233   8.915  20.083  0.00  0.00    +0.000 A 
ATOM      9  C   UNL     1       1.315   9.404  18.776  0.00  0.00    +0.000 A 
ATOM     10  C   UNL     1       1.991   8.666  17.805  0.00  0.00    +0.000 A 
ATOM     11  C   UNL     1       2.594   7.450  18.146  0.00  0.00    +0.000 A 
BRANCH   9  12
ATOM     12  O   UNL     1       0.663  10.587  18.557  0.00  0.00    +0.000 OA
BRANCH  12  13
ATOM     13  C   UNL     1       1.326  11.763  19.020  0.00  0.00    +0.000 C 
ATOM     14  C   UNL     1       2.395  12.130  18.005  0.00  0.00    +0.000 C 
ENDBRANCH  12  13
ENDBRANCH   9  12
ENDBRANCH   3   6
ENDBRANCH   1   2
BRANCH   1  15
ATOM     15  C   UNL     1       2.520   2.236  19.473  0.00  0.00    +0.000 C 
BRANCH  15  17
ATOM     16  N   UNL     1       4.222   2.917  17.906  0.00  0.00    +0.000 N 
ATOM     17  C   UNL     1       2.871   2.708  18.083  0.00  0.00    +0.000 C 
ATOM     18  O   UNL     1       2.036   2.905  17.203  0.00  0.00    +0.000 OA
ATOM     19  H   UNL     1       4.855   2.748  18.678  0.00  0.00    +0.000 HD
BRANCH  16  20
ATOM     20  C   UNL     1       4.762   3.366  16.640  0.00  0.00    +0.000 C 
BRANCH  20  21
ATOM     21  C   UNL     1       4.532   4.855  16.400  0.00  0.00    +0.000 C 
BRANCH  21  22
ATOM     22  C   UNL     1       5.340   5.386  15.218  0.00  0.00    +0.000 C 
BRANCH  22  23
ATOM     23  C   UNL     1       6.637   6.000  15.684  0.00  0.00    +0.000 C 
ATOM     24  O   UNL     1       7.742   5.751  15.228  0.00  0.00    +0.000 OA
BRANCH  23  25
ATOM     25  O   UNL     1       6.389   6.797  16.763  0.00  0.00    +0.000 OA
BRANCH  25  27
ATOM     26  C   UNL     1       7.725   6.238  18.656  0.00  0.00    +0.000 C 
ATOM     27  C   UNL     1       7.558   7.198  17.491  0.00  0.00    +0.000 C 
ENDBRANCH  25  27
ENDBRANCH  23  25
ENDBRANCH  22  23
ENDBRANCH  21  22
ENDBRANCH  20  21
ENDBRANCH  16  20
ENDBRANCH  15  17
ENDBRANCH   1  15
TORSDOF 12
ENDMDL
MODEL 4
REMARK VINA RESULT:      -6.5      3.539      7.573
REMARK  Name = 
REMARK  14 active torsions:
REMARK  status: ('A' for Active; 'I' for Inactive)
REMARK    1  A    between atoms: C_1  and  C_2
REMARK    2  A    between atoms: C_2  and  O_3
REMARK    3  A    between atoms: O_3  and  C_4
REMARK    4  A    between atoms: C_4  and  C_6
REMARK    5  A    between atoms: C_6  and  C_7
REMARK    6  A    between atoms: C_7  and  C_8
REMARK    7  A    between atoms: C_8  and  N_9
REMARK    8  A    between atoms: C_10  and  C_12
REMARK    9  A    between atoms: C_12  and  C_13
REMARK   10  A    between atoms: C_13  and  N_14
REMARK   11  A    between atoms: C_15  and  C_17
REMARK   12  A    between atoms: C_20  and  O_21
REMARK   13  A    between atoms: O_21  and  C_22
REMARK   14  A    between atoms: C_22  and  C_23
REMARK                            x       y       z     vdW  Elec       q    Type
REMARK                         _______ _______ _______ _____ _____    ______ ____
ROOT
ATOM      1  C   UNL     1       1.991   3.729  21.375  0.00  0.00    +0.000 C 
ENDROOT
BRANCH   1   2
ATOM      2  N   UNL     1       1.673   5.034  20.824  0.00  0.00    +0.000 N 
ATOM      3  C   UNL     1       2.623   5.824  20.213  0.00  0.00    +0.000 C 
ATOM      4  O   UNL     1       3.776   5.466  20.003  0.00  0.00    +0.000 OA
ATOM      5  H   UNL     1       0.719   5.361  20.902  0.00  0.00    +0.000 HD
BRANCH   3   6
ATOM      6  C   UNL     1       2.167   7.161  19.757  0.00  0.00    +0.000 A 
ATOM      7  C   UNL     1       2.405   7.618  18.457  0.00  0.00    +0.000 A 
ATOM      8  C   UNL     1       1.961   8.886  18.076  0.00  0.00    +0.000 A 
ATOM      9  C   UNL     1       1.263   9.697  18.976  0.00  0.00    +0.000 A 
ATOM     10  C   UNL     1       1.023   9.240  20.272  0.00  0.00    +0.000 A 
ATOM     11  C   UNL     1       1.468   7.972  20.659  0.00  0.00    +0.000 A 
BRANCH   9  12
ATOM     12  O   UNL     1       0.905  10.926  18.492  0.00  0.00    +0.000 OA
BRANCH  12  13
ATOM     13  C   UNL     1       1.961  11.878  18.359  0.00  0.00    +0.000 C 
ATOM     14  C   UNL     1       1.415  13.242  18.743  0.00  0.00    +0.000 C 
ENDBRANCH  12  13
ENDBRANCH   9  12
ENDBRANCH   3   6
ENDBRANCH   1   2
BRANCH   1  15
ATOM     15  C   UNL     1       1.327   2.583  20.619  0.00  0.00    +0.000 C 
BRANCH  15  17
ATOM     16  N   UNL     1       3.044   2.396  18.936  0.00  0.00    +0.000 N 
ATOM     17  C   UNL     1       1.702   2.621  19.157  0.00  0.00    +0.000 C 
ATOM     18  O   UNL     1       0.898   2.849  18.257  0.00  0.00    +0.000 OA
ATOM     19  H   UNL     1       3.655   2.228  19.726  0.00  0.00    +0.000 HD
BRANCH  16  20
ATOM     20  C   UNL     1       3.603   2.387  17.601  0.00  0.00    +0.000 C 
BRANCH  20  21
ATOM     21  C   UNL     1       3.869   3.791  17.067  0.00  0.00    +0.000 C 
BRANCH  21  22
ATOM     22  C   UNL     1       5.293   3.954  16.540  0.00  0.00    +0.000 C 
BRANCH  22  23
ATOM     23  C   UNL     1       6.141   4.737  17.510  0.00  0.00    +0.000 C 
ATOM     24  O   UNL     1       6.931   4.256  18.309  0.00  0.00    +0.000 OA
BRANCH  23  25
ATOM     25  O   UNL     1       5.811   6.057  17.424  0.00  0.00    +0.000 OA
BRANCH  25  27
ATOM     26  C   UNL     1       7.607   7.561  17.866  0.00  0.00    +0.000 C 
ATOM     27  C   UNL     1       6.794   6.879  16.780  0.00  0.00    +0.000 C 
ENDBRANCH  25  27
ENDBRANCH  23  25
ENDBRANCH  22  23
ENDBRANCH  21  22
ENDBRANCH  20  21
ENDBRANCH  16  20
ENDBRANCH  15  17
ENDBRANCH   1  15
TORSDOF 12
ENDMDL
MODEL 5
REMARK VINA RESULT:      -6.4      6.303      8.740
REMARK  Name = 
REMARK  14 active torsions:
REMARK  status: ('A' for Active; 'I' for Inactive)
REMARK    1  A    between atoms: C_1  and  C_2
REMARK    2  A    between atoms: C_2  and  O_3
REMARK    3  A    between atoms: O_3  and  C_4
REMARK    4  A    between atoms: C_4  and  C_6
REMARK    5  A    between atoms: C_6  and  C_7
REMARK    6  A    between atoms: C_7  and  C_8
REMARK    7  A    between atoms: C_8  and  N_9
REMARK    8  A    between atoms: C_10  and  C_12
REMARK    9  A    between atoms: C_12  and  C_13
REMARK   10  A    between atoms: C_13  and  N_14
REMARK   11  A    between atoms: C_15  and  C_17
REMARK   12  A    between atoms: C_20  and  O_21
REMARK   13  A    between atoms: O_21  and  C_22
REMARK   14  A    between atoms: C_22  and  C_23
REMARK                            x       y       z     vdW  Elec       q    Type
REMARK                         _______ _______ _______ _____ _____    ______ ____
ROOT
ATOM      1  C   UNL     1       2.277   9.083  17.883  0.00  0.00    +0.000 C 
ENDROOT
BRANCH   1   2
ATOM      2  N   UNL     1       0.910   9.490  17.607  0.00  0.00    +0.000 N 
ATOM      3  C   UNL     1       0.154  10.189  18.522  0.00  0.00    +0.000 C 
ATOM      4  O   UNL     1       0.586  10.601  19.593  0.00  0.00    +0.000 OA
ATOM      5  H   UNL     1       0.515   9.241  16.710  0.00  0.00    +0.000 HD
BRANCH   3   6
ATOM      6  C   UNL     1      -1.247  10.478  18.127  0.00  0.00    +0.000 A 
ATOM      7  C   UNL     1      -1.845   9.862  17.023  0.00  0.00    +0.000 A 
ATOM      8  C   UNL     1      -3.165  10.171  16.686  0.00  0.00    +0.000 A 
ATOM      9  C   UNL     1      -3.903  11.076  17.455  0.00  0.00    +0.000 A 
ATOM     10  C   UNL     1      -3.308  11.689  18.557  0.00  0.00    +0.000 A 
ATOM     11  C   UNL     1      -1.985  11.385  18.897  0.00  0.00    +0.000 A 
BRANCH   9  12
ATOM     12  O   UNL     1      -5.174  11.315  17.008  0.00  0.00    +0.000 OA
BRANCH  12  13
ATOM     13  C   UNL     1      -6.098  11.804  17.981  0.00  0.00    +0.000 C 
ATOM     14  C   UNL     1      -7.002  12.818  17.302  0.00  0.00    +0.000 C 
ENDBRANCH  12  13
ENDBRANCH   9  12
ENDBRANCH   3   6
ENDBRANCH   1   2
BRANCH   1  15
ATOM     15  C   UNL     1       2.366   7.755  18.627  0.00  0.00    +0.000 C 
BRANCH  15  17
ATOM     16  N   UNL     1       2.860   5.482  17.992  0.00  0.00    +0.000 N 
ATOM     17  C   UNL     1       3.271   6.793  17.895  0.00  0.00    +0.000 C 
ATOM     18  O   UNL     1       4.283   7.142  17.292  0.00  0.00    +0.000 OA
ATOM     19  H   UNL     1       2.023   5.262  18.518  0.00  0.00    +0.000 HD
BRANCH  16  20
ATOM     20  C   UNL     1       3.591   4.407  17.355  0.00  0.00    +0.000 C 
BRANCH  20  21
ATOM     21  C   UNL     1       2.802   3.102  17.316  0.00  0.00    +0.000 C 
BRANCH  21  22
ATOM     22  C   UNL     1       3.524   1.962  18.030  0.00  0.00    +0.000 C 
BRANCH  22  23
ATOM     23  C   UNL     1       3.727   2.282  19.490  0.00  0.00    +0.000 C 
ATOM     24  O   UNL     1       4.809   2.392  20.047  0.00  0.00    +0.000 OA
BRANCH  23  25
ATOM     25  O   UNL     1       2.513   2.327  20.108  0.00  0.00    +0.000 OA
BRANCH  25  27
ATOM     26  C   UNL     1       1.077   4.158  20.628  0.00  0.00    +0.000 C 
ATOM     27  C   UNL     1       2.346   3.421  21.021  0.00  0.00    +0.000 C 
ENDBRANCH  25  27
ENDBRANCH  23  25
ENDBRANCH  22  23
ENDBRANCH  21  22
ENDBRANCH  20  21
ENDBRANCH  16  20
ENDBRANCH  15  17
ENDBRANCH   1  15
TORSDOF 12
ENDMDL
MODEL 6
REMARK VINA RESULT:      -6.3      3.197      7.453
REMARK  Name = 
REMARK  14 active torsions:
REMARK  status: ('A' for Active; 'I' for Inactive)
REMARK    1  A    between atoms: C_1  and  C_2
REMARK    2  A    between atoms: C_2  and  O_3
REMARK    3  A    between atoms: O_3  and  C_4
REMARK    4  A    between atoms: C_4  and  C_6
REMARK    5  A    between atoms: C_6  and  C_7
REMARK    6  A    between atoms: C_7  and  C_8
REMARK    7  A    between atoms: C_8  and  N_9
REMARK    8  A    between atoms: C_10  and  C_12
REMARK    9  A    between atoms: C_12  and  C_13
REMARK   10  A    between atoms: C_13  and  N_14
REMARK   11  A    between atoms: C_15  and  C_17
REMARK   12  A    between atoms: C_20  and  O_21
REMARK   13  A    between atoms: O_21  and  C_22
REMARK   14  A    between atoms: C_22  and  C_23
REMARK                            x       y       z     vdW  Elec       q    Type
REMARK                         _______ _______ _______ _____ _____    ______ ____
ROOT
ATOM      1  C   UNL     1       1.708   2.661  19.548  0.00  0.00    +0.000 C 
ENDROOT
BRANCH   1   2
ATOM      2  N   UNL     1       1.659   4.096  19.331  0.00  0.00    +0.000 N 
ATOM      3  C   UNL     1       1.978   4.999  20.322  0.00  0.00    +0.000 C 
ATOM      4  O   UNL     1       2.410   4.679  21.424  0.00  0.00    +0.000 OA
ATOM      5  H   UNL     1       1.377   4.428  18.418  0.00  0.00    +0.000 HD
BRANCH   3   6
ATOM      6  C   UNL     1       1.818   6.433  19.975  0.00  0.00    +0.000 A 
ATOM      7  C   UNL     1       1.337   7.366  20.899  0.00  0.00    +0.000 A 
ATOM      8  C   UNL     1       1.199   8.705  20.525  0.00  0.00    +0.000 A 
ATOM      9  C   UNL     1       1.555   9.126  19.240  0.00  0.00    +0.000 A 
ATOM     10  C   UNL     1       2.037   8.196  18.319  0.00  0.00    +0.000 A 
ATOM     11  C   UNL     1       2.175   6.854  18.688  0.00  0.00    +0.000 A 
BRANCH   9  12
ATOM     12  O   UNL     1       1.348  10.455  18.986  0.00  0.00    +0.000 OA
BRANCH  12  13
ATOM     13  C   UNL     1       2.263  11.069  18.080  0.00  0.00    +0.000 C 
ATOM     14  C   UNL     1       2.224  12.569  18.317  0.00  0.00    +0.000 C 
ENDBRANCH  12  13
ENDBRANCH   9  12
ENDBRANCH   3   6
ENDBRANCH   1   2
BRANCH   1  15
ATOM     15  C   UNL     1       2.825   1.977  18.768  0.00  0.00    +0.000 C 
BRANCH  15  17
ATOM     16  N   UNL     1       4.661   3.433  18.198  0.00  0.00    +0.000 N 
ATOM     17  C   UNL     1       4.168   2.558  19.141  0.00  0.00    +0.000 C 
ATOM     18  O   UNL     1       4.771   2.265  20.171  0.00  0.00    +0.000 OA
ATOM     19  H   UNL     1       4.119   3.619  17.363  0.00  0.00    +0.000 HD
BRANCH  16  20
ATOM     20  C   UNL     1       5.934   4.100  18.371  0.00  0.00    +0.000 C 
BRANCH  20  21
ATOM     21  C   UNL     1       5.780   5.576  18.724  0.00  0.00    +0.000 C 
BRANCH  21  22
ATOM     22  C   UNL     1       5.454   6.435  17.505  0.00  0.00    +0.000 C 
BRANCH  22  23
ATOM     23  C   UNL     1       6.617   6.475  16.546  0.00  0.00    +0.000 C 
ATOM     24  O   UNL     1       7.730   6.913  16.799  0.00  0.00    +0.000 OA
BRANCH  23  25
ATOM     25  O   UNL     1       6.200   6.039  15.322  0.00  0.00    +0.000 OA
BRANCH  25  27
ATOM     26  C   UNL     1       6.002   3.759  14.655  0.00  0.00    +0.000 C 
ATOM     27  C   UNL     1       6.950   4.937  14.792  0.00  0.00    +0.000 C 
ENDBRANCH  25  27
ENDBRANCH  23  25
ENDBRANCH  22  23
ENDBRANCH  21  22
ENDBRANCH  20  21
ENDBRANCH  16  20
ENDBRANCH  15  17
ENDBRANCH   1  15
TORSDOF 12
ENDMDL
MODEL 7
REMARK VINA RESULT:      -6.3      4.442      7.393
REMARK  Name = 
REMARK  14 active torsions:
REMARK  status: ('A' for Active; 'I' for Inactive)
REMARK    1  A    between atoms: C_1  and  C_2
REMARK    2  A    between atoms: C_2  and  O_3
REMARK    3  A    between atoms: O_3  and  C_4
REMARK    4  A    between atoms: C_4  and  C_6
REMARK    5  A    between atoms: C_6  and  C_7
REMARK    6  A    between atoms: C_7  and  C_8
REMARK    7  A    between atoms: C_8  and  N_9
REMARK    8  A    between atoms: C_10  and  C_12
REMARK    9  A    between atoms: C_12  and  C_13
REMARK   10  A    between atoms: C_13  and  N_14
REMARK   11  A    between atoms: C_15  and  C_17
REMARK   12  A    between atoms: C_20  and  O_21
REMARK   13  A    between atoms: O_21  and  C_22
REMARK   14  A    between atoms: C_22  and  C_23
REMARK                            x       y       z     vdW  Elec       q    Type
REMARK                         _______ _______ _______ _____ _____    ______ ____
ROOT
ATOM      1  C   UNL     1       7.957   5.865  18.702  0.00  0.00    +0.000 C 
ENDROOT
BRANCH   1   2
ATOM      2  N   UNL     1       8.315   7.250  18.950  0.00  0.00    +0.000 N 
ATOM      3  C   UNL     1       8.121   8.238  18.009  0.00  0.00    +0.000 C 
ATOM      4  O   UNL     1       7.558   8.058  16.936  0.00  0.00    +0.000 OA
ATOM      5  H   UNL     1       8.722   7.480  19.847  0.00  0.00    +0.000 HD
BRANCH   3   6
ATOM      6  C   UNL     1       8.597   9.595  18.378  0.00  0.00    +0.000 A 
ATOM      7  C   UNL     1       9.353   9.823  19.533  0.00  0.00    +0.000 A 
ATOM      8  C   UNL     1       9.774  11.119  19.842  0.00  0.00    +0.000 A 
ATOM      9  C   UNL     1       9.463  12.189  18.997  0.00  0.00    +0.000 A 
ATOM     10  C   UNL     1       8.711  11.961  17.844  0.00  0.00    +0.000 A 
ATOM     11  C   UNL     1       8.286  10.665  17.532  0.00  0.00    +0.000 A 
BRANCH   9  12
ATOM     12  O   UNL     1       9.908  13.411  19.422  0.00  0.00    +0.000 OA
BRANCH  12  13
ATOM     13  C   UNL     1      11.185  13.818  18.931  0.00  0.00    +0.000 C 
ATOM     14  C   UNL     1      11.713  14.909  19.845  0.00  0.00    +0.000 C 
ENDBRANCH  12  13
ENDBRANCH   9  12
ENDBRANCH   3   6
ENDBRANCH   1   2
BRANCH   1  15
ATOM     15  C   UNL     1       6.607   5.481  19.299  0.00  0.00    +0.000 C 
BRANCH  15  17
ATOM     16  N   UNL     1       5.366   4.159  17.709  0.00  0.00    +0.000 N 
ATOM     17  C   UNL     1       5.546   5.424  18.226  0.00  0.00    +0.000 C 
ATOM     18  O   UNL     1       4.921   6.407  17.839  0.00  0.00    +0.000 OA
ATOM     19  H   UNL     1       5.926   3.394  18.065  0.00  0.00    +0.000 HD
BRANCH  16  20
ATOM     20  C   UNL     1       4.391   3.893  16.673  0.00  0.00    +0.000 C 
BRANCH  20  21
ATOM     21  C   UNL     1       3.105   3.283  17.220  0.00  0.00    +0.000 C 
BRANCH  21  22
ATOM     22  C   UNL     1       2.100   4.344  17.664  0.00  0.00    +0.000 C 
BRANCH  22  23
ATOM     23  C   UNL     1       2.144   4.537  19.159  0.00  0.00    +0.000 C 
ATOM     24  O   UNL     1       2.030   5.606  19.739  0.00  0.00    +0.000 OA
BRANCH  23  25
ATOM     25  O   UNL     1       2.434   3.344  19.754  0.00  0.00    +0.000 OA
BRANCH  25  27
ATOM     26  C   UNL     1       1.585   2.649  21.870  0.00  0.00    +0.000 C 
ATOM     27  C   UNL     1       1.315   2.699  20.377  0.00  0.00    +0.000 C 
ENDBRANCH  25  27
ENDBRANCH  23  25
ENDBRANCH  22  23
ENDBRANCH  21  22
ENDBRANCH  20  21
ENDBRANCH  16  20
ENDBRANCH  15  17
ENDBRANCH   1  15
TORSDOF 12
ENDMDL
MODEL 8
REMARK VINA RESULT:      -6.2      3.210      7.401
REMARK  Name = 
REMARK  14 active torsions:
REMARK  status: ('A' for Active; 'I' for Inactive)
REMARK    1  A    between atoms: C_1  and  C_2
REMARK    2  A    between atoms: C_2  and  O_3
REMARK    3  A    between atoms: O_3  and  C_4
REMARK    4  A    between atoms: C_4  and  C_6
REMARK    5  A    between atoms: C_6  and  C_7
REMARK    6  A    between atoms: C_7  and  C_8
REMARK    7  A    between atoms: C_8  and  N_9
REMARK    8  A    between atoms: C_10  and  C_12
REMARK    9  A    between atoms: C_12  and  C_13
REMARK   10  A    between atoms: C_13  and  N_14
REMARK   11  A    between atoms: C_15  and  C_17
REMARK   12  A    between atoms: C_20  and  O_21
REMARK   13  A    between atoms: O_21  and  C_22
REMARK   14  A    between atoms: C_22  and  C_23
REMARK                            x       y       z     vdW  Elec       q    Type
REMARK                         _______ _______ _______ _____ _____    ______ ____
ROOT
ATOM      1  C   UNL     1       1.518   2.770  19.905  0.00  0.00    +0.000 C 
ENDROOT
BRANCH   1   2
ATOM      2  N   UNL     1       1.482   4.184  19.574  0.00  0.00    +0.000 N 
ATOM      3  C   UNL     1       1.974   5.149  20.425  0.00  0.00    +0.000 C 
ATOM      4  O   UNL     1       2.556   4.902  21.475  0.00  0.00    +0.000 OA
ATOM      5  H   UNL     1       1.076   4.452  18.687  0.00  0.00    +0.000 HD
BRANCH   3   6
ATOM      6  C   UNL     1       1.808   6.556  19.983  0.00  0.00    +0.000 A 
ATOM      7  C   UNL     1       1.250   7.531  20.816  0.00  0.00    +0.000 A 
ATOM      8  C   UNL     1       1.109   8.841  20.354  0.00  0.00    +0.000 A 
ATOM      9  C   UNL     1       1.539   9.194  19.071  0.00  0.00    +0.000 A 
ATOM     10  C   UNL     1       2.097   8.222  18.240  0.00  0.00    +0.000 A 
ATOM     11  C   UNL     1       2.238   6.908  18.698  0.00  0.00    +0.000 A 
BRANCH   9  12
ATOM     12  O   UNL     1       1.322  10.500  18.724  0.00  0.00    +0.000 OA
BRANCH  12  13
ATOM     13  C   UNL     1       0.027  11.020  19.023  0.00  0.00    +0.000 C 
ATOM     14  C   UNL     1      -0.943  10.491  17.981  0.00  0.00    +0.000 C 
ENDBRANCH  12  13
ENDBRANCH   9  12
ENDBRANCH   3   6
ENDBRANCH   1   2
BRANCH   1  15
ATOM     15  C   UNL     1       2.912   2.164  19.786  0.00  0.00    +0.000 C 
BRANCH  15  17
ATOM     16  N   UNL     1       4.903   3.416  19.248  0.00  0.00    +0.000 N 
ATOM     17  C   UNL     1       3.726   2.900  18.748  0.00  0.00    +0.000 C 
ATOM     18  O   UNL     1       3.368   3.043  17.582  0.00  0.00    +0.000 OA
ATOM     19  H   UNL     1       5.131   3.273  20.224  0.00  0.00    +0.000 HD
BRANCH  16  20
ATOM     20  C   UNL     1       5.826   4.152  18.411  0.00  0.00    +0.000 C 
BRANCH  20  21
ATOM     21  C   UNL     1       5.768   5.656  18.655  0.00  0.00    +0.000 C 
BRANCH  21  22
ATOM     22  C   UNL     1       5.359   6.434  17.406  0.00  0.00    +0.000 C 
BRANCH  22  23
ATOM     23  C   UNL     1       6.376   6.261  16.306  0.00  0.00    +0.000 C 
ATOM     24  O   UNL     1       7.583   6.415  16.426  0.00  0.00    +0.000 OA
BRANCH  23  25
ATOM     25  O   UNL     1       5.726   6.006  15.135  0.00  0.00    +0.000 OA
BRANCH  25  27
ATOM     26  C   UNL     1       6.280   3.930  14.102  0.00  0.00    +0.000 C 
ATOM     27  C   UNL     1       5.275   4.653  14.982  0.00  0.00    +0.000 C 
ENDBRANCH  25  27
ENDBRANCH  23  25
ENDBRANCH  22  23
ENDBRANCH  21  22
ENDBRANCH  20  21
ENDBRANCH  16  20
ENDBRANCH  15  17
ENDBRANCH   1  15
TORSDOF 12
ENDMDL
MODEL 9
REMARK VINA RESULT:      -6.2      4.328      7.380
REMARK  Name = 
REMARK  14 active torsions:
REMARK  status: ('A' for Active; 'I' for Inactive)
REMARK    1  A    between atoms: C_1  and  C_2
REMARK    2  A    between atoms: C_2  and  O_3
REMARK    3  A    between atoms: O_3  and  C_4
REMARK    4  A    between atoms: C_4  and  C_6
REMARK    5  A    between atoms: C_6  and  C_7
REMARK    6  A    between atoms: C_7  and  C_8
REMARK    7  A    between atoms: C_8  and  N_9
REMARK    8  A    between atoms: C_10  and  C_12
REMARK    9  A    between atoms: C_12  and  C_13
REMARK   10  A    between atoms: C_13  and  N_14
REMARK   11  A    between atoms: C_15  and  C_17
REMARK   12  A    between atoms: C_20  and  O_21
REMARK   13  A    between atoms: O_21  and  C_22
REMARK   14  A    between atoms: C_22  and  C_23
REMARK                            x       y       z     vdW  Elec       q    Type
REMARK                         _______ _______ _______ _____ _____    ______ ____
ROOT
ATOM      1  C   UNL     1       7.918   5.950  18.783  0.00  0.00    +0.000 C 
ENDROOT
BRANCH   1   2
ATOM      2  N   UNL     1       8.316   7.330  19.002  0.00  0.00    +0.000 N 
ATOM      3  C   UNL     1       8.103   8.313  18.059  0.00  0.00    +0.000 C 
ATOM      4  O   UNL     1       7.490   8.134  17.012  0.00  0.00    +0.000 OA
ATOM      5  H   UNL     1       8.766   7.560  19.877  0.00  0.00    +0.000 HD
BRANCH   3   6
ATOM      6  C   UNL     1       8.622   9.662  18.394  0.00  0.00    +0.000 A 
ATOM      7  C   UNL     1       9.442   9.883  19.505  0.00  0.00    +0.000 A 
ATOM      8  C   UNL     1       9.902  11.172  19.783  0.00  0.00    +0.000 A 
ATOM      9  C   UNL     1       9.568  12.243  18.948  0.00  0.00    +0.000 A 
ATOM     10  C   UNL     1       8.752  12.023  17.838  0.00  0.00    +0.000 A 
ATOM     11  C   UNL     1       8.287  10.734  17.557  0.00  0.00    +0.000 A 
BRANCH   9  12
ATOM     12  O   UNL     1      10.056  13.460  19.341  0.00  0.00    +0.000 OA
BRANCH  12  13
ATOM     13  C   UNL     1      11.296  13.438  20.048  0.00  0.00    +0.000 C 
ATOM     14  C   UNL     1      12.319  14.204  19.228  0.00  0.00    +0.000 C 
ENDBRANCH  12  13
ENDBRANCH   9  12
ENDBRANCH   3   6
ENDBRANCH   1   2
BRANCH   1  15
ATOM     15  C   UNL     1       6.533   5.633  19.337  0.00  0.00    +0.000 C 
BRANCH  15  17
ATOM     16  N   UNL     1       4.277   5.117  18.659  0.00  0.00    +0.000 N 
ATOM     17  C   UNL     1       5.556   5.374  18.215  0.00  0.00    +0.000 C 
ATOM     18  O   UNL     1       5.873   5.371  17.029  0.00  0.00    +0.000 OA
ATOM     19  H   UNL     1       4.087   5.121  19.654  0.00  0.00    +0.000 HD
BRANCH  16  20
ATOM     20  C   UNL     1       3.193   4.848  17.738  0.00  0.00    +0.000 C 
BRANCH  20  21
ATOM     21  C   UNL     1       3.270   3.449  17.135  0.00  0.00    +0.000 C 
BRANCH  21  22
ATOM     22  C   UNL     1       3.048   2.353  18.176  0.00  0.00    +0.000 C 
BRANCH  22  23
ATOM     23  C   UNL     1       1.634   2.385  18.699  0.00  0.00    +0.000 C 
ATOM     24  O   UNL     1       0.648   2.719  18.059  0.00  0.00    +0.000 OA
BRANCH  23  25
ATOM     25  O   UNL     1       1.645   2.081  20.029  0.00  0.00    +0.000 OA
BRANCH  25  27
ATOM     26  C   UNL     1       2.331   3.555  21.773  0.00  0.00    +0.000 C 
ATOM     27  C   UNL     1       1.174   3.130  20.886  0.00  0.00    +0.000 C 
ENDBRANCH  25  27
ENDBRANCH  23  25
ENDBRANCH  22  23
ENDBRANCH  21  22
ENDBRANCH  20  21
ENDBRANCH  16  20
ENDBRANCH  15  17
ENDBRANCH   1  15
TORSDOF 12
ENDMDL
