MODEL 1
REMARK VINA RESULT:      -7.5      0.000      0.000
REMARK  Name = 
REMARK  6 active torsions:
REMARK  status: ('A' for Active; 'I' for Inactive)
REMARK    1  A    between atoms: C_2  and  C_3
REMARK    2  A    between atoms: C_3  and  S_4
REMARK    3  A    between atoms: N_5  and  C_6
REMARK    4  A    between atoms: C_6  and  C_7
REMARK    5  A    between atoms: C_7  and  C_8
REMARK    6  A    between atoms: C_7  and  C_14
REMARK                            x       y       z     vdW  Elec       q    Type
REMARK                         _______ _______ _______ _____ _____    ______ ____
ROOT
ATOM      1  C   UNL     1       3.190   6.241  19.286  0.00  0.00    +0.000 C 
ENDROOT
BRANCH   1   2
ATOM      2  C   UNL     1       2.340   7.512  19.194  0.00  0.00    +0.000 A 
ATOM      3  C   UNL     1       2.204   8.201  17.978  0.00  0.00    +0.000 A 
ATOM      4  C   UNL     1       1.453   9.375  17.904  0.00  0.00    +0.000 A 
ATOM      5  C   UNL     1       0.822   9.871  19.042  0.00  0.00    +0.000 A 
ATOM      6  C   UNL     1       0.929   9.186  20.251  0.00  0.00    +0.000 A 
ATOM      7  C   UNL     1       1.681   8.013  20.329  0.00  0.00    +0.000 A 
ENDBRANCH   1   2
BRANCH   1   8
ATOM      8  C   UNL     1       2.316   4.978  19.399  0.00  0.00    +0.000 A 
ATOM      9  C   UNL     1       1.876   4.460  20.631  0.00  0.00    +0.000 A 
ATOM     10  C   UNL     1       1.129   3.280  20.696  0.00  0.00    +0.000 A 
ATOM     11  C   UNL     1       0.801   2.599  19.531  0.00  0.00    +0.000 A 
ATOM     12  C   UNL     1       1.197   3.107  18.297  0.00  0.00    +0.000 A 
ATOM     13  C   UNL     1       1.937   4.291  18.231  0.00  0.00    +0.000 A 
ENDBRANCH   1   8
BRANCH   1  14
ATOM     14  C   UNL     1       4.202   6.183  18.105  0.00  0.00    +0.000 C 
BRANCH  14  17
ATOM     15  N   UNL     1       7.316   4.297  18.038  0.00  0.00    +0.000 NA
ATOM     16  C   UNL     1       6.129   4.661  17.655  0.00  0.00    +0.000 C 
ATOM     17  N   UNL     1       5.483   5.588  18.427  0.00  0.00    +0.000 N 
ATOM     18  H   UNL     1       7.665   3.576  17.391  0.00  0.00    +0.000 HD
ATOM     19  H   UNL     1       6.078   6.055  19.105  0.00  0.00    +0.000 HD
BRANCH  16  20
ATOM     20  C   UNL     1       5.465   4.102  16.392  0.00  0.00    +0.000 C 
BRANCH  20  21
ATOM     21  S   UNL     1       6.451   4.358  14.897  0.00  0.00    +0.000 S 
ATOM     22  H   UNL     1       5.625   5.247  14.326  0.00  0.00    +0.000 HD
ENDBRANCH  20  21
ENDBRANCH  16  20
ENDBRANCH  14  17
ENDBRANCH   1  14
TORSDOF 6
ENDMDL
MODEL 2
REMARK VINA RESULT:      -7.5      0.065      1.109
REMARK  Name = 
REMARK  6 active torsions:
REMARK  status: ('A' for Active; 'I' for Inactive)
REMARK    1  A    between atoms: C_2  and  C_3
REMARK    2  A    between atoms: C_3  and  S_4
REMARK    3  A    between atoms: N_5  and  C_6
REMARK    4  A    between atoms: C_6  and  C_7
REMARK    5  A    between atoms: C_7  and  C_8
REMARK    6  A    between atoms: C_7  and  C_14
REMARK                            x       y       z     vdW  Elec       q    Type
REMARK                         _______ _______ _______ _____ _____    ______ ____
ROOT
ATOM      1  C   UNL     1       3.202   6.263  19.277  0.00  0.00    +0.000 C 
ENDROOT
BRANCH   1   2
ATOM      2  C   UNL     1       2.350   7.533  19.193  0.00  0.00    +0.000 A 
ATOM      3  C   UNL     1       1.715   8.053  20.333  0.00  0.00    +0.000 A 
ATOM      4  C   UNL     1       0.916   9.193  20.246  0.00  0.00    +0.000 A 
ATOM      5  C   UNL     1       0.749   9.836  19.022  0.00  0.00    +0.000 A 
ATOM      6  C   UNL     1       1.391   9.346  17.886  0.00  0.00    +0.000 A 
ATOM      7  C   UNL     1       2.189   8.203  17.968  0.00  0.00    +0.000 A 
ENDBRANCH   1   2
BRANCH   1   8
ATOM      8  C   UNL     1       2.330   5.001  19.415  0.00  0.00    +0.000 A 
ATOM      9  C   UNL     1       1.933   4.477  20.659  0.00  0.00    +0.000 A 
ATOM     10  C   UNL     1       1.187   3.298  20.744  0.00  0.00    +0.000 A 
ATOM     11  C   UNL     1       0.816   2.623  19.588  0.00  0.00    +0.000 A 
ATOM     12  C   UNL     1       1.170   3.137  18.344  0.00  0.00    +0.000 A 
ATOM     13  C   UNL     1       1.909   4.321  18.257  0.00  0.00    +0.000 A 
ENDBRANCH   1   8
BRANCH   1  14
ATOM     14  C   UNL     1       4.191   6.197  18.077  0.00  0.00    +0.000 C 
BRANCH  14  17
ATOM     15  N   UNL     1       7.301   4.306  17.978  0.00  0.00    +0.000 NA
ATOM     16  C   UNL     1       6.104   4.660  17.619  0.00  0.00    +0.000 C 
ATOM     17  N   UNL     1       5.481   5.611  18.381  0.00  0.00    +0.000 N 
ATOM     18  H   UNL     1       7.631   3.566  17.344  0.00  0.00    +0.000 HD
ATOM     19  H   UNL     1       6.095   6.097  19.027  0.00  0.00    +0.000 HD
BRANCH  16  20
ATOM     20  C   UNL     1       5.404   4.064  16.393  0.00  0.00    +0.000 C 
BRANCH  20  21
ATOM     21  S   UNL     1       6.291   4.372  14.846  0.00  0.00    +0.000 S 
ATOM     22  H   UNL     1       6.625   3.095  14.609  0.00  0.00    +0.000 HD
ENDBRANCH  20  21
ENDBRANCH  16  20
ENDBRANCH  14  17
ENDBRANCH   1  14
TORSDOF 6
ENDMDL
MODEL 3
REMARK VINA RESULT:      -7.4      0.510      1.213
REMARK  Name = 
REMARK  6 active torsions:
REMARK  status: ('A' for Active; 'I' for Inactive)
REMARK    1  A    between atoms: C_2  and  C_3
REMARK    2  A    between atoms: C_3  and  S_4
REMARK    3  A    between atoms: N_5  and  C_6
REMARK    4  A    between atoms: C_6  and  C_7
REMARK    5  A    between atoms: C_7  and  C_8
REMARK    6  A    between atoms: C_7  and  C_14
REMARK                            x       y       z     vdW  Elec       q    Type
REMARK                         _______ _______ _______ _____ _____    ______ ____
ROOT
ATOM      1  C   UNL     1       3.343   6.093  19.298  0.00  0.00    +0.000 C 
ENDROOT
BRANCH   1   2
ATOM      2  C   UNL     1       2.510   7.369  19.143  0.00  0.00    +0.000 A 
ATOM      3  C   UNL     1       2.453   8.048  17.915  0.00  0.00    +0.000 A 
ATOM      4  C   UNL     1       1.717   9.226  17.785  0.00  0.00    +0.000 A 
ATOM      5  C   UNL     1       1.021   9.737  18.878  0.00  0.00    +0.000 A 
ATOM      6  C   UNL     1       1.049   9.062  20.097  0.00  0.00    +0.000 A 
ATOM      7  C   UNL     1       1.786   7.885  20.231  0.00  0.00    +0.000 A 
ENDBRANCH   1   2
BRANCH   1   8
ATOM      8  C   UNL     1       2.452   4.844  19.431  0.00  0.00    +0.000 A 
ATOM      9  C   UNL     1       1.924   4.160  18.321  0.00  0.00    +0.000 A 
ATOM     10  C   UNL     1       1.074   3.062  18.483  0.00  0.00    +0.000 A 
ATOM     11  C   UNL     1       0.741   2.621  19.758  0.00  0.00    +0.000 A 
ATOM     12  C   UNL     1       1.276   3.262  20.873  0.00  0.00    +0.000 A 
ATOM     13  C   UNL     1       2.132   4.355  20.711  0.00  0.00    +0.000 A 
ENDBRANCH   1   8
BRANCH   1  14
ATOM     14  C   UNL     1       4.382   5.985  18.145  0.00  0.00    +0.000 C 
BRANCH  14  17
ATOM     15  N   UNL     1       7.629   4.338  18.068  0.00  0.00    +0.000 NA
ATOM     16  C   UNL     1       6.613   5.002  17.606  0.00  0.00    +0.000 C 
ATOM     17  N   UNL     1       5.554   5.190  18.452  0.00  0.00    +0.000 N 
ATOM     18  H   UNL     1       8.329   4.242  17.320  0.00  0.00    +0.000 HD
ATOM     19  H   UNL     1       5.753   4.974  19.424  0.00  0.00    +0.000 HD
BRANCH  16  20
ATOM     20  C   UNL     1       6.582   5.571  16.182  0.00  0.00    +0.000 C 
BRANCH  20  21
ATOM     21  S   UNL     1       6.296   4.309  14.918  0.00  0.00    +0.000 S 
ATOM     22  H   UNL     1       4.959   4.415  14.901  0.00  0.00    +0.000 HD
ENDBRANCH  20  21
ENDBRANCH  16  20
ENDBRANCH  14  17
ENDBRANCH   1  14
TORSDOF 6
ENDMDL
MODEL 4
REMARK VINA RESULT:      -7.3      1.581      1.958
REMARK  Name = 
REMARK  6 active torsions:
REMARK  status: ('A' for Active; 'I' for Inactive)
REMARK    1  A    between atoms: C_2  and  C_3
REMARK    2  A    between atoms: C_3  and  S_4
REMARK    3  A    between atoms: N_5  and  C_6
REMARK    4  A    between atoms: C_6  and  C_7
REMARK    5  A    between atoms: C_7  and  C_8
REMARK    6  A    between atoms: C_7  and  C_14
REMARK                            x       y       z     vdW  Elec       q    Type
REMARK                         _______ _______ _______ _____ _____    ______ ____
ROOT
ATOM      1  C   UNL     1       3.415   5.782  19.630  0.00  0.00    +0.000 C 
ENDROOT
BRANCH   1   2
ATOM      2  C   UNL     1       2.663   7.074  19.296  0.00  0.00    +0.000 A 
ATOM      3  C   UNL     1       2.762   7.659  18.023  0.00  0.00    +0.000 A 
ATOM      4  C   UNL     1       2.100   8.851  17.732  0.00  0.00    +0.000 A 
ATOM      5  C   UNL     1       1.321   9.471  18.706  0.00  0.00    +0.000 A 
ATOM      6  C   UNL     1       1.193   8.891  19.967  0.00  0.00    +0.000 A 
ATOM      7  C   UNL     1       1.857   7.700  20.262  0.00  0.00    +0.000 A 
ENDBRANCH   1   2
BRANCH   1   8
ATOM      8  C   UNL     1       2.481   4.558  19.610  0.00  0.00    +0.000 A 
ATOM      9  C   UNL     1       1.987   3.992  18.420  0.00  0.00    +0.000 A 
ATOM     10  C   UNL     1       1.097   2.914  18.446  0.00  0.00    +0.000 A 
ATOM     11  C   UNL     1       0.689   2.376  19.660  0.00  0.00    +0.000 A 
ATOM     12  C   UNL     1       1.188   2.898  20.850  0.00  0.00    +0.000 A 
ATOM     13  C   UNL     1       2.084   3.971  20.826  0.00  0.00    +0.000 A 
ENDBRANCH   1   8
BRANCH   1  14
ATOM     14  C   UNL     1       4.652   5.624  18.699  0.00  0.00    +0.000 C 
BRANCH  14  17
ATOM     15  N   UNL     1       8.145   5.517  19.722  0.00  0.00    +0.000 NA
ATOM     16  C   UNL     1       7.133   5.756  18.944  0.00  0.00    +0.000 C 
ATOM     17  N   UNL     1       5.901   5.356  19.384  0.00  0.00    +0.000 N 
ATOM     18  H   UNL     1       9.005   5.835  19.254  0.00  0.00    +0.000 HD
ATOM     19  H   UNL     1       5.870   5.102  20.367  0.00  0.00    +0.000 HD
BRANCH  16  20
ATOM     20  C   UNL     1       7.285   6.463  17.593  0.00  0.00    +0.000 C 
BRANCH  20  21
ATOM     21  S   UNL     1       7.839   8.179  17.746  0.00  0.00    +0.000 S 
ATOM     22  H   UNL     1       8.003   8.400  16.433  0.00  0.00    +0.000 HD
ENDBRANCH  20  21
ENDBRANCH  16  20
ENDBRANCH  14  17
ENDBRANCH   1  14
TORSDOF 6
ENDMDL
MODEL 5
REMARK VINA RESULT:      -7.3      0.500      1.639
REMARK  Name = 
REMARK  6 active torsions:
REMARK  status: ('A' for Active; 'I' for Inactive)
REMARK    1  A    between atoms: C_2  and  C_3
REMARK    2  A    between atoms: C_3  and  S_4
REMARK    3  A    between atoms: N_5  and  C_6
REMARK    4  A    between atoms: C_6  and  C_7
REMARK    5  A    between atoms: C_7  and  C_8
REMARK    6  A    between atoms: C_7  and  C_14
REMARK                            x       y       z     vdW  Elec       q    Type
REMARK                         _______ _______ _______ _____ _____    ______ ____
ROOT
ATOM      1  C   UNL     1       3.354   6.075  19.294  0.00  0.00    +0.000 C 
ENDROOT
BRANCH   1   2
ATOM      2  C   UNL     1       2.529   7.359  19.151  0.00  0.00    +0.000 A 
ATOM      3  C   UNL     1       1.802   7.872  20.237  0.00  0.00    +0.000 A 
ATOM      4  C   UNL     1       1.028   9.025  20.095  0.00  0.00    +0.000 A 
ATOM      5  C   UNL     1       0.979   9.685  18.870  0.00  0.00    +0.000 A 
ATOM      6  C   UNL     1       1.714   9.201  17.789  0.00  0.00    +0.000 A 
ATOM      7  C   UNL     1       2.487   8.046  17.927  0.00  0.00    +0.000 A 
ENDBRANCH   1   2
BRANCH   1   8
ATOM      8  C   UNL     1       2.454   4.829  19.393  0.00  0.00    +0.000 A 
ATOM      9  C   UNL     1       1.936   4.168  18.264  0.00  0.00    +0.000 A 
ATOM     10  C   UNL     1       1.078   3.072  18.396  0.00  0.00    +0.000 A 
ATOM     11  C   UNL     1       0.726   2.611  19.659  0.00  0.00    +0.000 A 
ATOM     12  C   UNL     1       1.251   3.228  20.791  0.00  0.00    +0.000 A 
ATOM     13  C   UNL     1       2.115   4.319  20.660  0.00  0.00    +0.000 A 
ENDBRANCH   1   8
BRANCH   1  14
ATOM     14  C   UNL     1       4.406   5.982  18.152  0.00  0.00    +0.000 C 
BRANCH  14  17
ATOM     15  N   UNL     1       7.659   4.346  18.088  0.00  0.00    +0.000 NA
ATOM     16  C   UNL     1       6.631   4.983  17.615  0.00  0.00    +0.000 C 
ATOM     17  N   UNL     1       5.588   5.206  18.472  0.00  0.00    +0.000 N 
ATOM     18  H   UNL     1       8.345   4.218  17.331  0.00  0.00    +0.000 HD
ATOM     19  H   UNL     1       5.806   5.037  19.449  0.00  0.00    +0.000 HD
BRANCH  16  20
ATOM     20  C   UNL     1       6.569   5.485  16.168  0.00  0.00    +0.000 C 
BRANCH  20  21
ATOM     21  S   UNL     1       6.180   4.180  14.978  0.00  0.00    +0.000 S 
ATOM     22  H   UNL     1       7.448   3.905  14.638  0.00  0.00    +0.000 HD
ENDBRANCH  20  21
ENDBRANCH  16  20
ENDBRANCH  14  17
ENDBRANCH   1  14
TORSDOF 6
ENDMDL
MODEL 6
REMARK VINA RESULT:      -7.3      1.595      1.626
REMARK  Name = 
REMARK  6 active torsions:
REMARK  status: ('A' for Active; 'I' for Inactive)
REMARK    1  A    between atoms: C_2  and  C_3
REMARK    2  A    between atoms: C_3  and  S_4
REMARK    3  A    between atoms: N_5  and  C_6
REMARK    4  A    between atoms: C_6  and  C_7
REMARK    5  A    between atoms: C_7  and  C_8
REMARK    6  A    between atoms: C_7  and  C_14
REMARK                            x       y       z     vdW  Elec       q    Type
REMARK                         _______ _______ _______ _____ _____    ______ ____
ROOT
ATOM      1  C   UNL     1       3.362   5.798  19.507  0.00  0.00    +0.000 C 
ENDROOT
BRANCH   1   2
ATOM      2  C   UNL     1       2.588   7.101  19.282  0.00  0.00    +0.000 A 
ATOM      3  C   UNL     1       2.575   7.724  18.024  0.00  0.00    +0.000 A 
ATOM      4  C   UNL     1       1.894   8.926  17.831  0.00  0.00    +0.000 A 
ATOM      5  C   UNL     1       1.208   9.517  18.890  0.00  0.00    +0.000 A 
ATOM      6  C   UNL     1       1.192   8.899  20.139  0.00  0.00    +0.000 A 
ATOM      7  C   UNL     1       1.875   7.697  20.336  0.00  0.00    +0.000 A 
ENDBRANCH   1   2
BRANCH   1   8
ATOM      8  C   UNL     1       2.476   4.561  19.266  0.00  0.00    +0.000 A 
ATOM      9  C   UNL     1       1.455   4.167  20.151  0.00  0.00    +0.000 A 
ATOM     10  C   UNL     1       0.709   3.007  19.926  0.00  0.00    +0.000 A 
ATOM     11  C   UNL     1       0.963   2.221  18.808  0.00  0.00    +0.000 A 
ATOM     12  C   UNL     1       1.946   2.606  17.901  0.00  0.00    +0.000 A 
ATOM     13  C   UNL     1       2.688   3.770  18.122  0.00  0.00    +0.000 A 
ENDBRANCH   1   8
BRANCH   1  14
ATOM     14  C   UNL     1       4.666   5.793  18.658  0.00  0.00    +0.000 C 
BRANCH  14  17
ATOM     15  N   UNL     1       8.108   5.412  19.782  0.00  0.00    +0.000 NA
ATOM     16  C   UNL     1       7.141   5.710  18.967  0.00  0.00    +0.000 C 
ATOM     17  N   UNL     1       5.867   5.441  19.387  0.00  0.00    +0.000 N 
ATOM     18  H   UNL     1       9.004   5.633  19.327  0.00  0.00    +0.000 HD
ATOM     19  H   UNL     1       5.789   5.228  20.377  0.00  0.00    +0.000 HD
BRANCH  16  20
ATOM     20  C   UNL     1       7.390   6.349  17.596  0.00  0.00    +0.000 C 
BRANCH  20  21
ATOM     21  S   UNL     1       7.715   8.126  17.687  0.00  0.00    +0.000 S 
ATOM     22  H   UNL     1       8.988   8.023  18.097  0.00  0.00    +0.000 HD
ENDBRANCH  20  21
ENDBRANCH  16  20
ENDBRANCH  14  17
ENDBRANCH   1  14
TORSDOF 6
ENDMDL
MODEL 7
REMARK VINA RESULT:      -7.2      1.201      2.009
REMARK  Name = 
REMARK  6 active torsions:
REMARK  status: ('A' for Active; 'I' for Inactive)
REMARK    1  A    between atoms: C_2  and  C_3
REMARK    2  A    between atoms: C_3  and  S_4
REMARK    3  A    between atoms: N_5  and  C_6
REMARK    4  A    between atoms: C_6  and  C_7
REMARK    5  A    between atoms: C_7  and  C_8
REMARK    6  A    between atoms: C_7  and  C_14
REMARK                            x       y       z     vdW  Elec       q    Type
REMARK                         _______ _______ _______ _____ _____    ______ ____
ROOT
ATOM      1  C   UNL     1       3.329   6.066  19.265  0.00  0.00    +0.000 C 
ENDROOT
BRANCH   1   2
ATOM      2  C   UNL     1       2.507   7.354  19.157  0.00  0.00    +0.000 A 
ATOM      3  C   UNL     1       1.795   7.850  20.262  0.00  0.00    +0.000 A 
ATOM      4  C   UNL     1       1.023   9.006  20.151  0.00  0.00    +0.000 A 
ATOM      5  C   UNL     1       0.960   9.689  18.939  0.00  0.00    +0.000 A 
ATOM      6  C   UNL     1       1.680   9.223  17.841  0.00  0.00    +0.000 A 
ATOM      7  C   UNL     1       2.451   8.064  17.947  0.00  0.00    +0.000 A 
ENDBRANCH   1   2
BRANCH   1   8
ATOM      8  C   UNL     1       2.428   4.825  19.406  0.00  0.00    +0.000 A 
ATOM      9  C   UNL     1       1.841   4.177  18.304  0.00  0.00    +0.000 A 
ATOM     10  C   UNL     1       0.984   3.086  18.476  0.00  0.00    +0.000 A 
ATOM     11  C   UNL     1       0.702   2.617  19.753  0.00  0.00    +0.000 A 
ATOM     12  C   UNL     1       1.295   3.221  20.858  0.00  0.00    +0.000 A 
ATOM     13  C   UNL     1       2.158   4.307  20.686  0.00  0.00    +0.000 A 
ENDBRANCH   1   8
BRANCH   1  14
ATOM     14  C   UNL     1       4.330   5.965  18.078  0.00  0.00    +0.000 C 
BRANCH  14  17
ATOM     15  N   UNL     1       7.576   4.316  18.113  0.00  0.00    +0.000 NA
ATOM     16  C   UNL     1       6.682   5.189  17.761  0.00  0.00    +0.000 C 
ATOM     17  N   UNL     1       5.425   5.037  18.279  0.00  0.00    +0.000 N 
ATOM     18  H   UNL     1       8.457   4.529  17.625  0.00  0.00    +0.000 HD
ATOM     19  H   UNL     1       5.367   4.380  19.051  0.00  0.00    +0.000 HD
BRANCH  16  20
ATOM     20  C   UNL     1       6.999   6.356  16.819  0.00  0.00    +0.000 C 
BRANCH  20  21
ATOM     21  S   UNL     1       7.692   7.793  17.673  0.00  0.00    +0.000 S 
ATOM     22  H   UNL     1       8.944   7.319  17.767  0.00  0.00    +0.000 HD
ENDBRANCH  20  21
ENDBRANCH  16  20
ENDBRANCH  14  17
ENDBRANCH   1  14
TORSDOF 6
ENDMDL
MODEL 8
REMARK VINA RESULT:      -7.2      3.088      5.094
REMARK  Name = 
REMARK  6 active torsions:
REMARK  status: ('A' for Active; 'I' for Inactive)
REMARK    1  A    between atoms: C_2  and  C_3
REMARK    2  A    between atoms: C_3  and  S_4
REMARK    3  A    between atoms: N_5  and  C_6
REMARK    4  A    between atoms: C_6  and  C_7
REMARK    5  A    between atoms: C_7  and  C_8
REMARK    6  A    between atoms: C_7  and  C_14
REMARK                            x       y       z     vdW  Elec       q    Type
REMARK                         _______ _______ _______ _____ _____    ______ ____
ROOT
ATOM      1  C   UNL     1       2.751   6.039  18.066  0.00  0.00    +0.000 C 
ENDROOT
BRANCH   1   2
ATOM      2  C   UNL     1       4.269   5.879  17.937  0.00  0.00    +0.000 A 
ATOM      3  C   UNL     1       4.922   6.146  16.722  0.00  0.00    +0.000 A 
ATOM      4  C   UNL     1       6.300   5.970  16.600  0.00  0.00    +0.000 A 
ATOM      5  C   UNL     1       7.047   5.535  17.693  0.00  0.00    +0.000 A 
ATOM      6  C   UNL     1       6.417   5.288  18.911  0.00  0.00    +0.000 A 
ATOM      7  C   UNL     1       5.037   5.460  19.036  0.00  0.00    +0.000 A 
ENDBRANCH   1   2
BRANCH   1   8
ATOM      8  C   UNL     1       2.097   4.790  18.687  0.00  0.00    +0.000 A 
ATOM      9  C   UNL     1       1.629   4.751  20.013  0.00  0.00    +0.000 A 
ATOM     10  C   UNL     1       1.092   3.581  20.558  0.00  0.00    +0.000 A 
ATOM     11  C   UNL     1       1.004   2.429  19.786  0.00  0.00    +0.000 A 
ATOM     12  C   UNL     1       1.432   2.451  18.461  0.00  0.00    +0.000 A 
ATOM     13  C   UNL     1       1.962   3.622  17.913  0.00  0.00    +0.000 A 
ENDBRANCH   1   8
BRANCH   1  14
ATOM     14  C   UNL     1       2.411   7.352  18.828  0.00  0.00    +0.000 C 
BRANCH  14  17
ATOM     15  N   UNL     1       2.102  10.737  17.522  0.00  0.00    +0.000 NA
ATOM     16  C   UNL     1       1.812   9.708  18.259  0.00  0.00    +0.000 C 
ATOM     17  N   UNL     1       2.528   8.563  18.040  0.00  0.00    +0.000 N 
ATOM     18  H   UNL     1       1.468  11.510  17.768  0.00  0.00    +0.000 HD
ATOM     19  H   UNL     1       3.357   8.691  17.468  0.00  0.00    +0.000 HD
BRANCH  16  20
ATOM     20  C   UNL     1       0.728   9.753  19.343  0.00  0.00    +0.000 C 
BRANCH  20  21
ATOM     21  S   UNL     1      -0.811  10.519  18.778  0.00  0.00    +0.000 S 
ATOM     22  H   UNL     1      -0.396  10.782  17.530  0.00  0.00    +0.000 HD
ENDBRANCH  20  21
ENDBRANCH  16  20
ENDBRANCH  14  17
ENDBRANCH   1  14
TORSDOF 6
ENDMDL
MODEL 9
REMARK VINA RESULT:      -7.2      3.187      5.264
REMARK  Name = 
REMARK  6 active torsions:
REMARK  status: ('A' for Active; 'I' for Inactive)
REMARK    1  A    between atoms: C_2  and  C_3
REMARK    2  A    between atoms: C_3  and  S_4
REMARK    3  A    between atoms: N_5  and  C_6
REMARK    4  A    between atoms: C_6  and  C_7
REMARK    5  A    between atoms: C_7  and  C_8
REMARK    6  A    between atoms: C_7  and  C_14
REMARK                            x       y       z     vdW  Elec       q    Type
REMARK                         _______ _______ _______ _____ _____    ______ ____
ROOT
ATOM      1  C   UNL     1       3.258   5.982  17.795  0.00  0.00    +0.000 C 
ENDROOT
BRANCH   1   2
ATOM      2  C   UNL     1       4.777   5.992  17.991  0.00  0.00    +0.000 A 
ATOM      3  C   UNL     1       5.625   6.567  17.030  0.00  0.00    +0.000 A 
ATOM      4  C   UNL     1       7.009   6.547  17.197  0.00  0.00    +0.000 A 
ATOM      5  C   UNL     1       7.566   5.963  18.333  0.00  0.00    +0.000 A 
ATOM      6  C   UNL     1       6.737   5.410  19.307  0.00  0.00    +0.000 A 
ATOM      7  C   UNL     1       5.351   5.424  19.141  0.00  0.00    +0.000 A 
ENDBRANCH   1   2
BRANCH   1   8
ATOM      8  C   UNL     1       2.648   4.612  18.146  0.00  0.00    +0.000 A 
ATOM      9  C   UNL     1       2.945   3.437  17.432  0.00  0.00    +0.000 A 
ATOM     10  C   UNL     1       2.329   2.223  17.747  0.00  0.00    +0.000 A 
ATOM     11  C   UNL     1       1.408   2.157  18.786  0.00  0.00    +0.000 A 
ATOM     12  C   UNL     1       1.120   3.299  19.528  0.00  0.00    +0.000 A 
ATOM     13  C   UNL     1       1.742   4.513  19.219  0.00  0.00    +0.000 A 
ENDBRANCH   1   8
BRANCH   1  14
ATOM     14  C   UNL     1       2.607   7.162  18.574  0.00  0.00    +0.000 C 
BRANCH  14  17
ATOM     15  N   UNL     1       1.958  10.589  17.529  0.00  0.00    +0.000 NA
ATOM     16  C   UNL     1       1.851   9.520  18.259  0.00  0.00    +0.000 C 
ATOM     17  N   UNL     1       2.530   8.409  17.839  0.00  0.00    +0.000 N 
ATOM     18  H   UNL     1       1.372  11.330  17.940  0.00  0.00    +0.000 HD
ATOM     19  H   UNL     1       3.218   8.588  17.115  0.00  0.00    +0.000 HD
BRANCH  16  20
ATOM     20  C   UNL     1       1.017   9.483  19.545  0.00  0.00    +0.000 C 
BRANCH  20  21
ATOM     21  S   UNL     1       0.405  11.111  20.043  0.00  0.00    +0.000 S 
ATOM     22  H   UNL     1       1.136  11.207  21.164  0.00  0.00    +0.000 HD
ENDBRANCH  20  21
ENDBRANCH  16  20
ENDBRANCH  14  17
ENDBRANCH   1  14
TORSDOF 6
ENDMDL
