MODEL 1
REMARK VINA RESULT:      -8.9      0.000      0.000
REMARK  Name = 
REMARK  8 active torsions:
REMARK  status: ('A' for Active; 'I' for Inactive)
REMARK    1  A    between atoms: C_1  and  C_2
REMARK    2  A    between atoms: N_4  and  C_5
REMARK    3  A    between atoms: C_8  and  O_9
REMARK    4  A    between atoms: O_9  and  C_10
REMARK    5  A    between atoms: C_10  and  C_11
REMARK    6  A    between atoms: C_17  and  C_18
REMARK    7  A    between atoms: N_20  and  C_21
REMARK    8  A    between atoms: C_29  and  C_30
REMARK                            x       y       z     vdW  Elec       q    Type
REMARK                         _______ _______ _______ _____ _____    ______ ____
ROOT
ATOM      1  C   UNL     1       1.227   9.212  19.254  0.00  0.00    +0.000 A 
ATOM      2  C   UNL     1       0.672   8.856  20.483  0.00  0.00    +0.000 A 
ATOM      3  C   UNL     1       0.992   7.662  21.074  0.00  0.00    +0.000 A 
ATOM      4  C   UNL     1       1.890   6.745  20.521  0.00  0.00    +0.000 A 
ATOM      5  C   UNL     1       2.568   7.113  19.325  0.00  0.00    +0.000 A 
ATOM      6  C   UNL     1       2.153   8.322  18.697  0.00  0.00    +0.000 A 
ENDROOT
BRANCH   1  10
ATOM      7  C   UNL     1       1.819  12.842  20.517  0.00  0.00    +0.000 C 
ATOM      8  C   UNL     1       1.438  12.764  19.042  0.00  0.00    +0.000 C 
ATOM      9  C   UNL     1       1.872  11.450  18.375  0.00  0.00    +0.000 C 
ATOM     10  N   UNL     1       0.898  10.393  18.644  0.00  0.00    +0.000 N 
ATOM     11  C   UNL     1      -0.467  10.722  18.238  0.00  0.00    +0.000 C 
ATOM     12  C   UNL     1      -0.907  12.039  18.914  0.00  0.00    +0.000 C 
ATOM     13  C   UNL     1      -1.386  11.827  20.347  0.00  0.00    +0.000 C 
ATOM     14  O   UNL     1       0.058  13.105  18.814  0.00  0.00    +0.000 OA
ENDBRANCH   1  10
BRANCH   5  15
ATOM     15  C   UNL     1       3.720   6.403  18.654  0.00  0.00    +0.000 C 
ATOM     16  O   UNL     1       4.501   5.704  19.348  0.00  0.00    +0.000 OA
ATOM     17  N   UNL     1       3.952   6.560  17.301  0.00  0.00    +0.000 N 
ATOM     18  H   UNL     1       3.683   7.472  16.938  0.00  0.00    +0.000 HD
BRANCH  17  19
ATOM     19  C   UNL     1       5.093   5.941  16.726  0.00  0.00    +0.000 A 
ATOM     20  C   UNL     1       4.989   4.681  16.158  0.00  0.00    +0.000 A 
ATOM     21  C   UNL     1       6.134   4.101  15.642  0.00  0.00    +0.000 A 
ATOM     22  N   UNL     1       7.338   4.709  15.679  0.00  0.00    +0.000 NA
ATOM     23  N   UNL     1       7.447   5.950  16.226  0.00  0.00    +0.000 NA
ATOM     24  C   UNL     1       6.342   6.552  16.731  0.00  0.00    +0.000 A 
ENDBRANCH  17  19
ENDBRANCH   5  15
BRANCH   4  25
ATOM     25  O   UNL     1       2.026   5.527  21.192  0.00  0.00    +0.000 OA
BRANCH  25  26
ATOM     26  C   UNL     1       1.245   4.479  20.540  0.00  0.00    +0.000 C 
BRANCH  26  27
ATOM     27  C   UNL     1       1.979   3.459  19.721  0.00  0.00    +0.000 A 
ATOM     28  C   UNL     1       3.033   2.701  20.222  0.00  0.00    +0.000 A 
ATOM     29  C   UNL     1       3.749   1.881  19.358  0.00  0.00    +0.000 A 
ATOM     30  C   UNL     1       3.416   1.806  18.002  0.00  0.00    +0.000 A 
ATOM     31  C   UNL     1       2.348   2.540  17.500  0.00  0.00    +0.000 A 
ATOM     32  C   UNL     1       1.629   3.360  18.357  0.00  0.00    +0.000 A 
ENDBRANCH  26  27
ENDBRANCH  25  26
ENDBRANCH   4  25
TORSDOF 6
ENDMDL
MODEL 2
REMARK VINA RESULT:      -8.6      0.964      1.326
REMARK  Name = 
REMARK  8 active torsions:
REMARK  status: ('A' for Active; 'I' for Inactive)
REMARK    1  A    between atoms: C_1  and  C_2
REMARK    2  A    between atoms: N_4  and  C_5
REMARK    3  A    between atoms: C_8  and  O_9
REMARK    4  A    between atoms: O_9  and  C_10
REMARK    5  A    between atoms: C_10  and  C_11
REMARK    6  A    between atoms: C_17  and  C_18
REMARK    7  A    between atoms: N_20  and  C_21
REMARK    8  A    between atoms: C_29  and  C_30
REMARK                            x       y       z     vdW  Elec       q    Type
REMARK                         _______ _______ _______ _____ _____    ______ ____
ROOT
ATOM      1  C   UNL     1       0.741   9.697  19.455  0.00  0.00    +0.000 A 
ATOM      2  C   UNL     1       0.522   9.142  20.716  0.00  0.00    +0.000 A 
ATOM      3  C   UNL     1       1.109   7.955  21.067  0.00  0.00    +0.000 A 
ATOM      4  C   UNL     1       1.966   7.240  20.225  0.00  0.00    +0.000 A 
ATOM      5  C   UNL     1       2.310   7.822  18.973  0.00  0.00    +0.000 A 
ATOM      6  C   UNL     1       1.620   9.013  18.607  0.00  0.00    +0.000 A 
ENDROOT
BRANCH   1  10
ATOM      7  C   UNL     1       1.419  13.288  20.784  0.00  0.00    +0.000 C 
ATOM      8  C   UNL     1       0.593  13.258  19.502  0.00  0.00    +0.000 C 
ATOM      9  C   UNL     1       0.893  12.037  18.619  0.00  0.00    +0.000 C 
ATOM     10  N   UNL     1       0.143  10.871  19.086  0.00  0.00    +0.000 N 
ATOM     11  C   UNL     1      -1.302  11.082  19.159  0.00  0.00    +0.000 C 
ATOM     12  C   UNL     1      -1.605  12.305  20.051  0.00  0.00    +0.000 C 
ATOM     13  C   UNL     1      -1.582  11.961  21.538  0.00  0.00    +0.000 C 
ATOM     14  O   UNL     1      -0.809  13.469  19.748  0.00  0.00    +0.000 OA
ENDBRANCH   1  10
BRANCH   5  15
ATOM     15  C   UNL     1       3.361   7.361  17.991  0.00  0.00    +0.000 C 
ATOM     16  O   UNL     1       3.345   7.808  16.816  0.00  0.00    +0.000 OA
ATOM     17  N   UNL     1       4.301   6.417  18.358  0.00  0.00    +0.000 N 
ATOM     18  H   UNL     1       3.965   5.743  19.042  0.00  0.00    +0.000 HD
BRANCH  17  19
ATOM     19  C   UNL     1       5.221   5.952  17.381  0.00  0.00    +0.000 A 
ATOM     20  C   UNL     1       4.938   4.810  16.647  0.00  0.00    +0.000 A 
ATOM     21  C   UNL     1       5.879   4.373  15.732  0.00  0.00    +0.000 A 
ATOM     22  N   UNL     1       7.053   5.008  15.536  0.00  0.00    +0.000 NA
ATOM     23  N   UNL     1       7.334   6.134  16.246  0.00  0.00    +0.000 NA
ATOM     24  C   UNL     1       6.429   6.597  17.143  0.00  0.00    +0.000 A 
ENDBRANCH  17  19
ENDBRANCH   5  15
BRANCH   4  25
ATOM     25  O   UNL     1       2.397   5.994  20.690  0.00  0.00    +0.000 OA
BRANCH  25  26
ATOM     26  C   UNL     1       1.575   4.918  20.143  0.00  0.00    +0.000 C 
BRANCH  26  27
ATOM     27  C   UNL     1       2.261   3.826  19.376  0.00  0.00    +0.000 A 
ATOM     28  C   UNL     1       1.785   3.339  18.162  0.00  0.00    +0.000 A 
ATOM     29  C   UNL     1       2.400   2.233  17.588  0.00  0.00    +0.000 A 
ATOM     30  C   UNL     1       3.489   1.616  18.211  0.00  0.00    +0.000 A 
ATOM     31  C   UNL     1       3.986   2.113  19.410  0.00  0.00    +0.000 A 
ATOM     32  C   UNL     1       3.377   3.217  19.988  0.00  0.00    +0.000 A 
ENDBRANCH  26  27
ENDBRANCH  25  26
ENDBRANCH   4  25
TORSDOF 6
ENDMDL
MODEL 3
REMARK VINA RESULT:      -8.4      0.768      1.068
REMARK  Name = 
REMARK  8 active torsions:
REMARK  status: ('A' for Active; 'I' for Inactive)
REMARK    1  A    between atoms: C_1  and  C_2
REMARK    2  A    between atoms: N_4  and  C_5
REMARK    3  A    between atoms: C_8  and  O_9
REMARK    4  A    between atoms: O_9  and  C_10
REMARK    5  A    between atoms: C_10  and  C_11
REMARK    6  A    between atoms: C_17  and  C_18
REMARK    7  A    between atoms: N_20  and  C_21
REMARK    8  A    between atoms: C_29  and  C_30
REMARK                            x       y       z     vdW  Elec       q    Type
REMARK                         _______ _______ _______ _____ _____    ______ ____
ROOT
ATOM      1  C   UNL     1       1.057   9.244  19.739  0.00  0.00    +0.000 A 
ATOM      2  C   UNL     1       0.497   8.726  20.906  0.00  0.00    +0.000 A 
ATOM      3  C   UNL     1       0.830   7.471  21.343  0.00  0.00    +0.000 A 
ATOM      4  C   UNL     1       1.748   6.645  20.687  0.00  0.00    +0.000 A 
ATOM      5  C   UNL     1       2.432   7.174  19.556  0.00  0.00    +0.000 A 
ATOM      6  C   UNL     1       2.003   8.447  19.084  0.00  0.00    +0.000 A 
ENDROOT
BRANCH   1  10
ATOM      7  C   UNL     1      -1.312  11.862  21.370  0.00  0.00    +0.000 C 
ATOM      8  C   UNL     1      -0.458  12.432  20.242  0.00  0.00    +0.000 C 
ATOM      9  C   UNL     1       0.886  11.705  20.077  0.00  0.00    +0.000 C 
ATOM     10  N   UNL     1       0.715  10.489  19.282  0.00  0.00    +0.000 N 
ATOM     11  C   UNL     1       0.113  10.713  17.970  0.00  0.00    +0.000 C 
ATOM     12  C   UNL     1      -1.241  11.437  18.136  0.00  0.00    +0.000 C 
ATOM     13  C   UNL     1      -2.374  10.479  18.490  0.00  0.00    +0.000 C 
ATOM     14  O   UNL     1      -1.196  12.578  19.016  0.00  0.00    +0.000 OA
ENDBRANCH   1  10
BRANCH   5  15
ATOM     15  C   UNL     1       3.602   6.573  18.814  0.00  0.00    +0.000 C 
ATOM     16  O   UNL     1       4.322   5.718  19.388  0.00  0.00    +0.000 OA
ATOM     17  N   UNL     1       3.915   6.994  17.535  0.00  0.00    +0.000 N 
ATOM     18  H   UNL     1       3.691   7.970  17.355  0.00  0.00    +0.000 HD
BRANCH  17  19
ATOM     19  C   UNL     1       5.071   6.463  16.904  0.00  0.00    +0.000 A 
ATOM     20  C   UNL     1       4.966   5.350  16.085  0.00  0.00    +0.000 A 
ATOM     21  C   UNL     1       6.124   4.844  15.520  0.00  0.00    +0.000 A 
ATOM     22  N   UNL     1       7.339   5.387  15.742  0.00  0.00    +0.000 NA
ATOM     23  N   UNL     1       7.448   6.486  16.537  0.00  0.00    +0.000 NA
ATOM     24  C   UNL     1       6.332   7.013  17.098  0.00  0.00    +0.000 A 
ENDBRANCH  17  19
ENDBRANCH   5  15
BRANCH   4  25
ATOM     25  O   UNL     1       1.898   5.353  21.199  0.00  0.00    +0.000 OA
BRANCH  25  26
ATOM     26  C   UNL     1       1.144   4.385  20.406  0.00  0.00    +0.000 C 
BRANCH  26  27
ATOM     27  C   UNL     1       1.908   3.470  19.496  0.00  0.00    +0.000 A 
ATOM     28  C   UNL     1       2.872   2.577  19.957  0.00  0.00    +0.000 A 
ATOM     29  C   UNL     1       3.632   1.867  19.035  0.00  0.00    +0.000 A 
ATOM     30  C   UNL     1       3.433   2.035  17.661  0.00  0.00    +0.000 A 
ATOM     31  C   UNL     1       2.455   2.906  17.195  0.00  0.00    +0.000 A 
ATOM     32  C   UNL     1       1.693   3.617  18.110  0.00  0.00    +0.000 A 
ENDBRANCH  26  27
ENDBRANCH  25  26
ENDBRANCH   4  25
TORSDOF 6
ENDMDL
MODEL 4
REMARK VINA RESULT:      -8.2      1.011      1.206
REMARK  Name = 
REMARK  8 active torsions:
REMARK  status: ('A' for Active; 'I' for Inactive)
REMARK    1  A    between atoms: C_1  and  C_2
REMARK    2  A    between atoms: N_4  and  C_5
REMARK    3  A    between atoms: C_8  and  O_9
REMARK    4  A    between atoms: O_9  and  C_10
REMARK    5  A    between atoms: C_10  and  C_11
REMARK    6  A    between atoms: C_17  and  C_18
REMARK    7  A    between atoms: N_20  and  C_21
REMARK    8  A    between atoms: C_29  and  C_30
REMARK                            x       y       z     vdW  Elec       q    Type
REMARK                         _______ _______ _______ _____ _____    ______ ____
ROOT
ATOM      1  C   UNL     1       0.895   9.589  19.443  0.00  0.00    +0.000 A 
ATOM      2  C   UNL     1       0.519   9.115  20.700  0.00  0.00    +0.000 A 
ATOM      3  C   UNL     1       0.976   7.907  21.156  0.00  0.00    +0.000 A 
ATOM      4  C   UNL     1       1.846   7.088  20.430  0.00  0.00    +0.000 A 
ATOM      5  C   UNL     1       2.347   7.579  19.192  0.00  0.00    +0.000 A 
ATOM      6  C   UNL     1       1.791   8.799  18.712  0.00  0.00    +0.000 A 
ENDROOT
BRANCH   1  10
ATOM      7  C   UNL     1       1.607  13.171  20.778  0.00  0.00    +0.000 C 
ATOM      8  C   UNL     1       0.965  13.153  19.394  0.00  0.00    +0.000 C 
ATOM      9  C   UNL     1       1.307  11.889  18.588  0.00  0.00    +0.000 C 
ATOM     10  N   UNL     1       0.428  10.785  18.970  0.00  0.00    +0.000 N 
ATOM     11  C   UNL     1      -0.997  11.083  18.836  0.00  0.00    +0.000 C 
ATOM     12  C   UNL     1      -1.342  12.348  19.652  0.00  0.00    +0.000 C 
ATOM     13  C   UNL     1      -1.546  12.047  21.134  0.00  0.00    +0.000 C 
ATOM     14  O   UNL     1      -0.441  13.453  19.438  0.00  0.00    +0.000 OA
ENDBRANCH   1  10
BRANCH   5  15
ATOM     15  C   UNL     1       3.443   6.992  18.335  0.00  0.00    +0.000 C 
ATOM     16  O   UNL     1       3.700   7.514  17.221  0.00  0.00    +0.000 OA
ATOM     17  N   UNL     1       4.124   5.859  18.740  0.00  0.00    +0.000 N 
ATOM     18  H   UNL     1       3.563   5.217  19.296  0.00  0.00    +0.000 HD
BRANCH  17  19
ATOM     19  C   UNL     1       5.090   5.293  17.868  0.00  0.00    +0.000 A 
ATOM     20  C   UNL     1       6.441   5.414  18.154  0.00  0.00    +0.000 A 
ATOM     21  C   UNL     1       7.348   4.878  17.257  0.00  0.00    +0.000 A 
ATOM     22  N   UNL     1       6.969   4.256  16.122  0.00  0.00    +0.000 NA
ATOM     23  N   UNL     1       5.645   4.126  15.838  0.00  0.00    +0.000 NA
ATOM     24  C   UNL     1       4.728   4.629  16.701  0.00  0.00    +0.000 A 
ENDBRANCH  17  19
ENDBRANCH   5  15
BRANCH   4  25
ATOM     25  O   UNL     1       2.132   5.838  20.986  0.00  0.00    +0.000 OA
BRANCH  25  26
ATOM     26  C   UNL     1       1.307   4.795  20.383  0.00  0.00    +0.000 C 
BRANCH  26  27
ATOM     27  C   UNL     1       2.000   3.622  19.755  0.00  0.00    +0.000 A 
ATOM     28  C   UNL     1       3.085   2.980  20.344  0.00  0.00    +0.000 A 
ATOM     29  C   UNL     1       3.757   1.993  19.632  0.00  0.00    +0.000 A 
ATOM     30  C   UNL     1       3.348   1.637  18.343  0.00  0.00    +0.000 A 
ATOM     31  C   UNL     1       2.249   2.255  17.759  0.00  0.00    +0.000 A 
ATOM     32  C   UNL     1       1.574   3.241  18.465  0.00  0.00    +0.000 A 
ENDBRANCH  26  27
ENDBRANCH  25  26
ENDBRANCH   4  25
TORSDOF 6
ENDMDL
MODEL 5
REMARK VINA RESULT:      -7.8      2.807      8.932
REMARK  Name = 
REMARK  8 active torsions:
REMARK  status: ('A' for Active; 'I' for Inactive)
REMARK    1  A    between atoms: C_1  and  C_2
REMARK    2  A    between atoms: N_4  and  C_5
REMARK    3  A    between atoms: C_8  and  O_9
REMARK    4  A    between atoms: O_9  and  C_10
REMARK    5  A    between atoms: C_10  and  C_11
REMARK    6  A    between atoms: C_17  and  C_18
REMARK    7  A    between atoms: N_20  and  C_21
REMARK    8  A    between atoms: C_29  and  C_30
REMARK                            x       y       z     vdW  Elec       q    Type
REMARK                         _______ _______ _______ _____ _____    ______ ____
ROOT
ATOM      1  C   UNL     1       2.258   7.130  19.542  0.00  0.00    +0.000 A 
ATOM      2  C   UNL     1       2.206   7.390  18.172  0.00  0.00    +0.000 A 
ATOM      3  C   UNL     1       1.548   8.493  17.695  0.00  0.00    +0.000 A 
ATOM      4  C   UNL     1       0.916   9.429  18.518  0.00  0.00    +0.000 A 
ATOM      5  C   UNL     1       1.038   9.269  19.927  0.00  0.00    +0.000 A 
ATOM      6  C   UNL     1       1.658   8.072  20.386  0.00  0.00    +0.000 A 
ENDROOT
BRANCH   1  10
ATOM      7  C   UNL     1       3.473   3.986  17.603  0.00  0.00    +0.000 C 
ATOM      8  C   UNL     1       4.044   4.091  19.014  0.00  0.00    +0.000 C 
ATOM      9  C   UNL     1       4.173   5.541  19.505  0.00  0.00    +0.000 C 
ATOM     10  N   UNL     1       2.894   6.020  20.028  0.00  0.00    +0.000 N 
ATOM     11  C   UNL     1       2.335   5.189  21.092  0.00  0.00    +0.000 C 
ATOM     12  C   UNL     1       2.198   3.732  20.596  0.00  0.00    +0.000 C 
ATOM     13  C   UNL     1       0.936   3.516  19.766  0.00  0.00    +0.000 C 
ATOM     14  O   UNL     1       3.376   3.218  19.942  0.00  0.00    +0.000 OA
ENDBRANCH   1  10
BRANCH   5  15
ATOM     15  C   UNL     1       0.635  10.241  21.011  0.00  0.00    +0.000 C 
ATOM     16  O   UNL     1       0.986  10.020  22.197  0.00  0.00    +0.000 OA
ATOM     17  N   UNL     1      -0.157  11.335  20.717  0.00  0.00    +0.000 N 
ATOM     18  H   UNL     1      -0.813  11.177  19.955  0.00  0.00    +0.000 HD
BRANCH  17  19
ATOM     19  C   UNL     1      -0.579  12.178  21.778  0.00  0.00    +0.000 A 
ATOM     20  C   UNL     1      -1.652  11.810  22.574  0.00  0.00    +0.000 A 
ATOM     21  C   UNL     1      -2.052  12.679  23.573  0.00  0.00    +0.000 A 
ATOM     22  N   UNL     1      -1.445  13.864  23.793  0.00  0.00    +0.000 NA
ATOM     23  N   UNL     1      -0.385  14.228  23.022  0.00  0.00    +0.000 NA
ATOM     24  C   UNL     1       0.040  13.395  22.041  0.00  0.00    +0.000 A 
ENDBRANCH  17  19
ENDBRANCH   5  15
BRANCH   4  25
ATOM     25  O   UNL     1       0.197  10.439  17.872  0.00  0.00    +0.000 OA
BRANCH  25  26
ATOM     26  C   UNL     1      -1.008   9.904  17.244  0.00  0.00    +0.000 C 
BRANCH  26  27
ATOM     27  C   UNL     1      -2.289  10.667  17.411  0.00  0.00    +0.000 A 
ATOM     28  C   UNL     1      -2.644  11.298  18.600  0.00  0.00    +0.000 A 
ATOM     29  C   UNL     1      -3.909  11.863  18.715  0.00  0.00    +0.000 A 
ATOM     30  C   UNL     1      -4.816  11.810  17.651  0.00  0.00    +0.000 A 
ATOM     31  C   UNL     1      -4.458  11.205  16.453  0.00  0.00    +0.000 A 
ATOM     32  C   UNL     1      -3.197  10.640  16.332  0.00  0.00    +0.000 A 
ENDBRANCH  26  27
ENDBRANCH  25  26
ENDBRANCH   4  25
TORSDOF 6
ENDMDL
MODEL 6
REMARK VINA RESULT:      -7.7      1.115      1.890
REMARK  Name = 
REMARK  8 active torsions:
REMARK  status: ('A' for Active; 'I' for Inactive)
REMARK    1  A    between atoms: C_1  and  C_2
REMARK    2  A    between atoms: N_4  and  C_5
REMARK    3  A    between atoms: C_8  and  O_9
REMARK    4  A    between atoms: O_9  and  C_10
REMARK    5  A    between atoms: C_10  and  C_11
REMARK    6  A    between atoms: C_17  and  C_18
REMARK    7  A    between atoms: N_20  and  C_21
REMARK    8  A    between atoms: C_29  and  C_30
REMARK                            x       y       z     vdW  Elec       q    Type
REMARK                         _______ _______ _______ _____ _____    ______ ____
ROOT
ATOM      1  C   UNL     1       0.468   9.803  20.394  0.00  0.00    +0.000 A 
ATOM      2  C   UNL     1       0.277   9.064  21.562  0.00  0.00    +0.000 A 
ATOM      3  C   UNL     1       0.812   7.810  21.690  0.00  0.00    +0.000 A 
ATOM      4  C   UNL     1       1.589   7.198  20.701  0.00  0.00    +0.000 A 
ATOM      5  C   UNL     1       1.906   7.956  19.539  0.00  0.00    +0.000 A 
ATOM      6  C   UNL     1       1.269   9.223  19.403  0.00  0.00    +0.000 A 
ENDROOT
BRANCH   1  10
ATOM      7  C   UNL     1      -1.390  11.289  17.318  0.00  0.00    +0.000 C 
ATOM      8  C   UNL     1      -1.564  12.111  18.591  0.00  0.00    +0.000 C 
ATOM      9  C   UNL     1      -1.477  11.266  19.872  0.00  0.00    +0.000 C 
ATOM     10  N   UNL     1      -0.080  11.048  20.248  0.00  0.00    +0.000 N 
ATOM     11  C   UNL     1       0.690  12.278  20.417  0.00  0.00    +0.000 C 
ATOM     12  C   UNL     1       0.609  13.125  19.128  0.00  0.00    +0.000 C 
ATOM     13  C   UNL     1       1.595  12.657  18.061  0.00  0.00    +0.000 C 
ATOM     14  O   UNL     1      -0.726  13.281  18.607  0.00  0.00    +0.000 OA
ENDBRANCH   1  10
BRANCH   5  15
ATOM     15  C   UNL     1       2.885   7.609  18.442  0.00  0.00    +0.000 C 
ATOM     16  O   UNL     1       2.781   8.173  17.323  0.00  0.00    +0.000 OA
ATOM     17  N   UNL     1       3.853   6.643  18.641  0.00  0.00    +0.000 N 
ATOM     18  H   UNL     1       3.569   5.899  19.275  0.00  0.00    +0.000 HD
BRANCH  17  19
ATOM     19  C   UNL     1       4.700   6.289  17.558  0.00  0.00    +0.000 A 
ATOM     20  C   UNL     1       4.387   5.203  16.757  0.00  0.00    +0.000 A 
ATOM     21  C   UNL     1       5.260   4.873  15.735  0.00  0.00    +0.000 A 
ATOM     22  N   UNL     1       6.397   5.560  15.499  0.00  0.00    +0.000 NA
ATOM     23  N   UNL     1       6.706   6.634  16.275  0.00  0.00    +0.000 NA
ATOM     24  C   UNL     1       5.866   6.992  17.278  0.00  0.00    +0.000 A 
ENDBRANCH  17  19
ENDBRANCH   5  15
BRANCH   4  25
ATOM     25  O   UNL     1       1.970   5.875  20.940  0.00  0.00    +0.000 OA
BRANCH  25  26
ATOM     26  C   UNL     1       1.269   4.958  20.045  0.00  0.00    +0.000 C 
BRANCH  26  27
ATOM     27  C   UNL     1       2.026   3.780  19.508  0.00  0.00    +0.000 A 
ATOM     28  C   UNL     1       3.202   3.308  20.085  0.00  0.00    +0.000 A 
ATOM     29  C   UNL     1       3.915   2.302  19.445  0.00  0.00    +0.000 A 
ATOM     30  C   UNL     1       3.459   1.757  18.240  0.00  0.00    +0.000 A 
ATOM     31  C   UNL     1       2.272   2.205  17.672  0.00  0.00    +0.000 A 
ATOM     32  C   UNL     1       1.556   3.209  18.306  0.00  0.00    +0.000 A 
ENDBRANCH  26  27
ENDBRANCH  25  26
ENDBRANCH   4  25
TORSDOF 6
ENDMDL
MODEL 7
REMARK VINA RESULT:      -7.4      2.562      9.126
REMARK  Name = 
REMARK  8 active torsions:
REMARK  status: ('A' for Active; 'I' for Inactive)
REMARK    1  A    between atoms: C_1  and  C_2
REMARK    2  A    between atoms: N_4  and  C_5
REMARK    3  A    between atoms: C_8  and  O_9
REMARK    4  A    between atoms: O_9  and  C_10
REMARK    5  A    between atoms: C_10  and  C_11
REMARK    6  A    between atoms: C_17  and  C_18
REMARK    7  A    between atoms: N_20  and  C_21
REMARK    8  A    between atoms: C_29  and  C_30
REMARK                            x       y       z     vdW  Elec       q    Type
REMARK                         _______ _______ _______ _____ _____    ______ ____
ROOT
ATOM      1  C   UNL     1       2.502   6.655  19.576  0.00  0.00    +0.000 A 
ATOM      2  C   UNL     1       2.752   7.008  18.250  0.00  0.00    +0.000 A 
ATOM      3  C   UNL     1       2.331   8.215  17.758  0.00  0.00    +0.000 A 
ATOM      4  C   UNL     1       1.659   9.169  18.528  0.00  0.00    +0.000 A 
ATOM      5  C   UNL     1       1.482   8.903  19.914  0.00  0.00    +0.000 A 
ATOM      6  C   UNL     1       1.859   7.609  20.374  0.00  0.00    +0.000 A 
ENDROOT
BRANCH   1  10
ATOM      7  C   UNL     1       3.453   3.427  17.626  0.00  0.00    +0.000 C 
ATOM      8  C   UNL     1       3.858   3.393  19.096  0.00  0.00    +0.000 C 
ATOM      9  C   UNL     1       4.145   4.787  19.675  0.00  0.00    +0.000 C 
ATOM     10  N   UNL     1       2.900   5.443  20.073  0.00  0.00    +0.000 N 
ATOM     11  C   UNL     1       2.097   4.673  21.021  0.00  0.00    +0.000 C 
ATOM     12  C   UNL     1       1.802   3.274  20.436  0.00  0.00    +0.000 C 
ATOM     13  C   UNL     1       0.631   3.286  19.458  0.00  0.00    +0.000 C 
ATOM     14  O   UNL     1       2.958   2.604  19.895  0.00  0.00    +0.000 OA
ENDBRANCH   1  10
BRANCH   5  15
ATOM     15  C   UNL     1       0.986   9.846  20.985  0.00  0.00    +0.000 C 
ATOM     16  O   UNL     1       1.399   9.710  22.165  0.00  0.00    +0.000 OA
ATOM     17  N   UNL     1       0.047  10.816  20.690  0.00  0.00    +0.000 N 
ATOM     18  H   UNL     1      -0.605  10.550  19.955  0.00  0.00    +0.000 HD
BRANCH  17  19
ATOM     19  C   UNL     1      -0.452  11.628  21.742  0.00  0.00    +0.000 A 
ATOM     20  C   UNL     1      -1.503  11.182  22.527  0.00  0.00    +0.000 A 
ATOM     21  C   UNL     1      -1.981  12.021  23.517  0.00  0.00    +0.000 A 
ATOM     22  N   UNL     1      -1.469  13.250  23.739  0.00  0.00    +0.000 NA
ATOM     23  N   UNL     1      -0.430  13.692  22.979  0.00  0.00    +0.000 NA
ATOM     24  C   UNL     1       0.070  12.889  22.007  0.00  0.00    +0.000 A 
ENDBRANCH  17  19
ENDBRANCH   5  15
BRANCH   4  25
ATOM     25  O   UNL     1       1.202  10.303  17.851  0.00  0.00    +0.000 OA
BRANCH  25  26
ATOM     26  C   UNL     1       2.199  11.369  17.881  0.00  0.00    +0.000 C 
BRANCH  26  27
ATOM     27  C   UNL     1       1.770  12.724  18.360  0.00  0.00    +0.000 A 
ATOM     28  C   UNL     1       0.442  13.144  18.352  0.00  0.00    +0.000 A 
ATOM     29  C   UNL     1       0.147  14.462  18.680  0.00  0.00    +0.000 A 
ATOM     30  C   UNL     1       1.163  15.359  19.024  0.00  0.00    +0.000 A 
ATOM     31  C   UNL     1       2.488  14.940  19.059  0.00  0.00    +0.000 A 
ATOM     32  C   UNL     1       2.789  13.626  18.733  0.00  0.00    +0.000 A 
ENDBRANCH  26  27
ENDBRANCH  25  26
ENDBRANCH   4  25
TORSDOF 6
ENDMDL
MODEL 8
REMARK VINA RESULT:      -7.4      2.863      8.776
REMARK  Name = 
REMARK  8 active torsions:
REMARK  status: ('A' for Active; 'I' for Inactive)
REMARK    1  A    between atoms: C_1  and  C_2
REMARK    2  A    between atoms: N_4  and  C_5
REMARK    3  A    between atoms: C_8  and  O_9
REMARK    4  A    between atoms: O_9  and  C_10
REMARK    5  A    between atoms: C_10  and  C_11
REMARK    6  A    between atoms: C_17  and  C_18
REMARK    7  A    between atoms: N_20  and  C_21
REMARK    8  A    between atoms: C_29  and  C_30
REMARK                            x       y       z     vdW  Elec       q    Type
REMARK                         _______ _______ _______ _____ _____    ______ ____
ROOT
ATOM      1  C   UNL     1       2.278   7.018  19.526  0.00  0.00    +0.000 A 
ATOM      2  C   UNL     1       2.142   7.210  18.152  0.00  0.00    +0.000 A 
ATOM      3  C   UNL     1       1.489   8.310  17.662  0.00  0.00    +0.000 A 
ATOM      4  C   UNL     1       0.944   9.308  18.474  0.00  0.00    +0.000 A 
ATOM      5  C   UNL     1       1.156   9.215  19.878  0.00  0.00    +0.000 A 
ATOM      6  C   UNL     1       1.767   8.021  20.358  0.00  0.00    +0.000 A 
ENDROOT
BRANCH   1  10
ATOM      7  C   UNL     1       3.570   3.888  17.615  0.00  0.00    +0.000 C 
ATOM      8  C   UNL     1       4.103   3.994  19.041  0.00  0.00    +0.000 C 
ATOM      9  C   UNL     1       4.206   5.444  19.539  0.00  0.00    +0.000 C 
ATOM     10  N   UNL     1       2.910   5.912  20.027  0.00  0.00    +0.000 N 
ATOM     11  C   UNL     1       2.329   5.073  21.074  0.00  0.00    +0.000 C 
ATOM     12  C   UNL     1       2.218   3.617  20.572  0.00  0.00    +0.000 C 
ATOM     13  C   UNL     1       0.980   3.392  19.708  0.00  0.00    +0.000 C 
ATOM     14  O   UNL     1       3.416   3.114  19.949  0.00  0.00    +0.000 OA
ENDBRANCH   1  10
BRANCH   5  15
ATOM     15  C   UNL     1       0.858  10.254  20.934  0.00  0.00    +0.000 C 
ATOM     16  O   UNL     1       1.211  10.043  22.122  0.00  0.00    +0.000 OA
ATOM     17  N   UNL     1       0.159  11.402  20.615  0.00  0.00    +0.000 N 
ATOM     18  H   UNL     1      -0.523  11.277  19.869  0.00  0.00    +0.000 HD
BRANCH  17  19
ATOM     19  C   UNL     1      -0.170  12.314  21.652  0.00  0.00    +0.000 A 
ATOM     20  C   UNL     1      -1.219  12.038  22.514  0.00  0.00    +0.000 A 
ATOM     21  C   UNL     1      -1.527  12.972  23.487  0.00  0.00    +0.000 A 
ATOM     22  N   UNL     1      -0.853  14.133  23.621  0.00  0.00    +0.000 NA
ATOM     23  N   UNL     1       0.185  14.407  22.785  0.00  0.00    +0.000 NA
ATOM     24  C   UNL     1       0.520  13.508  21.827  0.00  0.00    +0.000 A 
ENDBRANCH  17  19
ENDBRANCH   5  15
BRANCH   4  25
ATOM     25  O   UNL     1       0.215  10.309  17.825  0.00  0.00    +0.000 OA
BRANCH  25  26
ATOM     26  C   UNL     1      -1.183  10.296  18.247  0.00  0.00    +0.000 C 
BRANCH  26  27
ATOM     27  C   UNL     1      -2.241  10.374  17.186  0.00  0.00    +0.000 A 
ATOM     28  C   UNL     1      -2.133   9.722  15.961  0.00  0.00    +0.000 A 
ATOM     29  C   UNL     1      -3.090   9.959  14.981  0.00  0.00    +0.000 A 
ATOM     30  C   UNL     1      -4.155  10.834  15.218  0.00  0.00    +0.000 A 
ATOM     31  C   UNL     1      -4.283  11.469  16.448  0.00  0.00    +0.000 A 
ATOM     32  C   UNL     1      -3.331  11.236  17.430  0.00  0.00    +0.000 A 
ENDBRANCH  26  27
ENDBRANCH  25  26
ENDBRANCH   4  25
TORSDOF 6
ENDMDL
MODEL 9
REMARK VINA RESULT:      -7.3      1.227      1.960
REMARK  Name = 
REMARK  8 active torsions:
REMARK  status: ('A' for Active; 'I' for Inactive)
REMARK    1  A    between atoms: C_1  and  C_2
REMARK    2  A    between atoms: N_4  and  C_5
REMARK    3  A    between atoms: C_8  and  O_9
REMARK    4  A    between atoms: O_9  and  C_10
REMARK    5  A    between atoms: C_10  and  C_11
REMARK    6  A    between atoms: C_17  and  C_18
REMARK    7  A    between atoms: N_20  and  C_21
REMARK    8  A    between atoms: C_29  and  C_30
REMARK                            x       y       z     vdW  Elec       q    Type
REMARK                         _______ _______ _______ _____ _____    ______ ____
ROOT
ATOM      1  C   UNL     1       0.823   9.986  19.865  0.00  0.00    +0.000 A 
ATOM      2  C   UNL     1       0.574   9.409  21.110  0.00  0.00    +0.000 A 
ATOM      3  C   UNL     1       1.030   8.150  21.400  0.00  0.00    +0.000 A 
ATOM      4  C   UNL     1       1.777   7.377  20.507  0.00  0.00    +0.000 A 
ATOM      5  C   UNL     1       2.153   7.966  19.267  0.00  0.00    +0.000 A 
ATOM      6  C   UNL     1       1.596   9.242  18.967  0.00  0.00    +0.000 A 
ENDROOT
BRANCH   1  10
ATOM      7  C   UNL     1      -2.111  11.947  21.500  0.00  0.00    +0.000 C 
ATOM      8  C   UNL     1      -1.218  12.812  20.616  0.00  0.00    +0.000 C 
ATOM      9  C   UNL     1       0.232  12.307  20.546  0.00  0.00    +0.000 C 
ATOM     10  N   UNL     1       0.354  11.235  19.558  0.00  0.00    +0.000 N 
ATOM     11  C   UNL     1      -0.103  11.603  18.220  0.00  0.00    +0.000 C 
ATOM     12  C   UNL     1      -1.562  12.104  18.288  0.00  0.00    +0.000 C 
ATOM     13  C   UNL     1      -2.570  10.958  18.314  0.00  0.00    +0.000 C 
ATOM     14  O   UNL     1      -1.807  13.070  19.329  0.00  0.00    +0.000 OA
ENDBRANCH   1  10
BRANCH   5  15
ATOM     15  C   UNL     1       3.119   7.429  18.238  0.00  0.00    +0.000 C 
ATOM     16  O   UNL     1       3.066   7.860  17.058  0.00  0.00    +0.000 OA
ATOM     17  N   UNL     1       4.020   6.434  18.569  0.00  0.00    +0.000 N 
ATOM     18  H   UNL     1       3.682   5.791  19.281  0.00  0.00    +0.000 HD
BRANCH  17  19
ATOM     19  C   UNL     1       4.855   5.900  17.552  0.00  0.00    +0.000 A 
ATOM     20  C   UNL     1       6.075   6.494  17.272  0.00  0.00    +0.000 A 
ATOM     21  C   UNL     1       6.839   5.963  16.248  0.00  0.00    +0.000 A 
ATOM     22  N   UNL     1       6.439   4.902  15.516  0.00  0.00    +0.000 NA
ATOM     23  N   UNL     1       5.246   4.308  15.791  0.00  0.00    +0.000 NA
ATOM     24  C   UNL     1       4.478   4.797  16.796  0.00  0.00    +0.000 A 
ENDBRANCH  17  19
ENDBRANCH   5  15
BRANCH   4  25
ATOM     25  O   UNL     1       2.074   6.072  20.911  0.00  0.00    +0.000 OA
BRANCH  25  26
ATOM     26  C   UNL     1       1.238   5.103  20.208  0.00  0.00    +0.000 C 
BRANCH  26  27
ATOM     27  C   UNL     1       1.917   3.968  19.499  0.00  0.00    +0.000 A 
ATOM     28  C   UNL     1       1.369   3.334  18.387  0.00  0.00    +0.000 A 
ATOM     29  C   UNL     1       1.994   2.203  17.877  0.00  0.00    +0.000 A 
ATOM     30  C   UNL     1       3.164   1.706  18.461  0.00  0.00    +0.000 A 
ATOM     31  C   UNL     1       3.731   2.350  19.555  0.00  0.00    +0.000 A 
ATOM     32  C   UNL     1       3.112   3.479  20.069  0.00  0.00    +0.000 A 
ENDBRANCH  26  27
ENDBRANCH  25  26
ENDBRANCH   4  25
TORSDOF 6
ENDMDL
