MODEL 1
REMARK VINA RESULT:      -8.0      0.000      0.000
REMARK  Name = 
REMARK  13 active torsions:
REMARK  status: ('A' for Active; 'I' for Inactive)
REMARK    1  A    between atoms: C_1  and  C_2
REMARK    2  A    between atoms: C_5  and  S_6
REMARK    3  A    between atoms: S_6  and  N_9
REMARK    4  A    between atoms: N_9  and  C_10
REMARK    5  A    between atoms: N_9  and  C_14
REMARK    6  A    between atoms: C_10  and  C_11
REMARK    7  A    between atoms: C_11  and  O_13
REMARK    8  A    between atoms: C_14  and  C_15
REMARK    9  A    between atoms: C_15  and  C_17
REMARK   10  A    between atoms: C_17  and  C_18
REMARK   11  A    between atoms: C_17  and  N_25
REMARK   12  A    between atoms: C_18  and  C_19
REMARK   13  A    between atoms: C_26  and  C_28
REMARK                            x       y       z     vdW  Elec       q    Type
REMARK                         _______ _______ _______ _____ _____    ______ ____
ROOT
ATOM      1  C   UNL     1       6.438   5.473  19.195  0.00  0.00    +0.000 C 
ATOM      2  O   UNL     1       7.133   5.390  20.211  0.00  0.00    +0.000 OA
ENDROOT
BRANCH   1   3
ATOM      3  C   UNL     1       5.197   4.636  19.017  0.00  0.00    +0.000 C 
BRANCH   3   4
ATOM      4  N   UNL     1       3.883   5.149  19.558  0.00  0.00    +0.000 NA
BRANCH   4   5
ATOM      5  S   UNL     1       2.857   5.734  18.298  0.00  0.00    +0.000 S 
ATOM      6  O   UNL     1       1.690   4.877  18.296  0.00  0.00    +0.000 OA
ATOM      7  O   UNL     1       3.663   5.964  17.122  0.00  0.00    +0.000 OA
BRANCH   5  12
ATOM      8  C   UNL     1       0.192  10.953  19.733  0.00  0.00    +0.000 C 
ATOM      9  C   UNL     1       1.005   9.733  19.413  0.00  0.00    +0.000 A 
ATOM     10  C   UNL     1       1.462   9.502  18.108  0.00  0.00    +0.000 A 
ATOM     11  C   UNL     1       2.115   8.313  17.790  0.00  0.00    +0.000 A 
ATOM     12  C   UNL     1       2.319   7.359  18.782  0.00  0.00    +0.000 A 
ATOM     13  C   UNL     1       1.897   7.581  20.091  0.00  0.00    +0.000 A 
ATOM     14  C   UNL     1       1.236   8.770  20.406  0.00  0.00    +0.000 A 
ENDBRANCH   5  12
ENDBRANCH   4   5
BRANCH   4  15
ATOM     15  C   UNL     1       3.244   4.094  20.414  0.00  0.00    +0.000 C 
BRANCH  15  16
ATOM     16  C   UNL     1       3.566   2.656  20.054  0.00  0.00    +0.000 C 
ATOM     17  O   UNL     1       4.453   1.984  20.557  0.00  0.00    +0.000 OA
BRANCH  16  18
ATOM     18  O   UNL     1       2.794   2.135  19.079  0.00  0.00    +0.000 OA
ATOM     19  H   UNL     1       1.981   1.822  19.528  0.00  0.00    +0.000 HD
ENDBRANCH  16  18
ENDBRANCH  15  16
ENDBRANCH   4  15
ENDBRANCH   3   4
ENDBRANCH   1   3
BRANCH   1  20
ATOM     20  C   UNL     1       6.734   6.544  18.138  0.00  0.00    +0.000 C 
BRANCH  20  21
ATOM     21  N   UNL     1       6.499   6.023  16.782  0.00  0.00    +0.000 N 
ATOM     22  C   UNL     1       7.219   4.950  16.276  0.00  0.00    +0.000 C 
ATOM     23  O   UNL     1       8.015   4.314  16.965  0.00  0.00    +0.000 OA
ATOM     24  H   UNL     1       5.942   6.592  16.161  0.00  0.00    +0.000 HD
BRANCH  22  25
ATOM     25  C   UNL     1       7.082   4.634  14.814  0.00  0.00    +0.000 A 
ATOM     26  C   UNL     1       7.920   5.312  13.910  0.00  0.00    +0.000 A 
ATOM     27  C   UNL     1       7.745   5.177  12.529  0.00  0.00    +0.000 A 
ATOM     28  C   UNL     1       6.745   4.347  12.037  0.00  0.00    +0.000 A 
ATOM     29  C   UNL     1       5.955   3.615  12.921  0.00  0.00    +0.000 A 
ATOM     30  C   UNL     1       6.130   3.742  14.305  0.00  0.00    +0.000 A 
ENDBRANCH  22  25
ENDBRANCH  20  21
BRANCH  20  31
ATOM     31  C   UNL     1       8.190   6.991  18.391  0.00  0.00    +0.000 C 
BRANCH  31  32
ATOM     32  C   UNL     1       8.400   8.475  18.374  0.00  0.00    +0.000 A 
ATOM     33  C   UNL     1       9.222   9.093  19.322  0.00  0.00    +0.000 A 
ATOM     34  C   UNL     1       9.338  10.481  19.346  0.00  0.00    +0.000 A 
ATOM     35  C   UNL     1       8.651  11.252  18.407  0.00  0.00    +0.000 A 
ATOM     36  C   UNL     1       7.879  10.637  17.425  0.00  0.00    +0.000 A 
ATOM     37  C   UNL     1       7.761   9.252  17.401  0.00  0.00    +0.000 A 
ENDBRANCH  31  32
ENDBRANCH  20  31
ENDBRANCH   1  20
TORSDOF 12
ENDMDL
MODEL 2
REMARK VINA RESULT:      -7.9      1.057      1.463
REMARK  Name = 
REMARK  13 active torsions:
REMARK  status: ('A' for Active; 'I' for Inactive)
REMARK    1  A    between atoms: C_1  and  C_2
REMARK    2  A    between atoms: C_5  and  S_6
REMARK    3  A    between atoms: S_6  and  N_9
REMARK    4  A    between atoms: N_9  and  C_10
REMARK    5  A    between atoms: N_9  and  C_14
REMARK    6  A    between atoms: C_10  and  C_11
REMARK    7  A    between atoms: C_11  and  O_13
REMARK    8  A    between atoms: C_14  and  C_15
REMARK    9  A    between atoms: C_15  and  C_17
REMARK   10  A    between atoms: C_17  and  C_18
REMARK   11  A    between atoms: C_17  and  N_25
REMARK   12  A    between atoms: C_18  and  C_19
REMARK   13  A    between atoms: C_26  and  C_28
REMARK                            x       y       z     vdW  Elec       q    Type
REMARK                         _______ _______ _______ _____ _____    ______ ____
ROOT
ATOM      1  C   UNL     1       6.226   5.728  18.785  0.00  0.00    +0.000 C 
ATOM      2  O   UNL     1       6.770   5.469  19.861  0.00  0.00    +0.000 OA
ENDROOT
BRANCH   1   3
ATOM      3  C   UNL     1       4.819   5.278  18.483  0.00  0.00    +0.000 C 
BRANCH   3   4
ATOM      4  N   UNL     1       3.961   4.752  19.610  0.00  0.00    +0.000 NA
BRANCH   4   5
ATOM      5  S   UNL     1       2.290   5.118  19.366  0.00  0.00    +0.000 S 
ATOM      6  O   UNL     1       1.594   4.629  20.538  0.00  0.00    +0.000 OA
ATOM      7  O   UNL     1       1.930   4.734  18.022  0.00  0.00    +0.000 OA
BRANCH   5  12
ATOM      8  C   UNL     1       0.939  10.992  19.079  0.00  0.00    +0.000 C 
ATOM      9  C   UNL     1       1.435   9.580  19.196  0.00  0.00    +0.000 A 
ATOM     10  C   UNL     1       1.970   8.917  18.083  0.00  0.00    +0.000 A 
ATOM     11  C   UNL     1       2.320   7.570  18.165  0.00  0.00    +0.000 A 
ATOM     12  C   UNL     1       2.145   6.891  19.366  0.00  0.00    +0.000 A 
ATOM     13  C   UNL     1       1.641   7.539  20.492  0.00  0.00    +0.000 A 
ATOM     14  C   UNL     1       1.283   8.886  20.405  0.00  0.00    +0.000 A 
ENDBRANCH   5  12
ENDBRANCH   4   5
BRANCH   4  15
ATOM     15  C   UNL     1       4.234   3.290  19.811  0.00  0.00    +0.000 C 
BRANCH  15  16
ATOM     16  C   UNL     1       3.518   2.341  18.868  0.00  0.00    +0.000 C 
ATOM     17  O   UNL     1       3.926   1.996  17.769  0.00  0.00    +0.000 OA
BRANCH  16  18
ATOM     18  O   UNL     1       2.331   1.889  19.320  0.00  0.00    +0.000 OA
ATOM     19  H   UNL     1       2.181   1.039  18.855  0.00  0.00    +0.000 HD
ENDBRANCH  16  18
ENDBRANCH  15  16
ENDBRANCH   4  15
ENDBRANCH   3   4
ENDBRANCH   1   3
BRANCH   1  20
ATOM     20  C   UNL     1       6.914   6.648  17.769  0.00  0.00    +0.000 C 
BRANCH  20  21
ATOM     21  N   UNL     1       7.149   5.945  16.498  0.00  0.00    +0.000 N 
ATOM     22  C   UNL     1       6.254   6.027  15.440  0.00  0.00    +0.000 C 
ATOM     23  O   UNL     1       5.273   6.767  15.470  0.00  0.00    +0.000 OA
ATOM     24  H   UNL     1       7.877   5.246  16.487  0.00  0.00    +0.000 HD
BRANCH  22  25
ATOM     25  C   UNL     1       6.451   5.099  14.275  0.00  0.00    +0.000 A 
ATOM     26  C   UNL     1       7.530   5.348  13.407  0.00  0.00    +0.000 A 
ATOM     27  C   UNL     1       7.683   4.617  12.224  0.00  0.00    +0.000 A 
ATOM     28  C   UNL     1       6.772   3.617  11.906  0.00  0.00    +0.000 A 
ATOM     29  C   UNL     1       5.739   3.314  12.792  0.00  0.00    +0.000 A 
ATOM     30  C   UNL     1       5.585   4.039  13.981  0.00  0.00    +0.000 A 
ENDBRANCH  22  25
ENDBRANCH  20  21
BRANCH  20  31
ATOM     31  C   UNL     1       8.205   7.140  18.457  0.00  0.00    +0.000 C 
BRANCH  31  32
ATOM     32  C   UNL     1       8.401   8.626  18.429  0.00  0.00    +0.000 A 
ATOM     33  C   UNL     1       7.788   9.411  17.447  0.00  0.00    +0.000 A 
ATOM     34  C   UNL     1       8.050  10.777  17.383  0.00  0.00    +0.000 A 
ATOM     35  C   UNL     1       8.905  11.366  18.316  0.00  0.00    +0.000 A 
ATOM     36  C   UNL     1       9.470  10.598  19.331  0.00  0.00    +0.000 A 
ATOM     37  C   UNL     1       9.211   9.234  19.396  0.00  0.00    +0.000 A 
ENDBRANCH  31  32
ENDBRANCH  20  31
ENDBRANCH   1  20
TORSDOF 12
ENDMDL
MODEL 3
REMARK VINA RESULT:      -7.9      3.610      6.593
REMARK  Name = 
REMARK  13 active torsions:
REMARK  status: ('A' for Active; 'I' for Inactive)
REMARK    1  A    between atoms: C_1  and  C_2
REMARK    2  A    between atoms: C_5  and  S_6
REMARK    3  A    between atoms: S_6  and  N_9
REMARK    4  A    between atoms: N_9  and  C_10
REMARK    5  A    between atoms: N_9  and  C_14
REMARK    6  A    between atoms: C_10  and  C_11
REMARK    7  A    between atoms: C_11  and  O_13
REMARK    8  A    between atoms: C_14  and  C_15
REMARK    9  A    between atoms: C_15  and  C_17
REMARK   10  A    between atoms: C_17  and  C_18
REMARK   11  A    between atoms: C_17  and  N_25
REMARK   12  A    between atoms: C_18  and  C_19
REMARK   13  A    between atoms: C_26  and  C_28
REMARK                            x       y       z     vdW  Elec       q    Type
REMARK                         _______ _______ _______ _____ _____    ______ ____
ROOT
ATOM      1  C   UNL     1       2.084   8.501  18.604  0.00  0.00    +0.000 C 
ATOM      2  O   UNL     1       2.582   9.064  17.626  0.00  0.00    +0.000 OA
ENDROOT
BRANCH   1   3
ATOM      3  C   UNL     1       0.786   8.970  19.208  0.00  0.00    +0.000 C 
BRANCH   3   4
ATOM      4  N   UNL     1       0.819  10.025  20.289  0.00  0.00    +0.000 NA
BRANCH   4   5
ATOM      5  S   UNL     1       0.337  11.571  19.691  0.00  0.00    +0.000 S 
ATOM      6  O   UNL     1       1.198  11.854  18.561  0.00  0.00    +0.000 OA
ATOM      7  O   UNL     1       0.193  12.470  20.811  0.00  0.00    +0.000 OA
BRANCH   5  12
ATOM      8  C   UNL     1      -5.132  11.759  17.148  0.00  0.00    +0.000 C 
ATOM      9  C   UNL     1      -3.822  11.564  17.855  0.00  0.00    +0.000 A 
ATOM     10  C   UNL     1      -3.608  12.117  19.126  0.00  0.00    +0.000 A 
ATOM     11  C   UNL     1      -2.354  12.035  19.729  0.00  0.00    +0.000 A 
ATOM     12  C   UNL     1      -1.317  11.389  19.062  0.00  0.00    +0.000 A 
ATOM     13  C   UNL     1      -1.516  10.810  17.811  0.00  0.00    +0.000 A 
ATOM     14  C   UNL     1      -2.771  10.900  17.206  0.00  0.00    +0.000 A 
ENDBRANCH   5  12
ENDBRANCH   4   5
BRANCH   4  15
ATOM     15  C   UNL     1       0.017   9.560  21.471  0.00  0.00    +0.000 C 
BRANCH  15  16
ATOM     16  C   UNL     1       0.757   9.482  22.792  0.00  0.00    +0.000 C 
ATOM     17  O   UNL     1       0.261   9.676  23.892  0.00  0.00    +0.000 OA
BRANCH  16  18
ATOM     18  O   UNL     1       2.070   9.194  22.685  0.00  0.00    +0.000 OA
ATOM     19  H   UNL     1       2.434   9.291  23.590  0.00  0.00    +0.000 HD
ENDBRANCH  16  18
ENDBRANCH  15  16
ENDBRANCH   4  15
ENDBRANCH   3   4
ENDBRANCH   1   3
BRANCH   1  20
ATOM     20  C   UNL     1       2.698   7.206  19.149  0.00  0.00    +0.000 C 
BRANCH  20  21
ATOM     21  N   UNL     1       3.332   6.430  18.072  0.00  0.00    +0.000 N 
ATOM     22  C   UNL     1       4.576   5.837  18.232  0.00  0.00    +0.000 C 
ATOM     23  O   UNL     1       5.168   5.841  19.309  0.00  0.00    +0.000 OA
ATOM     24  H   UNL     1       2.926   6.508  17.150  0.00  0.00    +0.000 HD
BRANCH  22  25
ATOM     25  C   UNL     1       5.249   5.266  17.015  0.00  0.00    +0.000 A 
ATOM     26  C   UNL     1       4.709   4.098  16.448  0.00  0.00    +0.000 A 
ATOM     27  C   UNL     1       5.369   3.433  15.410  0.00  0.00    +0.000 A 
ATOM     28  C   UNL     1       6.564   3.940  14.914  0.00  0.00    +0.000 A 
ATOM     29  C   UNL     1       7.072   5.135  15.420  0.00  0.00    +0.000 A 
ATOM     30  C   UNL     1       6.412   5.807  16.455  0.00  0.00    +0.000 A 
ENDBRANCH  22  25
ENDBRANCH  20  21
BRANCH  20  31
ATOM     31  C   UNL     1       1.544   6.462  19.857  0.00  0.00    +0.000 C 
BRANCH  31  32
ATOM     32  C   UNL     1       1.730   4.978  19.964  0.00  0.00    +0.000 A 
ATOM     33  C   UNL     1       1.355   4.132  18.915  0.00  0.00    +0.000 A 
ATOM     34  C   UNL     1       1.454   2.751  19.065  0.00  0.00    +0.000 A 
ATOM     35  C   UNL     1       1.950   2.214  20.253  0.00  0.00    +0.000 A 
ATOM     36  C   UNL     1       2.379   3.055  21.277  0.00  0.00    +0.000 A 
ATOM     37  C   UNL     1       2.280   4.434  21.130  0.00  0.00    +0.000 A 
ENDBRANCH  31  32
ENDBRANCH  20  31
ENDBRANCH   1  20
TORSDOF 12
ENDMDL
MODEL 4
REMARK VINA RESULT:      -7.9      1.566      5.098
REMARK  Name = 
REMARK  13 active torsions:
REMARK  status: ('A' for Active; 'I' for Inactive)
REMARK    1  A    between atoms: C_1  and  C_2
REMARK    2  A    between atoms: C_5  and  S_6
REMARK    3  A    between atoms: S_6  and  N_9
REMARK    4  A    between atoms: N_9  and  C_10
REMARK    5  A    between atoms: N_9  and  C_14
REMARK    6  A    between atoms: C_10  and  C_11
REMARK    7  A    between atoms: C_11  and  O_13
REMARK    8  A    between atoms: C_14  and  C_15
REMARK    9  A    between atoms: C_15  and  C_17
REMARK   10  A    between atoms: C_17  and  C_18
REMARK   11  A    between atoms: C_17  and  N_25
REMARK   12  A    between atoms: C_18  and  C_19
REMARK   13  A    between atoms: C_26  and  C_28
REMARK                            x       y       z     vdW  Elec       q    Type
REMARK                         _______ _______ _______ _____ _____    ______ ____
ROOT
ATOM      1  C   UNL     1       6.780   5.767  19.285  0.00  0.00    +0.000 C 
ATOM      2  O   UNL     1       7.399   5.239  20.211  0.00  0.00    +0.000 OA
ENDROOT
BRANCH   1   3
ATOM      3  C   UNL     1       5.273   5.807  19.264  0.00  0.00    +0.000 C 
BRANCH   3   4
ATOM      4  N   UNL     1       4.501   4.605  19.757  0.00  0.00    +0.000 NA
BRANCH   4   5
ATOM      5  S   UNL     1       2.796   4.851  19.646  0.00  0.00    +0.000 S 
ATOM      6  O   UNL     1       2.255   4.534  20.952  0.00  0.00    +0.000 OA
ATOM      7  O   UNL     1       2.323   4.232  18.431  0.00  0.00    +0.000 OA
BRANCH   5  12
ATOM      8  C   UNL     1       1.096  10.515  18.446  0.00  0.00    +0.000 C 
ATOM      9  C   UNL     1       1.673   9.172  18.786  0.00  0.00    +0.000 A 
ATOM     10  C   UNL     1       2.288   8.388  17.799  0.00  0.00    +0.000 A 
ATOM     11  C   UNL     1       2.718   7.095  18.091  0.00  0.00    +0.000 A 
ATOM     12  C   UNL     1       2.541   6.591  19.376  0.00  0.00    +0.000 A 
ATOM     13  C   UNL     1       1.958   7.363  20.378  0.00  0.00    +0.000 A 
ATOM     14  C   UNL     1       1.522   8.656  20.081  0.00  0.00    +0.000 A 
ENDBRANCH   5  12
ENDBRANCH   4   5
BRANCH   4  15
ATOM     15  C   UNL     1       4.980   3.373  19.044  0.00  0.00    +0.000 C 
BRANCH  15  16
ATOM     16  C   UNL     1       4.711   2.052  19.740  0.00  0.00    +0.000 C 
ATOM     17  O   UNL     1       4.885   1.832  20.929  0.00  0.00    +0.000 OA
BRANCH  16  18
ATOM     18  O   UNL     1       4.267   1.070  18.930  0.00  0.00    +0.000 OA
ATOM     19  H   UNL     1       4.916   0.342  19.022  0.00  0.00    +0.000 HD
ENDBRANCH  16  18
ENDBRANCH  15  16
ENDBRANCH   4  15
ENDBRANCH   3   4
ENDBRANCH   1   3
BRANCH   1  20
ATOM     20  C   UNL     1       7.529   6.537  18.190  0.00  0.00    +0.000 C 
BRANCH  20  21
ATOM     21  N   UNL     1       8.231   7.701  18.753  0.00  0.00    +0.000 N 
ATOM     22  C   UNL     1       8.146   8.958  18.172  0.00  0.00    +0.000 C 
ATOM     23  O   UNL     1       7.403   9.189  17.220  0.00  0.00    +0.000 OA
ATOM     24  H   UNL     1       8.933   7.518  19.456  0.00  0.00    +0.000 HD
BRANCH  22  25
ATOM     25  C   UNL     1       9.072  10.031  18.670  0.00  0.00    +0.000 A 
ATOM     26  C   UNL     1       9.838  10.735  17.722  0.00  0.00    +0.000 A 
ATOM     27  C   UNL     1      10.826  11.639  18.126  0.00  0.00    +0.000 A 
ATOM     28  C   UNL     1      11.044  11.865  19.480  0.00  0.00    +0.000 A 
ATOM     29  C   UNL     1      10.244  11.227  20.426  0.00  0.00    +0.000 A 
ATOM     30  C   UNL     1       9.250  10.326  20.026  0.00  0.00    +0.000 A 
ENDBRANCH  22  25
ENDBRANCH  20  21
BRANCH  20  31
ATOM     31  C   UNL     1       6.464   6.902  17.133  0.00  0.00    +0.000 C 
BRANCH  31  32
ATOM     32  C   UNL     1       6.296   5.890  16.040  0.00  0.00    +0.000 A 
ATOM     33  C   UNL     1       5.059   5.278  15.815  0.00  0.00    +0.000 A 
ATOM     34  C   UNL     1       4.942   4.277  14.853  0.00  0.00    +0.000 A 
ATOM     35  C   UNL     1       6.054   3.904  14.098  0.00  0.00    +0.000 A 
ATOM     36  C   UNL     1       7.273   4.553  14.278  0.00  0.00    +0.000 A 
ATOM     37  C   UNL     1       7.393   5.551  15.239  0.00  0.00    +0.000 A 
ENDBRANCH  31  32
ENDBRANCH  20  31
ENDBRANCH   1  20
TORSDOF 12
ENDMDL
MODEL 5
REMARK VINA RESULT:      -7.7      2.618      8.235
REMARK  Name = 
REMARK  13 active torsions:
REMARK  status: ('A' for Active; 'I' for Inactive)
REMARK    1  A    between atoms: C_1  and  C_2
REMARK    2  A    between atoms: C_5  and  S_6
REMARK    3  A    between atoms: S_6  and  N_9
REMARK    4  A    between atoms: N_9  and  C_10
REMARK    5  A    between atoms: N_9  and  C_14
REMARK    6  A    between atoms: C_10  and  C_11
REMARK    7  A    between atoms: C_11  and  O_13
REMARK    8  A    between atoms: C_14  and  C_15
REMARK    9  A    between atoms: C_15  and  C_17
REMARK   10  A    between atoms: C_17  and  C_18
REMARK   11  A    between atoms: C_17  and  N_25
REMARK   12  A    between atoms: C_18  and  C_19
REMARK   13  A    between atoms: C_26  and  C_28
REMARK                            x       y       z     vdW  Elec       q    Type
REMARK                         _______ _______ _______ _____ _____    ______ ____
ROOT
ATOM      1  C   UNL     1       3.683   7.181  17.571  0.00  0.00    +0.000 C 
ATOM      2  O   UNL     1       3.726   7.684  16.446  0.00  0.00    +0.000 OA
ENDROOT
BRANCH   1   3
ATOM      3  C   UNL     1       4.921   6.643  18.242  0.00  0.00    +0.000 C 
BRANCH   3   4
ATOM      4  N   UNL     1       5.478   5.312  17.795  0.00  0.00    +0.000 NA
BRANCH   4   5
ATOM      5  S   UNL     1       6.945   5.500  16.903  0.00  0.00    +0.000 S 
ATOM      6  O   UNL     1       7.965   4.791  17.647  0.00  0.00    +0.000 OA
ATOM      7  O   UNL     1       7.074   6.886  16.522  0.00  0.00    +0.000 OA
BRANCH   5  12
ATOM      8  C   UNL     1       5.615   3.267  11.458  0.00  0.00    +0.000 C 
ATOM      9  C   UNL     1       6.045   3.682  12.834  0.00  0.00    +0.000 A 
ATOM     10  C   UNL     1       5.291   3.315  13.958  0.00  0.00    +0.000 A 
ATOM     11  C   UNL     1       5.626   3.799  15.221  0.00  0.00    +0.000 A 
ATOM     12  C   UNL     1       6.724   4.643  15.360  0.00  0.00    +0.000 A 
ATOM     13  C   UNL     1       7.502   4.997  14.260  0.00  0.00    +0.000 A 
ATOM     14  C   UNL     1       7.160   4.517  12.995  0.00  0.00    +0.000 A 
ENDBRANCH   5  12
ENDBRANCH   4   5
BRANCH   4  15
ATOM     15  C   UNL     1       5.606   4.396  18.977  0.00  0.00    +0.000 C 
BRANCH  15  16
ATOM     16  C   UNL     1       4.819   3.101  18.907  0.00  0.00    +0.000 C 
ATOM     17  O   UNL     1       4.069   2.779  17.999  0.00  0.00    +0.000 OA
BRANCH  16  18
ATOM     18  O   UNL     1       4.981   2.287  19.970  0.00  0.00    +0.000 OA
ATOM     19  H   UNL     1       4.722   1.395  19.658  0.00  0.00    +0.000 HD
ENDBRANCH  16  18
ENDBRANCH  15  16
ENDBRANCH   4  15
ENDBRANCH   3   4
ENDBRANCH   1   3
BRANCH   1  20
ATOM     20  C   UNL     1       2.387   7.220  18.390  0.00  0.00    +0.000 C 
BRANCH  20  21
ATOM     21  N   UNL     1       1.894   8.600  18.527  0.00  0.00    +0.000 N 
ATOM     22  C   UNL     1       1.277   9.043  19.688  0.00  0.00    +0.000 C 
ATOM     23  O   UNL     1       1.199   8.343  20.695  0.00  0.00    +0.000 OA
ATOM     24  H   UNL     1       1.840   9.155  17.685  0.00  0.00    +0.000 HD
BRANCH  22  25
ATOM     25  C   UNL     1       0.599  10.384  19.660  0.00  0.00    +0.000 A 
ATOM     26  C   UNL     1      -0.519  10.578  20.491  0.00  0.00    +0.000 A 
ATOM     27  C   UNL     1      -1.284  11.746  20.406  0.00  0.00    +0.000 A 
ATOM     28  C   UNL     1      -0.927  12.741  19.504  0.00  0.00    +0.000 A 
ATOM     29  C   UNL     1       0.219  12.591  18.725  0.00  0.00    +0.000 A 
ATOM     30  C   UNL     1       0.991  11.426  18.811  0.00  0.00    +0.000 A 
ENDBRANCH  22  25
ENDBRANCH  20  21
BRANCH  20  31
ATOM     31  C   UNL     1       2.722   6.541  19.735  0.00  0.00    +0.000 C 
BRANCH  31  32
ATOM     32  C   UNL     1       2.101   5.189  19.923  0.00  0.00    +0.000 A 
ATOM     33  C   UNL     1       2.195   4.523  21.150  0.00  0.00    +0.000 A 
ATOM     34  C   UNL     1       1.688   3.232  21.282  0.00  0.00    +0.000 A 
ATOM     35  C   UNL     1       1.067   2.614  20.196  0.00  0.00    +0.000 A 
ATOM     36  C   UNL     1       0.919   3.297  18.991  0.00  0.00    +0.000 A 
ATOM     37  C   UNL     1       1.425   4.585  18.857  0.00  0.00    +0.000 A 
ENDBRANCH  31  32
ENDBRANCH  20  31
ENDBRANCH   1  20
TORSDOF 12
ENDMDL
MODEL 6
REMARK VINA RESULT:      -7.7      2.709      8.233
REMARK  Name = 
REMARK  13 active torsions:
REMARK  status: ('A' for Active; 'I' for Inactive)
REMARK    1  A    between atoms: C_1  and  C_2
REMARK    2  A    between atoms: C_5  and  S_6
REMARK    3  A    between atoms: S_6  and  N_9
REMARK    4  A    between atoms: N_9  and  C_10
REMARK    5  A    between atoms: N_9  and  C_14
REMARK    6  A    between atoms: C_10  and  C_11
REMARK    7  A    between atoms: C_11  and  O_13
REMARK    8  A    between atoms: C_14  and  C_15
REMARK    9  A    between atoms: C_15  and  C_17
REMARK   10  A    between atoms: C_17  and  C_18
REMARK   11  A    between atoms: C_17  and  N_25
REMARK   12  A    between atoms: C_18  and  C_19
REMARK   13  A    between atoms: C_26  and  C_28
REMARK                            x       y       z     vdW  Elec       q    Type
REMARK                         _______ _______ _______ _____ _____    ______ ____
ROOT
ATOM      1  C   UNL     1       3.622   7.065  17.917  0.00  0.00    +0.000 C 
ATOM      2  O   UNL     1       3.800   7.713  16.883  0.00  0.00    +0.000 OA
ENDROOT
BRANCH   1   3
ATOM      3  C   UNL     1       4.771   6.428  18.656  0.00  0.00    +0.000 C 
BRANCH   3   4
ATOM      4  N   UNL     1       5.344   5.129  18.140  0.00  0.00    +0.000 NA
BRANCH   4   5
ATOM      5  S   UNL     1       6.832   5.375  17.299  0.00  0.00    +0.000 S 
ATOM      6  O   UNL     1       7.760   4.395  17.822  0.00  0.00    +0.000 OA
ATOM      7  O   UNL     1       7.116   6.791  17.277  0.00  0.00    +0.000 OA
BRANCH   5  12
ATOM      8  C   UNL     1       6.258   3.197  11.701  0.00  0.00    +0.000 C 
ATOM      9  C   UNL     1       6.324   3.882  13.035  0.00  0.00    +0.000 A 
ATOM     10  C   UNL     1       7.444   4.646  13.390  0.00  0.00    +0.000 A 
ATOM     11  C   UNL     1       7.554   5.184  14.672  0.00  0.00    +0.000 A 
ATOM     12  C   UNL     1       6.535   4.964  15.593  0.00  0.00    +0.000 A 
ATOM     13  C   UNL     1       5.401   4.230  15.252  0.00  0.00    +0.000 A 
ATOM     14  C   UNL     1       5.297   3.687  13.970  0.00  0.00    +0.000 A 
ENDBRANCH   5  12
ENDBRANCH   4   5
BRANCH   4  15
ATOM     15  C   UNL     1       5.446   4.141  19.266  0.00  0.00    +0.000 C 
BRANCH  15  16
ATOM     16  C   UNL     1       4.748   2.811  19.054  0.00  0.00    +0.000 C 
ATOM     17  O   UNL     1       4.048   2.527  18.094  0.00  0.00    +0.000 OA
BRANCH  16  18
ATOM     18  O   UNL     1       4.931   1.915  20.045  0.00  0.00    +0.000 OA
ATOM     19  H   UNL     1       4.459   2.284  20.821  0.00  0.00    +0.000 HD
ENDBRANCH  16  18
ENDBRANCH  15  16
ENDBRANCH   4  15
ENDBRANCH   3   4
ENDBRANCH   1   3
BRANCH   1  20
ATOM     20  C   UNL     1       2.236   7.011  18.571  0.00  0.00    +0.000 C 
BRANCH  20  21
ATOM     21  N   UNL     1       1.592   8.334  18.548  0.00  0.00    +0.000 N 
ATOM     22  C   UNL     1       1.205   8.979  19.713  0.00  0.00    +0.000 C 
ATOM     23  O   UNL     1       1.468   8.531  20.827  0.00  0.00    +0.000 OA
ATOM     24  H   UNL     1       1.261   8.668  17.654  0.00  0.00    +0.000 HD
BRANCH  22  25
ATOM     25  C   UNL     1       0.350  10.209  19.590  0.00  0.00    +0.000 A 
ATOM     26  C   UNL     1       0.217  11.037  20.719  0.00  0.00    +0.000 A 
ATOM     27  C   UNL     1      -0.678  12.112  20.719  0.00  0.00    +0.000 A 
ATOM     28  C   UNL     1      -1.434  12.383  19.584  0.00  0.00    +0.000 A 
ATOM     29  C   UNL     1      -1.258  11.613  18.436  0.00  0.00    +0.000 A 
ATOM     30  C   UNL     1      -0.359  10.539  18.430  0.00  0.00    +0.000 A 
ENDBRANCH  22  25
ENDBRANCH  20  21
BRANCH  20  31
ATOM     31  C   UNL     1       2.465   6.454  19.992  0.00  0.00    +0.000 C 
BRANCH  31  32
ATOM     32  C   UNL     1       2.045   5.027  20.180  0.00  0.00    +0.000 A 
ATOM     33  C   UNL     1       1.345   4.349  19.176  0.00  0.00    +0.000 A 
ATOM     34  C   UNL     1       0.887   3.053  19.400  0.00  0.00    +0.000 A 
ATOM     35  C   UNL     1       1.148   2.423  20.618  0.00  0.00    +0.000 A 
ATOM     36  C   UNL     1       1.896   3.073  21.597  0.00  0.00    +0.000 A 
ATOM     37  C   UNL     1       2.353   4.368  21.376  0.00  0.00    +0.000 A 
ENDBRANCH  31  32
ENDBRANCH  20  31
ENDBRANCH   1  20
TORSDOF 12
ENDMDL
MODEL 7
REMARK VINA RESULT:      -7.7      3.644      6.428
REMARK  Name = 
REMARK  13 active torsions:
REMARK  status: ('A' for Active; 'I' for Inactive)
REMARK    1  A    between atoms: C_1  and  C_2
REMARK    2  A    between atoms: C_5  and  S_6
REMARK    3  A    between atoms: S_6  and  N_9
REMARK    4  A    between atoms: N_9  and  C_10
REMARK    5  A    between atoms: N_9  and  C_14
REMARK    6  A    between atoms: C_10  and  C_11
REMARK    7  A    between atoms: C_11  and  O_13
REMARK    8  A    between atoms: C_14  and  C_15
REMARK    9  A    between atoms: C_15  and  C_17
REMARK   10  A    between atoms: C_17  and  C_18
REMARK   11  A    between atoms: C_17  and  N_25
REMARK   12  A    between atoms: C_18  and  C_19
REMARK   13  A    between atoms: C_26  and  C_28
REMARK                            x       y       z     vdW  Elec       q    Type
REMARK                         _______ _______ _______ _____ _____    ______ ____
ROOT
ATOM      1  C   UNL     1       2.125   8.393  18.530  0.00  0.00    +0.000 C 
ATOM      2  O   UNL     1       2.575   8.941  17.521  0.00  0.00    +0.000 OA
ENDROOT
BRANCH   1   3
ATOM      3  C   UNL     1       0.812   8.815  19.137  0.00  0.00    +0.000 C 
BRANCH   3   4
ATOM      4  N   UNL     1       0.814   9.835  20.252  0.00  0.00    +0.000 NA
BRANCH   4   5
ATOM      5  S   UNL     1       0.243  11.373  19.713  0.00  0.00    +0.000 S 
ATOM      6  O   UNL     1      -0.596  11.888  20.776  0.00  0.00    +0.000 OA
ATOM      7  O   UNL     1      -0.213  11.240  18.350  0.00  0.00    +0.000 OA
BRANCH   5  12
ATOM      8  C   UNL     1       4.460  15.643  19.091  0.00  0.00    +0.000 C 
ATOM      9  C   UNL     1       3.541  14.472  19.278  0.00  0.00    +0.000 A 
ATOM     10  C   UNL     1       3.162  13.679  18.185  0.00  0.00    +0.000 A 
ATOM     11  C   UNL     1       2.219  12.666  18.341  0.00  0.00    +0.000 A 
ATOM     12  C   UNL     1       1.662  12.439  19.596  0.00  0.00    +0.000 A 
ATOM     13  C   UNL     1       2.045  13.197  20.701  0.00  0.00    +0.000 A 
ATOM     14  C   UNL     1       2.985  14.216  20.540  0.00  0.00    +0.000 A 
ENDBRANCH   5  12
ENDBRANCH   4   5
BRANCH   4  15
ATOM     15  C   UNL     1       0.061   9.292  21.432  0.00  0.00    +0.000 C 
BRANCH  15  16
ATOM     16  C   UNL     1       0.740   9.433  22.781  0.00  0.00    +0.000 C 
ATOM     17  O   UNL     1       1.947   9.492  22.960  0.00  0.00    +0.000 OA
BRANCH  16  18
ATOM     18  O   UNL     1      -0.102   9.470  23.833  0.00  0.00    +0.000 OA
ATOM     19  H   UNL     1      -0.568   8.607  23.826  0.00  0.00    +0.000 HD
ENDBRANCH  16  18
ENDBRANCH  15  16
ENDBRANCH   4  15
ENDBRANCH   3   4
ENDBRANCH   1   3
BRANCH   1  20
ATOM     20  C   UNL     1       2.819   7.158  19.117  0.00  0.00    +0.000 C 
BRANCH  20  21
ATOM     21  N   UNL     1       3.467   6.366  18.060  0.00  0.00    +0.000 N 
ATOM     22  C   UNL     1       4.680   5.726  18.265  0.00  0.00    +0.000 C 
ATOM     23  O   UNL     1       5.228   5.701  19.365  0.00  0.00    +0.000 OA
ATOM     24  H   UNL     1       3.102   6.466  17.123  0.00  0.00    +0.000 HD
BRANCH  22  25
ATOM     25  C   UNL     1       5.380   5.139  17.072  0.00  0.00    +0.000 A 
ATOM     26  C   UNL     1       6.674   5.602  16.770  0.00  0.00    +0.000 A 
ATOM     27  C   UNL     1       7.321   5.209  15.594  0.00  0.00    +0.000 A 
ATOM     28  C   UNL     1       6.691   4.334  14.717  0.00  0.00    +0.000 A 
ATOM     29  C   UNL     1       5.439   3.814  15.039  0.00  0.00    +0.000 A 
ATOM     30  C   UNL     1       4.790   4.199  16.219  0.00  0.00    +0.000 A 
ENDBRANCH  22  25
ENDBRANCH  20  21
BRANCH  20  31
ATOM     31  C   UNL     1       1.723   6.390  19.888  0.00  0.00    +0.000 C 
BRANCH  31  32
ATOM     32  C   UNL     1       1.829   4.897  19.803  0.00  0.00    +0.000 A 
ATOM     33  C   UNL     1       1.402   4.212  18.660  0.00  0.00    +0.000 A 
ATOM     34  C   UNL     1       1.427   2.820  18.632  0.00  0.00    +0.000 A 
ATOM     35  C   UNL     1       1.902   2.110  19.736  0.00  0.00    +0.000 A 
ATOM     36  C   UNL     1       2.384   2.790  20.851  0.00  0.00    +0.000 A 
ATOM     37  C   UNL     1       2.358   4.180  20.882  0.00  0.00    +0.000 A 
ENDBRANCH  31  32
ENDBRANCH  20  31
ENDBRANCH   1  20
TORSDOF 12
ENDMDL
MODEL 8
REMARK VINA RESULT:      -7.6      3.587      6.482
REMARK  Name = 
REMARK  13 active torsions:
REMARK  status: ('A' for Active; 'I' for Inactive)
REMARK    1  A    between atoms: C_1  and  C_2
REMARK    2  A    between atoms: C_5  and  S_6
REMARK    3  A    between atoms: S_6  and  N_9
REMARK    4  A    between atoms: N_9  and  C_10
REMARK    5  A    between atoms: N_9  and  C_14
REMARK    6  A    between atoms: C_10  and  C_11
REMARK    7  A    between atoms: C_11  and  O_13
REMARK    8  A    between atoms: C_14  and  C_15
REMARK    9  A    between atoms: C_15  and  C_17
REMARK   10  A    between atoms: C_17  and  C_18
REMARK   11  A    between atoms: C_17  and  N_25
REMARK   12  A    between atoms: C_18  and  C_19
REMARK   13  A    between atoms: C_26  and  C_28
REMARK                            x       y       z     vdW  Elec       q    Type
REMARK                         _______ _______ _______ _____ _____    ______ ____
ROOT
ATOM      1  C   UNL     1       2.017   8.485  18.642  0.00  0.00    +0.000 C 
ATOM      2  O   UNL     1       2.595   9.106  17.747  0.00  0.00    +0.000 OA
ENDROOT
BRANCH   1   3
ATOM      3  C   UNL     1       0.634   8.870  19.103  0.00  0.00    +0.000 C 
BRANCH   3   4
ATOM      4  N   UNL     1       0.486   9.928  20.171  0.00  0.00    +0.000 NA
BRANCH   4   5
ATOM      5  S   UNL     1      -0.400  11.295  19.598  0.00  0.00    +0.000 S 
ATOM      6  O   UNL     1      -1.235  11.727  20.700  0.00  0.00    +0.000 OA
ATOM      7  O   UNL     1      -0.927  10.984  18.291  0.00  0.00    +0.000 OA
BRANCH   5  12
ATOM      8  C   UNL     1       3.294  15.677  17.713  0.00  0.00    +0.000 C 
ATOM      9  C   UNL     1       2.456  14.599  18.335  0.00  0.00    +0.000 A 
ATOM     10  C   UNL     1       2.843  13.254  18.248  0.00  0.00    +0.000 A 
ATOM     11  C   UNL     1       2.005  12.247  18.723  0.00  0.00    +0.000 A 
ATOM     12  C   UNL     1       0.784  12.588  19.295  0.00  0.00    +0.000 A 
ATOM     13  C   UNL     1       0.393  13.920  19.416  0.00  0.00    +0.000 A 
ATOM     14  C   UNL     1       1.230  14.927  18.933  0.00  0.00    +0.000 A 
ENDBRANCH   5  12
ENDBRANCH   4   5
BRANCH   4  15
ATOM     15  C   UNL     1      -0.091   9.313  21.413  0.00  0.00    +0.000 C 
BRANCH  15  16
ATOM     16  C   UNL     1       0.751   9.428  22.669  0.00  0.00    +0.000 C 
ATOM     17  O   UNL     1       0.336   9.756  23.770  0.00  0.00    +0.000 OA
BRANCH  16  18
ATOM     18  O   UNL     1       2.060   9.156  22.494  0.00  0.00    +0.000 OA
ATOM     19  H   UNL     1       2.099   8.525  21.745  0.00  0.00    +0.000 HD
ENDBRANCH  16  18
ENDBRANCH  15  16
ENDBRANCH   4  15
ENDBRANCH   3   4
ENDBRANCH   1   3
BRANCH   1  20
ATOM     20  C   UNL     1       2.628   7.201  19.216  0.00  0.00    +0.000 C 
BRANCH  20  21
ATOM     21  N   UNL     1       3.403   6.484  18.190  0.00  0.00    +0.000 N 
ATOM     22  C   UNL     1       4.611   5.867  18.484  0.00  0.00    +0.000 C 
ATOM     23  O   UNL     1       5.048   5.800  19.631  0.00  0.00    +0.000 OA
ATOM     24  H   UNL     1       3.130   6.622  17.228  0.00  0.00    +0.000 HD
BRANCH  22  25
ATOM     25  C   UNL     1       5.444   5.364  17.340  0.00  0.00    +0.000 A 
ATOM     26  C   UNL     1       4.845   5.286  16.070  0.00  0.00    +0.000 A 
ATOM     27  C   UNL     1       5.513   4.689  14.996  0.00  0.00    +0.000 A 
ATOM     28  C   UNL     1       6.795   4.182  15.175  0.00  0.00    +0.000 A 
ATOM     29  C   UNL     1       7.426   4.316  16.410  0.00  0.00    +0.000 A 
ATOM     30  C   UNL     1       6.763   4.919  17.487  0.00  0.00    +0.000 A 
ENDBRANCH  22  25
ENDBRANCH  20  21
BRANCH  20  31
ATOM     31  C   UNL     1       1.443   6.390  19.781  0.00  0.00    +0.000 C 
BRANCH  31  32
ATOM     32  C   UNL     1       1.685   4.913  19.876  0.00  0.00    +0.000 A 
ATOM     33  C   UNL     1       2.207   4.347  21.044  0.00  0.00    +0.000 A 
ATOM     34  C   UNL     1       2.507   2.987  21.085  0.00  0.00    +0.000 A 
ATOM     35  C   UNL     1       2.263   2.187  19.968  0.00  0.00    +0.000 A 
ATOM     36  C   UNL     1       1.687   2.736  18.825  0.00  0.00    +0.000 A 
ATOM     37  C   UNL     1       1.388   4.093  18.781  0.00  0.00    +0.000 A 
ENDBRANCH  31  32
ENDBRANCH  20  31
ENDBRANCH   1  20
TORSDOF 12
ENDMDL
MODEL 9
REMARK VINA RESULT:      -7.6      2.861      8.532
REMARK  Name = 
REMARK  13 active torsions:
REMARK  status: ('A' for Active; 'I' for Inactive)
REMARK    1  A    between atoms: C_1  and  C_2
REMARK    2  A    between atoms: C_5  and  S_6
REMARK    3  A    between atoms: S_6  and  N_9
REMARK    4  A    between atoms: N_9  and  C_10
REMARK    5  A    between atoms: N_9  and  C_14
REMARK    6  A    between atoms: C_10  and  C_11
REMARK    7  A    between atoms: C_11  and  O_13
REMARK    8  A    between atoms: C_14  and  C_15
REMARK    9  A    between atoms: C_15  and  C_17
REMARK   10  A    between atoms: C_17  and  C_18
REMARK   11  A    between atoms: C_17  and  N_25
REMARK   12  A    between atoms: C_18  and  C_19
REMARK   13  A    between atoms: C_26  and  C_28
REMARK                            x       y       z     vdW  Elec       q    Type
REMARK                         _______ _______ _______ _____ _____    ______ ____
ROOT
ATOM      1  C   UNL     1       3.098   6.934  18.677  0.00  0.00    +0.000 C 
ATOM      2  O   UNL     1       2.977   7.407  17.545  0.00  0.00    +0.000 OA
ENDROOT
BRANCH   1   3
ATOM      3  C   UNL     1       4.412   6.378  19.164  0.00  0.00    +0.000 C 
BRANCH   3   4
ATOM      4  N   UNL     1       4.983   5.151  18.492  0.00  0.00    +0.000 NA
BRANCH   4   5
ATOM      5  S   UNL     1       6.475   5.495  17.693  0.00  0.00    +0.000 S 
ATOM      6  O   UNL     1       7.450   4.576  18.245  0.00  0.00    +0.000 OA
ATOM      7  O   UNL     1       6.667   6.925  17.678  0.00  0.00    +0.000 OA
BRANCH   5  12
ATOM      8  C   UNL     1       6.090   3.234  12.113  0.00  0.00    +0.000 C 
ATOM      9  C   UNL     1       6.123   3.943  13.434  0.00  0.00    +0.000 A 
ATOM     10  C   UNL     1       7.273   4.631  13.847  0.00  0.00    +0.000 A 
ATOM     11  C   UNL     1       7.343   5.189  15.122  0.00  0.00    +0.000 A 
ATOM     12  C   UNL     1       6.255   5.067  15.981  0.00  0.00    +0.000 A 
ATOM     13  C   UNL     1       5.093   4.411  15.581  0.00  0.00    +0.000 A 
ATOM     14  C   UNL     1       5.028   3.847  14.305  0.00  0.00    +0.000 A 
ENDBRANCH   5  12
ENDBRANCH   4   5
BRANCH   4  15
ATOM     15  C   UNL     1       5.076   4.030  19.486  0.00  0.00    +0.000 C 
BRANCH  15  16
ATOM     16  C   UNL     1       4.600   2.671  19.007  0.00  0.00    +0.000 C 
ATOM     17  O   UNL     1       3.901   2.474  18.025  0.00  0.00    +0.000 OA
BRANCH  16  18
ATOM     18  O   UNL     1       4.992   1.636  19.776  0.00  0.00    +0.000 OA
ATOM     19  H   UNL     1       5.937   1.802  19.978  0.00  0.00    +0.000 HD
ENDBRANCH  16  18
ENDBRANCH  15  16
ENDBRANCH   4  15
ENDBRANCH   3   4
ENDBRANCH   1   3
BRANCH   1  20
ATOM     20  C   UNL     1       1.948   7.032  19.687  0.00  0.00    +0.000 C 
BRANCH  20  21
ATOM     21  N   UNL     1       1.749   8.423  20.124  0.00  0.00    +0.000 N 
ATOM     22  C   UNL     1       0.673   8.794  20.917  0.00  0.00    +0.000 C 
ATOM     23  O   UNL     1      -0.113   7.970  21.379  0.00  0.00    +0.000 OA
ATOM     24  H   UNL     1       2.307   9.132  19.668  0.00  0.00    +0.000 HD
BRANCH  22  25
ATOM     25  C   UNL     1       0.418  10.261  21.121  0.00  0.00    +0.000 A 
ATOM     26  C   UNL     1      -0.336  10.651  22.243  0.00  0.00    +0.000 A 
ATOM     27  C   UNL     1      -0.735  11.981  22.412  0.00  0.00    +0.000 A 
ATOM     28  C   UNL     1      -0.368  12.938  21.474  0.00  0.00    +0.000 A 
ATOM     29  C   UNL     1       0.438  12.577  20.396  0.00  0.00    +0.000 A 
ATOM     30  C   UNL     1       0.845  11.248  20.225  0.00  0.00    +0.000 A 
ENDBRANCH  22  25
ENDBRANCH  20  21
BRANCH  20  31
ATOM     31  C   UNL     1       2.314   6.065  20.833  0.00  0.00    +0.000 C 
BRANCH  31  32
ATOM     32  C   UNL     1       1.889   4.644  20.611  0.00  0.00    +0.000 A 
ATOM     33  C   UNL     1       1.241   4.267  19.430  0.00  0.00    +0.000 A 
ATOM     34  C   UNL     1       0.777   2.962  19.276  0.00  0.00    +0.000 A 
ATOM     35  C   UNL     1       0.980   2.027  20.292  0.00  0.00    +0.000 A 
ATOM     36  C   UNL     1       1.677   2.384  21.443  0.00  0.00    +0.000 A 
ATOM     37  C   UNL     1       2.140   3.686  21.600  0.00  0.00    +0.000 A 
ENDBRANCH  31  32
ENDBRANCH  20  31
ENDBRANCH   1  20
TORSDOF 12
ENDMDL
