MODEL 1
REMARK VINA RESULT:      -8.8      0.000      0.000
REMARK  Name = 
REMARK  5 active torsions:
REMARK  status: ('A' for Active; 'I' for Inactive)
REMARK    1  A    between atoms: C_1  and  O_2
REMARK    2  A    between atoms: O_2  and  C_3
REMARK    3  A    between atoms: C_8  and  C_9
REMARK    4  A    between atoms: N_17  and  C_18
REMARK    5  A    between atoms: C_18  and  C_19
REMARK                            x       y       z     vdW  Elec       q    Type
REMARK                         _______ _______ _______ _____ _____    ______ ____
ROOT
ATOM      1  C   UNL     1       4.313   3.582  17.417  0.00  0.00    +0.000 A 
ATOM      2  C   UNL     1       3.871   2.258  17.421  0.00  0.00    +0.000 A 
ATOM      3  C   UNL     1       3.028   1.784  18.441  0.00  0.00    +0.000 A 
ATOM      4  C   UNL     1       2.553   2.609  19.455  0.00  0.00    +0.000 A 
ATOM      5  N   UNL     1       1.780   2.085  20.411  0.00  0.00    +0.000 NA
ATOM      6  C   UNL     1       1.351   2.926  21.359  0.00  0.00    +0.000 A 
ATOM      7  N   UNL     1       1.566   4.247  21.405  0.00  0.00    +0.000 NA
ATOM      8  C   UNL     1       2.341   4.767  20.440  0.00  0.00    +0.000 A 
ATOM      9  N   UNL     1       2.514   6.145  20.553  0.00  0.00    +0.000 N 
ATOM     10  C   UNL     1       2.926   3.956  19.443  0.00  0.00    +0.000 A 
ATOM     11  C   UNL     1       3.852   4.386  18.458  0.00  0.00    +0.000 A 
ATOM     12  H   UNL     1       1.842   6.464  21.249  0.00  0.00    +0.000 HD
ENDROOT
BRANCH   1  18
ATOM     13  C   UNL     1       6.648   4.489  16.819  0.00  0.00    +0.000 A 
ATOM     14  C   UNL     1       7.573   4.826  15.823  0.00  0.00    +0.000 A 
ATOM     15  C   UNL     1       7.196   4.855  14.482  0.00  0.00    +0.000 A 
ATOM     16  C   UNL     1       5.899   4.533  14.120  0.00  0.00    +0.000 A 
ATOM     17  C   UNL     1       4.978   4.155  15.099  0.00  0.00    +0.000 A 
ATOM     18  C   UNL     1       5.320   4.109  16.464  0.00  0.00    +0.000 A 
BRANCH  13  20
ATOM     19  C   UNL     1       7.474   5.690  18.694  0.00  0.00    +0.000 C 
ATOM     20  O   UNL     1       7.003   4.454  18.153  0.00  0.00    +0.000 OA
ENDBRANCH  13  20
ENDBRANCH   1  18
BRANCH   9  21
ATOM     21  C   UNL     1       2.559   6.963  19.353  0.00  0.00    +0.000 C 
BRANCH  21  22
ATOM     22  C   UNL     1       1.789   8.245  19.510  0.00  0.00    +0.000 A 
ATOM     23  C   UNL     1       1.621   9.098  18.409  0.00  0.00    +0.000 A 
ATOM     24  C   UNL     1       0.814  10.226  18.518  0.00  0.00    +0.000 A 
ATOM     25  C   UNL     1       0.168  10.507  19.720  0.00  0.00    +0.000 A 
ATOM     26  C   UNL     1       0.326   9.660  20.817  0.00  0.00    +0.000 A 
ATOM     27  C   UNL     1       1.132   8.529  20.712  0.00  0.00    +0.000 A 
ENDBRANCH  21  22
ENDBRANCH   9  21
TORSDOF 4
ENDMDL
MODEL 2
REMARK VINA RESULT:      -8.5      2.743      6.581
REMARK  Name = 
REMARK  5 active torsions:
REMARK  status: ('A' for Active; 'I' for Inactive)
REMARK    1  A    between atoms: C_1  and  O_2
REMARK    2  A    between atoms: O_2  and  C_3
REMARK    3  A    between atoms: C_8  and  C_9
REMARK    4  A    between atoms: N_17  and  C_18
REMARK    5  A    between atoms: C_18  and  C_19
REMARK                            x       y       z     vdW  Elec       q    Type
REMARK                         _______ _______ _______ _____ _____    ______ ____
ROOT
ATOM      1  C   UNL     1       3.412   6.948  17.912  0.00  0.00    +0.000 A 
ATOM      2  C   UNL     1       4.113   7.794  17.051  0.00  0.00    +0.000 A 
ATOM      3  C   UNL     1       5.060   7.280  16.150  0.00  0.00    +0.000 A 
ATOM      4  C   UNL     1       5.309   5.916  16.031  0.00  0.00    +0.000 A 
ATOM      5  N   UNL     1       6.246   5.499  15.175  0.00  0.00    +0.000 NA
ATOM      6  C   UNL     1       6.440   4.177  15.102  0.00  0.00    +0.000 A 
ATOM      7  N   UNL     1       5.744   3.235  15.751  0.00  0.00    +0.000 NA
ATOM      8  C   UNL     1       4.802   3.662  16.607  0.00  0.00    +0.000 A 
ATOM      9  N   UNL     1       4.119   2.625  17.238  0.00  0.00    +0.000 N 
ATOM     10  C   UNL     1       4.577   5.037  16.834  0.00  0.00    +0.000 A 
ATOM     11  C   UNL     1       3.696   5.588  17.800  0.00  0.00    +0.000 A 
ATOM     12  H   UNL     1       4.375   1.770  16.748  0.00  0.00    +0.000 HD
ENDROOT
BRANCH   1  18
ATOM     13  C   UNL     1       1.821   8.678  18.965  0.00  0.00    +0.000 A 
ATOM     14  C   UNL     1       0.873   8.974  19.952  0.00  0.00    +0.000 A 
ATOM     15  C   UNL     1       0.637   8.089  21.001  0.00  0.00    +0.000 A 
ATOM     16  C   UNL     1       1.330   6.893  21.067  0.00  0.00    +0.000 A 
ATOM     17  C   UNL     1       2.248   6.565  20.067  0.00  0.00    +0.000 A 
ATOM     18  C   UNL     1       2.513   7.431  18.989  0.00  0.00    +0.000 A 
BRANCH  13  20
ATOM     19  C   UNL     1       1.931  10.931  18.225  0.00  0.00    +0.000 C 
ATOM     20  O   UNL     1       2.069   9.543  17.917  0.00  0.00    +0.000 OA
ENDBRANCH  13  20
ENDBRANCH   1  18
BRANCH   9  21
ATOM     21  C   UNL     1       2.694   2.757  17.496  0.00  0.00    +0.000 C 
BRANCH  21  22
ATOM     22  C   UNL     1       2.379   2.742  18.966  0.00  0.00    +0.000 A 
ATOM     23  C   UNL     1       3.406   2.529  19.898  0.00  0.00    +0.000 A 
ATOM     24  C   UNL     1       3.143   2.629  21.261  0.00  0.00    +0.000 A 
ATOM     25  C   UNL     1       1.858   2.945  21.700  0.00  0.00    +0.000 A 
ATOM     26  C   UNL     1       0.835   3.164  20.779  0.00  0.00    +0.000 A 
ATOM     27  C   UNL     1       1.094   3.066  19.414  0.00  0.00    +0.000 A 
ENDBRANCH  21  22
ENDBRANCH   9  21
TORSDOF 4
ENDMDL
MODEL 3
REMARK VINA RESULT:      -8.3      1.507      2.560
REMARK  Name = 
REMARK  5 active torsions:
REMARK  status: ('A' for Active; 'I' for Inactive)
REMARK    1  A    between atoms: C_1  and  O_2
REMARK    2  A    between atoms: O_2  and  C_3
REMARK    3  A    between atoms: C_8  and  C_9
REMARK    4  A    between atoms: N_17  and  C_18
REMARK    5  A    between atoms: C_18  and  C_19
REMARK                            x       y       z     vdW  Elec       q    Type
REMARK                         _______ _______ _______ _____ _____    ______ ____
ROOT
ATOM      1  C   UNL     1       4.923   4.953  18.318  0.00  0.00    +0.000 A 
ATOM      2  C   UNL     1       4.773   3.724  17.675  0.00  0.00    +0.000 A 
ATOM      3  C   UNL     1       3.678   2.891  17.961  0.00  0.00    +0.000 A 
ATOM      4  C   UNL     1       2.672   3.264  18.846  0.00  0.00    +0.000 A 
ATOM      5  N   UNL     1       1.675   2.409  19.096  0.00  0.00    +0.000 NA
ATOM      6  C   UNL     1       0.736   2.823  19.954  0.00  0.00    +0.000 A 
ATOM      7  N   UNL     1       0.664   4.028  20.531  0.00  0.00    +0.000 NA
ATOM      8  C   UNL     1       1.667   4.883  20.274  0.00  0.00    +0.000 A 
ATOM      9  N   UNL     1       1.518   6.116  20.905  0.00  0.00    +0.000 N 
ATOM     10  C   UNL     1       2.760   4.518  19.458  0.00  0.00    +0.000 A 
ATOM     11  C   UNL     1       3.921   5.297  19.225  0.00  0.00    +0.000 A 
ATOM     12  H   UNL     1       0.567   6.141  21.269  0.00  0.00    +0.000 HD
ENDROOT
BRANCH   1  18
ATOM     13  C   UNL     1       6.302   6.796  17.163  0.00  0.00    +0.000 A 
ATOM     14  C   UNL     1       7.399   7.666  17.210  0.00  0.00    +0.000 A 
ATOM     15  C   UNL     1       8.361   7.544  18.210  0.00  0.00    +0.000 A 
ATOM     16  C   UNL     1       8.230   6.567  19.181  0.00  0.00    +0.000 A 
ATOM     17  C   UNL     1       7.120   5.720  19.171  0.00  0.00    +0.000 A 
ATOM     18  C   UNL     1       6.124   5.812  18.180  0.00  0.00    +0.000 A 
BRANCH  13  20
ATOM     19  C   UNL     1       5.492   6.011  15.073  0.00  0.00    +0.000 C 
ATOM     20  O   UNL     1       5.338   6.901  16.180  0.00  0.00    +0.000 OA
ENDBRANCH  13  20
ENDBRANCH   1  18
BRANCH   9  21
ATOM     21  C   UNL     1       1.920   7.329  20.214  0.00  0.00    +0.000 C 
BRANCH  21  22
ATOM     22  C   UNL     1       1.212   8.546  20.744  0.00  0.00    +0.000 A 
ATOM     23  C   UNL     1       0.834   9.571  19.864  0.00  0.00    +0.000 A 
ATOM     24  C   UNL     1       0.078  10.644  20.328  0.00  0.00    +0.000 A 
ATOM     25  C   UNL     1      -0.306  10.698  21.666  0.00  0.00    +0.000 A 
ATOM     26  C   UNL     1       0.061   9.679  22.544  0.00  0.00    +0.000 A 
ATOM     27  C   UNL     1       0.817   8.603  22.085  0.00  0.00    +0.000 A 
ENDBRANCH  21  22
ENDBRANCH   9  21
TORSDOF 4
ENDMDL
MODEL 4
REMARK VINA RESULT:      -8.3      3.645      6.598
REMARK  Name = 
REMARK  5 active torsions:
REMARK  status: ('A' for Active; 'I' for Inactive)
REMARK    1  A    between atoms: C_1  and  O_2
REMARK    2  A    between atoms: O_2  and  C_3
REMARK    3  A    between atoms: C_8  and  C_9
REMARK    4  A    between atoms: N_17  and  C_18
REMARK    5  A    between atoms: C_18  and  C_19
REMARK                            x       y       z     vdW  Elec       q    Type
REMARK                         _______ _______ _______ _____ _____    ______ ____
ROOT
ATOM      1  C   UNL     1       3.457   6.158  17.918  0.00  0.00    +0.000 A 
ATOM      2  C   UNL     1       3.062   4.870  17.556  0.00  0.00    +0.000 A 
ATOM      3  C   UNL     1       3.873   4.074  16.729  0.00  0.00    +0.000 A 
ATOM      4  C   UNL     1       5.118   4.500  16.278  0.00  0.00    +0.000 A 
ATOM      5  N   UNL     1       5.823   3.704  15.468  0.00  0.00    +0.000 NA
ATOM      6  C   UNL     1       7.014   4.165  15.068  0.00  0.00    +0.000 A 
ATOM      7  N   UNL     1       7.591   5.310  15.452  0.00  0.00    +0.000 NA
ATOM      8  C   UNL     1       6.879   6.103  16.267  0.00  0.00    +0.000 A 
ATOM      9  N   UNL     1       7.548   7.271  16.625  0.00  0.00    +0.000 N 
ATOM     10  C   UNL     1       5.571   5.761  16.677  0.00  0.00    +0.000 A 
ATOM     11  C   UNL     1       4.694   6.580  17.432  0.00  0.00    +0.000 A 
ATOM     12  H   UNL     1       8.514   7.154  16.327  0.00  0.00    +0.000 HD
ENDROOT
BRANCH   1  18
ATOM     13  C   UNL     1       2.140   6.914  19.998  0.00  0.00    +0.000 A 
ATOM     14  C   UNL     1       1.457   7.939  20.665  0.00  0.00    +0.000 A 
ATOM     15  C   UNL     1       1.154   9.133  20.014  0.00  0.00    +0.000 A 
ATOM     16  C   UNL     1       1.542   9.322  18.699  0.00  0.00    +0.000 A 
ATOM     17  C   UNL     1       2.261   8.326  18.035  0.00  0.00    +0.000 A 
ATOM     18  C   UNL     1       2.590   7.107  18.659  0.00  0.00    +0.000 A 
BRANCH  13  20
ATOM     19  C   UNL     1       1.387   4.774  20.698  0.00  0.00    +0.000 C 
ATOM     20  O   UNL     1       2.451   5.724  20.627  0.00  0.00    +0.000 OA
ENDBRANCH  13  20
ENDBRANCH   1  18
BRANCH   9  21
ATOM     21  C   UNL     1       7.403   7.797  17.973  0.00  0.00    +0.000 C 
BRANCH  21  22
ATOM     22  C   UNL     1       8.144   9.092  18.160  0.00  0.00    +0.000 A 
ATOM     23  C   UNL     1       7.809  10.207  17.377  0.00  0.00    +0.000 A 
ATOM     24  C   UNL     1       8.409  11.438  17.624  0.00  0.00    +0.000 A 
ATOM     25  C   UNL     1       9.342  11.564  18.652  0.00  0.00    +0.000 A 
ATOM     26  C   UNL     1       9.675  10.461  19.437  0.00  0.00    +0.000 A 
ATOM     27  C   UNL     1       9.076   9.227  19.194  0.00  0.00    +0.000 A 
ENDBRANCH  21  22
ENDBRANCH   9  21
TORSDOF 4
ENDMDL
MODEL 5
REMARK VINA RESULT:      -7.7      2.202      6.299
REMARK  Name = 
REMARK  5 active torsions:
REMARK  status: ('A' for Active; 'I' for Inactive)
REMARK    1  A    between atoms: C_1  and  O_2
REMARK    2  A    between atoms: O_2  and  C_3
REMARK    3  A    between atoms: C_8  and  C_9
REMARK    4  A    between atoms: N_17  and  C_18
REMARK    5  A    between atoms: C_18  and  C_19
REMARK                            x       y       z     vdW  Elec       q    Type
REMARK                         _______ _______ _______ _____ _____    ______ ____
ROOT
ATOM      1  C   UNL     1       2.176   6.634  19.454  0.00  0.00    +0.000 A 
ATOM      2  C   UNL     1       1.954   5.952  20.652  0.00  0.00    +0.000 A 
ATOM      3  C   UNL     1       2.207   4.574  20.753  0.00  0.00    +0.000 A 
ATOM      4  C   UNL     1       2.734   3.836  19.697  0.00  0.00    +0.000 A 
ATOM      5  N   UNL     1       2.920   2.522  19.852  0.00  0.00    +0.000 NA
ATOM      6  C   UNL     1       3.431   1.865  18.805  0.00  0.00    +0.000 A 
ATOM      7  N   UNL     1       3.834   2.405  17.648  0.00  0.00    +0.000 NA
ATOM      8  C   UNL     1       3.646   3.726  17.500  0.00  0.00    +0.000 A 
ATOM      9  N   UNL     1       4.094   4.214  16.275  0.00  0.00    +0.000 N 
ATOM     10  C   UNL     1       3.028   4.503  18.504  0.00  0.00    +0.000 A 
ATOM     11  C   UNL     1       2.675   5.873  18.398  0.00  0.00    +0.000 A 
ATOM     12  H   UNL     1       4.640   3.467  15.849  0.00  0.00    +0.000 HD
ENDROOT
BRANCH   1  18
ATOM     13  C   UNL     1       1.151   8.876  20.199  0.00  0.00    +0.000 A 
ATOM     14  C   UNL     1       0.971  10.243  19.949  0.00  0.00    +0.000 A 
ATOM     15  C   UNL     1       1.356  10.800  18.732  0.00  0.00    +0.000 A 
ATOM     16  C   UNL     1       1.939  10.005  17.760  0.00  0.00    +0.000 A 
ATOM     17  C   UNL     1       2.163   8.650  18.011  0.00  0.00    +0.000 A 
ATOM     18  C   UNL     1       1.791   8.049  19.229  0.00  0.00    +0.000 A 
BRANCH  13  20
ATOM     19  C   UNL     1      -0.347   8.912  22.041  0.00  0.00    +0.000 C 
ATOM     20  O   UNL     1       0.776   8.306  21.400  0.00  0.00    +0.000 OA
ENDBRANCH  13  20
ENDBRANCH   1  18
BRANCH   9  21
ATOM     21  C   UNL     1       4.725   5.522  16.211  0.00  0.00    +0.000 C 
BRANCH  21  22
ATOM     22  C   UNL     1       6.001   5.577  17.006  0.00  0.00    +0.000 A 
ATOM     23  C   UNL     1       6.321   6.733  17.732  0.00  0.00    +0.000 A 
ATOM     24  C   UNL     1       7.439   6.749  18.561  0.00  0.00    +0.000 A 
ATOM     25  C   UNL     1       8.239   5.613  18.672  0.00  0.00    +0.000 A 
ATOM     26  C   UNL     1       7.923   4.458  17.958  0.00  0.00    +0.000 A 
ATOM     27  C   UNL     1       6.804   4.438  17.128  0.00  0.00    +0.000 A 
ENDBRANCH  21  22
ENDBRANCH   9  21
TORSDOF 4
ENDMDL
MODEL 6
REMARK VINA RESULT:      -7.5      1.691      4.930
REMARK  Name = 
REMARK  5 active torsions:
REMARK  status: ('A' for Active; 'I' for Inactive)
REMARK    1  A    between atoms: C_1  and  O_2
REMARK    2  A    between atoms: O_2  and  C_3
REMARK    3  A    between atoms: C_8  and  C_9
REMARK    4  A    between atoms: N_17  and  C_18
REMARK    5  A    between atoms: C_18  and  C_19
REMARK                            x       y       z     vdW  Elec       q    Type
REMARK                         _______ _______ _______ _____ _____    ______ ____
ROOT
ATOM      1  C   UNL     1       3.791   6.817  17.642  0.00  0.00    +0.000 A 
ATOM      2  C   UNL     1       3.696   8.179  17.349  0.00  0.00    +0.000 A 
ATOM      3  C   UNL     1       2.788   9.002  18.035  0.00  0.00    +0.000 A 
ATOM      4  C   UNL     1       1.984   8.524  19.065  0.00  0.00    +0.000 A 
ATOM      5  N   UNL     1       1.119   9.355  19.654  0.00  0.00    +0.000 NA
ATOM      6  C   UNL     1       0.374   8.840  20.639  0.00  0.00    +0.000 A 
ATOM      7  N   UNL     1       0.459   7.599  21.133  0.00  0.00    +0.000 NA
ATOM      8  C   UNL     1       1.331   6.770  20.538  0.00  0.00    +0.000 A 
ATOM      9  N   UNL     1       1.366   5.501  21.110  0.00  0.00    +0.000 N 
ATOM     10  C   UNL     1       2.101   7.179  19.427  0.00  0.00    +0.000 A 
ATOM     11  C   UNL     1       2.956   6.350  18.657  0.00  0.00    +0.000 A 
ATOM     12  H   UNL     1       0.844   5.563  21.983  0.00  0.00    +0.000 HD
ENDROOT
BRANCH   1  18
ATOM     13  C   UNL     1       5.948   6.112  16.426  0.00  0.00    +0.000 A 
ATOM     14  C   UNL     1       6.698   5.089  15.831  0.00  0.00    +0.000 A 
ATOM     15  C   UNL     1       6.134   3.837  15.600  0.00  0.00    +0.000 A 
ATOM     16  C   UNL     1       4.824   3.587  15.973  0.00  0.00    +0.000 A 
ATOM     17  C   UNL     1       4.079   4.584  16.605  0.00  0.00    +0.000 A 
ATOM     18  C   UNL     1       4.613   5.862  16.860  0.00  0.00    +0.000 A 
BRANCH  13  20
ATOM     19  C   UNL     1       7.584   7.387  17.584  0.00  0.00    +0.000 C 
ATOM     20  O   UNL     1       6.490   7.360  16.664  0.00  0.00    +0.000 OA
ENDBRANCH  13  20
ENDBRANCH   1  18
BRANCH   9  21
ATOM     21  C   UNL     1       2.633   4.799  21.226  0.00  0.00    +0.000 C 
BRANCH  21  22
ATOM     22  C   UNL     1       2.708   3.606  20.315  0.00  0.00    +0.000 A 
ATOM     23  C   UNL     1       1.573   3.206  19.593  0.00  0.00    +0.000 A 
ATOM     24  C   UNL     1       1.666   2.176  18.662  0.00  0.00    +0.000 A 
ATOM     25  C   UNL     1       2.888   1.542  18.445  0.00  0.00    +0.000 A 
ATOM     26  C   UNL     1       4.021   1.938  19.154  0.00  0.00    +0.000 A 
ATOM     27  C   UNL     1       3.933   2.970  20.086  0.00  0.00    +0.000 A 
ENDBRANCH  21  22
ENDBRANCH   9  21
TORSDOF 4
ENDMDL
MODEL 7
REMARK VINA RESULT:      -7.4      3.998      6.930
REMARK  Name = 
REMARK  5 active torsions:
REMARK  status: ('A' for Active; 'I' for Inactive)
REMARK    1  A    between atoms: C_1  and  O_2
REMARK    2  A    between atoms: O_2  and  C_3
REMARK    3  A    between atoms: C_8  and  C_9
REMARK    4  A    between atoms: N_17  and  C_18
REMARK    5  A    between atoms: C_18  and  C_19
REMARK                            x       y       z     vdW  Elec       q    Type
REMARK                         _______ _______ _______ _____ _____    ______ ____
ROOT
ATOM      1  C   UNL     1       1.265   8.565  20.531  0.00  0.00    +0.000 A 
ATOM      2  C   UNL     1       1.081   8.283  21.885  0.00  0.00    +0.000 A 
ATOM      3  C   UNL     1       0.446   9.207  22.733  0.00  0.00    +0.000 A 
ATOM      4  C   UNL     1      -0.074  10.410  22.264  0.00  0.00    +0.000 A 
ATOM      5  N   UNL     1      -0.637  11.256  23.131  0.00  0.00    +0.000 NA
ATOM      6  C   UNL     1      -1.121  12.395  22.623  0.00  0.00    +0.000 A 
ATOM      7  N   UNL     1      -1.153  12.737  21.329  0.00  0.00    +0.000 NA
ATOM      8  C   UNL     1      -0.588  11.881  20.463  0.00  0.00    +0.000 A 
ATOM      9  N   UNL     1      -0.666  12.303  19.138  0.00  0.00    +0.000 N 
ATOM     10  C   UNL     1       0.038  10.692  20.899  0.00  0.00    +0.000 A 
ATOM     11  C   UNL     1       0.766   9.788  20.085  0.00  0.00    +0.000 A 
ATOM     12  H   UNL     1      -1.314  13.088  19.123  0.00  0.00    +0.000 HD
ENDROOT
BRANCH   1  18
ATOM     13  C   UNL     1       2.268   6.310  19.793  0.00  0.00    +0.000 A 
ATOM     14  C   UNL     1       2.895   5.559  18.791  0.00  0.00    +0.000 A 
ATOM     15  C   UNL     1       3.375   6.173  17.637  0.00  0.00    +0.000 A 
ATOM     16  C   UNL     1       3.220   7.538  17.463  0.00  0.00    +0.000 A 
ATOM     17  C   UNL     1       2.560   8.293  18.434  0.00  0.00    +0.000 A 
ATOM     18  C   UNL     1       2.057   7.709  19.613  0.00  0.00    +0.000 A 
BRANCH  13  20
ATOM     19  C   UNL     1       1.881   4.294  20.986  0.00  0.00    +0.000 C 
ATOM     20  O   UNL     1       1.784   5.719  20.944  0.00  0.00    +0.000 OA
ENDBRANCH  13  20
ENDBRANCH   1  18
BRANCH   9  21
ATOM     21  C   UNL     1      -0.893  11.326  18.086  0.00  0.00    +0.000 C 
BRANCH  21  22
ATOM     22  C   UNL     1      -2.335  11.269  17.665  0.00  0.00    +0.000 A 
ATOM     23  C   UNL     1      -3.339  11.686  18.552  0.00  0.00    +0.000 A 
ATOM     24  C   UNL     1      -4.663  11.745  18.128  0.00  0.00    +0.000 A 
ATOM     25  C   UNL     1      -4.992  11.394  16.821  0.00  0.00    +0.000 A 
ATOM     26  C   UNL     1      -3.999  10.984  15.932  0.00  0.00    +0.000 A 
ATOM     27  C   UNL     1      -2.672  10.924  16.351  0.00  0.00    +0.000 A 
ENDBRANCH  21  22
ENDBRANCH   9  21
TORSDOF 4
ENDMDL
MODEL 8
REMARK VINA RESULT:      -7.4      3.662      6.523
REMARK  Name = 
REMARK  5 active torsions:
REMARK  status: ('A' for Active; 'I' for Inactive)
REMARK    1  A    between atoms: C_1  and  O_2
REMARK    2  A    between atoms: O_2  and  C_3
REMARK    3  A    between atoms: C_8  and  C_9
REMARK    4  A    between atoms: N_17  and  C_18
REMARK    5  A    between atoms: C_18  and  C_19
REMARK                            x       y       z     vdW  Elec       q    Type
REMARK                         _______ _______ _______ _____ _____    ______ ____
ROOT
ATOM      1  C   UNL     1       1.715   7.980  20.218  0.00  0.00    +0.000 A 
ATOM      2  C   UNL     1       1.752   7.977  21.613  0.00  0.00    +0.000 A 
ATOM      3  C   UNL     1       1.216   9.046  22.350  0.00  0.00    +0.000 A 
ATOM      4  C   UNL     1       0.580  10.124  21.741  0.00  0.00    +0.000 A 
ATOM      5  N   UNL     1       0.120  11.123  22.501  0.00  0.00    +0.000 NA
ATOM      6  C   UNL     1      -0.483  12.130  21.860  0.00  0.00    +0.000 A 
ATOM      7  N   UNL     1      -0.727  12.202  20.546  0.00  0.00    +0.000 NA
ATOM      8  C   UNL     1      -0.265  11.195  19.789  0.00  0.00    +0.000 A 
ATOM      9  N   UNL     1      -0.563  11.339  18.436  0.00  0.00    +0.000 N 
ATOM     10  C   UNL     1       0.469  10.126  20.347  0.00  0.00    +0.000 A 
ATOM     11  C   UNL     1       1.101   9.082  19.623  0.00  0.00    +0.000 A 
ATOM     12  H   UNL     1      -1.239  12.098  18.368  0.00  0.00    +0.000 HD
ENDROOT
BRANCH   1  18
ATOM     13  C   UNL     1       2.225   5.556  19.516  0.00  0.00    +0.000 A 
ATOM     14  C   UNL     1       2.782   4.684  18.573  0.00  0.00    +0.000 A 
ATOM     15  C   UNL     1       3.554   5.172  17.521  0.00  0.00    +0.000 A 
ATOM     16  C   UNL     1       3.765   6.534  17.392  0.00  0.00    +0.000 A 
ATOM     17  C   UNL     1       3.182   7.418  18.301  0.00  0.00    +0.000 A 
ATOM     18  C   UNL     1       2.392   6.965  19.375  0.00  0.00    +0.000 A 
BRANCH  13  20
ATOM     19  C   UNL     1       2.037   4.032  21.328  0.00  0.00    +0.000 C 
ATOM     20  O   UNL     1       1.456   5.090  20.565  0.00  0.00    +0.000 OA
ENDBRANCH  13  20
ENDBRANCH   1  18
BRANCH   9  21
ATOM     21  C   UNL     1      -0.907  10.166  17.648  0.00  0.00    +0.000 C 
BRANCH  21  22
ATOM     22  C   UNL     1      -2.194  10.348  16.892  0.00  0.00    +0.000 A 
ATOM     23  C   UNL     1      -3.227  11.119  17.445  0.00  0.00    +0.000 A 
ATOM     24  C   UNL     1      -4.373  11.386  16.703  0.00  0.00    +0.000 A 
ATOM     25  C   UNL     1      -4.494  10.889  15.406  0.00  0.00    +0.000 A 
ATOM     26  C   UNL     1      -3.469  10.126  14.848  0.00  0.00    +0.000 A 
ATOM     27  C   UNL     1      -2.319   9.857  15.587  0.00  0.00    +0.000 A 
ENDBRANCH  21  22
ENDBRANCH   9  21
TORSDOF 4
ENDMDL
MODEL 9
REMARK VINA RESULT:      -7.3      5.916     11.392
REMARK  Name = 
REMARK  5 active torsions:
REMARK  status: ('A' for Active; 'I' for Inactive)
REMARK    1  A    between atoms: C_1  and  O_2
REMARK    2  A    between atoms: O_2  and  C_3
REMARK    3  A    between atoms: C_8  and  C_9
REMARK    4  A    between atoms: N_17  and  C_18
REMARK    5  A    between atoms: C_18  and  C_19
REMARK                            x       y       z     vdW  Elec       q    Type
REMARK                         _______ _______ _______ _____ _____    ______ ____
ROOT
ATOM      1  C   UNL     1      -3.927  12.669  20.673  0.00  0.00    +0.000 A 
ATOM      2  C   UNL     1      -5.228  12.467  20.212  0.00  0.00    +0.000 A 
ATOM      3  C   UNL     1      -5.466  11.994  18.911  0.00  0.00    +0.000 A 
ATOM      4  C   UNL     1      -4.432  11.656  18.043  0.00  0.00    +0.000 A 
ATOM      5  N   UNL     1      -4.730  11.242  16.807  0.00  0.00    +0.000 NA
ATOM      6  C   UNL     1      -3.695  10.929  16.018  0.00  0.00    +0.000 A 
ATOM      7  N   UNL     1      -2.403  10.927  16.367  0.00  0.00    +0.000 NA
ATOM      8  C   UNL     1      -2.112  11.342  17.610  0.00  0.00    +0.000 A 
ATOM      9  N   UNL     1      -0.749  11.307  17.899  0.00  0.00    +0.000 N 
ATOM     10  C   UNL     1      -3.117  11.786  18.497  0.00  0.00    +0.000 A 
ATOM     11  C   UNL     1      -2.904  12.354  19.779  0.00  0.00    +0.000 A 
ATOM     12  H   UNL     1      -0.307  10.785  17.144  0.00  0.00    +0.000 HD
ENDROOT
BRANCH   1  18
ATOM     13  C   UNL     1      -4.330  13.090  23.181  0.00  0.00    +0.000 A 
ATOM     14  C   UNL     1      -3.854  13.611  24.391  0.00  0.00    +0.000 A 
ATOM     15  C   UNL     1      -2.704  14.396  24.424  0.00  0.00    +0.000 A 
ATOM     16  C   UNL     1      -2.008  14.655  23.255  0.00  0.00    +0.000 A 
ATOM     17  C   UNL     1      -2.448  14.107  22.048  0.00  0.00    +0.000 A 
ATOM     18  C   UNL     1      -3.604  13.306  21.973  0.00  0.00    +0.000 A 
BRANCH  13  20
ATOM     19  C   UNL     1      -6.515  12.693  24.022  0.00  0.00    +0.000 C 
ATOM     20  O   UNL     1      -5.469  12.310  23.129  0.00  0.00    +0.000 OA
ENDBRANCH  13  20
ENDBRANCH   1  18
BRANCH   9  21
ATOM     21  C   UNL     1      -0.308  10.916  19.228  0.00  0.00    +0.000 C 
BRANCH  21  22
ATOM     22  C   UNL     1       0.688   9.789  19.187  0.00  0.00    +0.000 A 
ATOM     23  C   UNL     1       0.944   9.043  20.346  0.00  0.00    +0.000 A 
ATOM     24  C   UNL     1       1.775   7.928  20.288  0.00  0.00    +0.000 A 
ATOM     25  C   UNL     1       2.351   7.551  19.076  0.00  0.00    +0.000 A 
ATOM     26  C   UNL     1       2.095   8.285  17.919  0.00  0.00    +0.000 A 
ATOM     27  C   UNL     1       1.263   9.402  17.972  0.00  0.00    +0.000 A 
ENDBRANCH  21  22
ENDBRANCH   9  21
TORSDOF 4
ENDMDL
