MODEL 1
REMARK VINA RESULT:      -7.6      0.000      0.000
REMARK  Name = 
REMARK  6 active torsions:
REMARK  status: ('A' for Active; 'I' for Inactive)
REMARK    1  A    between atoms: C_2  and  C_3
REMARK    2  A    between atoms: C_3  and  C_4
REMARK    3  A    between atoms: C_4  and  C_5
REMARK    4  A    between atoms: C_5  and  O_6
REMARK    5  A    between atoms: O_6  and  C_7
REMARK    6  A    between atoms: N_18  and  O_19
REMARK                            x       y       z     vdW  Elec       q    Type
REMARK                         _______ _______ _______ _____ _____    ______ ____
ROOT
ATOM      1  C   UNL     1       4.242   4.292  16.844  0.00  0.00    +0.000 A 
ATOM      2  C   UNL     1       4.264   2.904  16.995  0.00  0.00    +0.000 A 
ATOM      3  C   UNL     1       3.711   2.307  18.131  0.00  0.00    +0.000 A 
ATOM      4  C   UNL     1       3.118   3.098  19.109  0.00  0.00    +0.000 A 
ATOM      5  C   UNL     1       3.084   4.489  18.977  0.00  0.00    +0.000 A 
ATOM      6  C   UNL     1       3.670   5.083  17.849  0.00  0.00    +0.000 A 
ATOM      7  C   UNL     1       2.524   5.310  20.107  0.00  0.00    +0.000 C 
ATOM      8  C   UNL     1       1.399   4.562  20.808  0.00  0.00    +0.000 C 
ATOM      9  C   UNL     1       1.817   3.157  21.175  0.00  0.00    +0.000 C 
ATOM     10  O   UNL     1       1.412   2.590  22.187  0.00  0.00    +0.000 OA
ATOM     11  N   UNL     1       2.580   2.495  20.250  0.00  0.00    +0.000 N 
ATOM     12  H   UNL     1       2.744   1.514  20.435  0.00  0.00    +0.000 HD
ENDROOT
BRANCH   1  13
ATOM     13  O   UNL     1       4.816   4.970  15.802  0.00  0.00    +0.000 OA
BRANCH  13  14
ATOM     14  C   UNL     1       5.480   6.195  16.132  0.00  0.00    +0.000 C 
BRANCH  14  15
ATOM     15  C   UNL     1       6.958   5.903  16.388  0.00  0.00    +0.000 C 
BRANCH  15  16
ATOM     16  C   UNL     1       7.441   6.524  17.709  0.00  0.00    +0.000 C 
BRANCH  16  18
ATOM     17  O   UNL     1       6.927   4.408  18.777  0.00  0.00    +0.000 OA
ATOM     18  C   UNL     1       7.502   5.499  18.842  0.00  0.00    +0.000 C 
ATOM     19  N   UNL     1       8.224   5.863  19.933  0.00  0.00    +0.000 N 
ATOM     20  H   UNL     1       8.681   6.764  19.954  0.00  0.00    +0.000 HD
BRANCH  19  21
ATOM     21  O   UNL     1       8.399   5.067  21.082  0.00  0.00    +0.000 OA
ATOM     22  H   UNL     1       8.896   4.271  20.800  0.00  0.00    +0.000 HD
ENDBRANCH  19  21
ENDBRANCH  16  18
ENDBRANCH  15  16
ENDBRANCH  14  15
ENDBRANCH  13  14
ENDBRANCH   1  13
TORSDOF 6
ENDMDL
MODEL 2
REMARK VINA RESULT:      -7.4      2.420      6.067
REMARK  Name = 
REMARK  6 active torsions:
REMARK  status: ('A' for Active; 'I' for Inactive)
REMARK    1  A    between atoms: C_2  and  C_3
REMARK    2  A    between atoms: C_3  and  C_4
REMARK    3  A    between atoms: C_4  and  C_5
REMARK    4  A    between atoms: C_5  and  O_6
REMARK    5  A    between atoms: O_6  and  C_7
REMARK    6  A    between atoms: N_18  and  O_19
REMARK                            x       y       z     vdW  Elec       q    Type
REMARK                         _______ _______ _______ _____ _____    ______ ____
ROOT
ATOM      1  C   UNL     1       3.109   5.164  17.734  0.00  0.00    +0.000 A 
ATOM      2  C   UNL     1       3.629   6.459  17.717  0.00  0.00    +0.000 A 
ATOM      3  C   UNL     1       4.773   6.753  16.970  0.00  0.00    +0.000 A 
ATOM      4  C   UNL     1       5.387   5.755  16.222  0.00  0.00    +0.000 A 
ATOM      5  C   UNL     1       4.882   4.450  16.224  0.00  0.00    +0.000 A 
ATOM      6  C   UNL     1       3.752   4.156  17.003  0.00  0.00    +0.000 A 
ATOM      7  C   UNL     1       5.637   3.381  15.482  0.00  0.00    +0.000 C 
ATOM      8  C   UNL     1       6.311   3.958  14.247  0.00  0.00    +0.000 C 
ATOM      9  C   UNL     1       7.108   5.198  14.582  0.00  0.00    +0.000 C 
ATOM     10  O   UNL     1       8.151   5.490  14.001  0.00  0.00    +0.000 OA
ATOM     11  N   UNL     1       6.539   6.052  15.488  0.00  0.00    +0.000 N 
ATOM     12  H   UNL     1       7.006   6.941  15.609  0.00  0.00    +0.000 HD
ENDROOT
BRANCH   1  13
ATOM     13  O   UNL     1       2.036   4.766  18.487  0.00  0.00    +0.000 OA
BRANCH  13  14
ATOM     14  C   UNL     1       1.963   5.296  19.815  0.00  0.00    +0.000 C 
BRANCH  14  15
ATOM     15  C   UNL     1       1.048   4.404  20.653  0.00  0.00    +0.000 C 
BRANCH  15  16
ATOM     16  C   UNL     1       1.322   2.912  20.403  0.00  0.00    +0.000 C 
BRANCH  16  18
ATOM     17  O   UNL     1       3.006   2.364  22.061  0.00  0.00    +0.000 OA
ATOM     18  C   UNL     1       2.717   2.494  20.867  0.00  0.00    +0.000 C 
ATOM     19  N   UNL     1       3.629   2.278  19.883  0.00  0.00    +0.000 N 
ATOM     20  H   UNL     1       3.360   2.394  18.916  0.00  0.00    +0.000 HD
BRANCH  19  21
ATOM     21  O   UNL     1       4.967   1.893  20.100  0.00  0.00    +0.000 OA
ATOM     22  H   UNL     1       4.968   0.918  20.186  0.00  0.00    +0.000 HD
ENDBRANCH  19  21
ENDBRANCH  16  18
ENDBRANCH  15  16
ENDBRANCH  14  15
ENDBRANCH  13  14
ENDBRANCH   1  13
TORSDOF 6
ENDMDL
MODEL 3
REMARK VINA RESULT:      -7.1      2.494      5.945
REMARK  Name = 
REMARK  6 active torsions:
REMARK  status: ('A' for Active; 'I' for Inactive)
REMARK    1  A    between atoms: C_2  and  C_3
REMARK    2  A    between atoms: C_3  and  C_4
REMARK    3  A    between atoms: C_4  and  C_5
REMARK    4  A    between atoms: C_5  and  O_6
REMARK    5  A    between atoms: O_6  and  C_7
REMARK    6  A    between atoms: N_18  and  O_19
REMARK                            x       y       z     vdW  Elec       q    Type
REMARK                         _______ _______ _______ _____ _____    ______ ____
ROOT
ATOM      1  C   UNL     1       2.947   5.752  18.114  0.00  0.00    +0.000 A 
ATOM      2  C   UNL     1       3.466   7.021  17.850  0.00  0.00    +0.000 A 
ATOM      3  C   UNL     1       4.578   7.172  17.018  0.00  0.00    +0.000 A 
ATOM      4  C   UNL     1       5.160   6.054  16.431  0.00  0.00    +0.000 A 
ATOM      5  C   UNL     1       4.656   4.774  16.680  0.00  0.00    +0.000 A 
ATOM      6  C   UNL     1       3.559   4.628  17.544  0.00  0.00    +0.000 A 
ATOM      7  C   UNL     1       5.380   3.586  16.106  0.00  0.00    +0.000 C 
ATOM      8  C   UNL     1       6.003   3.935  14.763  0.00  0.00    +0.000 C 
ATOM      9  C   UNL     1       6.812   5.208  14.844  0.00  0.00    +0.000 C 
ATOM     10  O   UNL     1       7.831   5.387  14.180  0.00  0.00    +0.000 OA
ATOM     11  N   UNL     1       6.282   6.211  15.611  0.00  0.00    +0.000 N 
ATOM     12  H   UNL     1       6.753   7.105  15.556  0.00  0.00    +0.000 HD
ENDROOT
BRANCH   1  13
ATOM     13  O   UNL     1       1.906   5.499  18.967  0.00  0.00    +0.000 OA
BRANCH  13  14
ATOM     14  C   UNL     1       2.258   5.050  20.280  0.00  0.00    +0.000 C 
BRANCH  14  15
ATOM     15  C   UNL     1       1.641   3.671  20.513  0.00  0.00    +0.000 C 
BRANCH  15  16
ATOM     16  C   UNL     1       2.664   2.679  21.089  0.00  0.00    +0.000 C 
BRANCH  16  18
ATOM     17  O   UNL     1       4.858   2.507  20.069  0.00  0.00    +0.000 OA
ATOM     18  C   UNL     1       3.662   2.200  20.035  0.00  0.00    +0.000 C 
ATOM     19  N   UNL     1       3.153   1.416  19.049  0.00  0.00    +0.000 N 
ATOM     20  H   UNL     1       2.170   1.184  19.050  0.00  0.00    +0.000 HD
BRANCH  19  21
ATOM     21  O   UNL     1       3.902   0.878  17.984  0.00  0.00    +0.000 OA
ATOM     22  H   UNL     1       3.799  -0.094  18.030  0.00  0.00    +0.000 HD
ENDBRANCH  19  21
ENDBRANCH  16  18
ENDBRANCH  15  16
ENDBRANCH  14  15
ENDBRANCH  13  14
ENDBRANCH   1  13
TORSDOF 6
ENDMDL
MODEL 4
REMARK VINA RESULT:      -7.1      2.445      6.367
REMARK  Name = 
REMARK  6 active torsions:
REMARK  status: ('A' for Active; 'I' for Inactive)
REMARK    1  A    between atoms: C_2  and  C_3
REMARK    2  A    between atoms: C_3  and  C_4
REMARK    3  A    between atoms: C_4  and  C_5
REMARK    4  A    between atoms: C_5  and  O_6
REMARK    5  A    between atoms: O_6  and  C_7
REMARK    6  A    between atoms: N_18  and  O_19
REMARK                            x       y       z     vdW  Elec       q    Type
REMARK                         _______ _______ _______ _____ _____    ______ ____
ROOT
ATOM      1  C   UNL     1       5.008   4.777  18.945  0.00  0.00    +0.000 A 
ATOM      2  C   UNL     1       6.145   5.571  19.109  0.00  0.00    +0.000 A 
ATOM      3  C   UNL     1       6.995   5.821  18.029  0.00  0.00    +0.000 A 
ATOM      4  C   UNL     1       6.698   5.293  16.777  0.00  0.00    +0.000 A 
ATOM      5  C   UNL     1       5.564   4.496  16.590  0.00  0.00    +0.000 A 
ATOM      6  C   UNL     1       4.733   4.223  17.687  0.00  0.00    +0.000 A 
ATOM      7  C   UNL     1       5.338   3.863  15.244  0.00  0.00    +0.000 C 
ATOM      8  C   UNL     1       5.853   4.766  14.133  0.00  0.00    +0.000 C 
ATOM      9  C   UNL     1       7.268   5.221  14.403  0.00  0.00    +0.000 C 
ATOM     10  O   UNL     1       8.085   5.409  13.505  0.00  0.00    +0.000 OA
ATOM     11  N   UNL     1       7.561   5.535  15.704  0.00  0.00    +0.000 N 
ATOM     12  H   UNL     1       8.463   5.966  15.861  0.00  0.00    +0.000 HD
ENDROOT
BRANCH   1  13
ATOM     13  O   UNL     1       4.155   4.421  19.956  0.00  0.00    +0.000 OA
BRANCH  13  14
ATOM     14  C   UNL     1       2.981   5.227  20.107  0.00  0.00    +0.000 C 
BRANCH  14  15
ATOM     15  C   UNL     1       1.978   4.480  20.984  0.00  0.00    +0.000 C 
BRANCH  15  16
ATOM     16  C   UNL     1       0.860   3.836  20.149  0.00  0.00    +0.000 C 
BRANCH  16  18
ATOM     17  O   UNL     1       1.116   3.465  17.766  0.00  0.00    +0.000 OA
ATOM     18  C   UNL     1       1.402   3.114  18.915  0.00  0.00    +0.000 C 
ATOM     19  N   UNL     1       2.217   2.055  19.158  0.00  0.00    +0.000 N 
ATOM     20  H   UNL     1       2.430   1.795  20.110  0.00  0.00    +0.000 HD
BRANCH  19  21
ATOM     21  O   UNL     1       2.814   1.257  18.162  0.00  0.00    +0.000 OA
ATOM     22  H   UNL     1       3.512   1.803  17.745  0.00  0.00    +0.000 HD
ENDBRANCH  19  21
ENDBRANCH  16  18
ENDBRANCH  15  16
ENDBRANCH  14  15
ENDBRANCH  13  14
ENDBRANCH   1  13
TORSDOF 6
ENDMDL
MODEL 5
REMARK VINA RESULT:      -6.9      2.276      5.793
REMARK  Name = 
REMARK  6 active torsions:
REMARK  status: ('A' for Active; 'I' for Inactive)
REMARK    1  A    between atoms: C_2  and  C_3
REMARK    2  A    between atoms: C_3  and  C_4
REMARK    3  A    between atoms: C_4  and  C_5
REMARK    4  A    between atoms: C_5  and  O_6
REMARK    5  A    between atoms: O_6  and  C_7
REMARK    6  A    between atoms: N_18  and  O_19
REMARK                            x       y       z     vdW  Elec       q    Type
REMARK                         _______ _______ _______ _____ _____    ______ ____
ROOT
ATOM      1  C   UNL     1       4.352   3.517  17.777  0.00  0.00    +0.000 A 
ATOM      2  C   UNL     1       4.158   4.180  16.563  0.00  0.00    +0.000 A 
ATOM      3  C   UNL     1       4.879   5.339  16.267  0.00  0.00    +0.000 A 
ATOM      4  C   UNL     1       5.810   5.827  17.177  0.00  0.00    +0.000 A 
ATOM      5  C   UNL     1       6.021   5.179  18.397  0.00  0.00    +0.000 A 
ATOM      6  C   UNL     1       5.270   4.034  18.702  0.00  0.00    +0.000 A 
ATOM      7  C   UNL     1       6.963   5.800  19.394  0.00  0.00    +0.000 C 
ATOM      8  C   UNL     1       8.099   6.519  18.682  0.00  0.00    +0.000 C 
ATOM      9  C   UNL     1       7.578   7.454  17.615  0.00  0.00    +0.000 C 
ATOM     10  O   UNL     1       8.131   8.517  17.340  0.00  0.00    +0.000 OA
ATOM     11  N   UNL     1       6.517   6.997  16.880  0.00  0.00    +0.000 N 
ATOM     12  H   UNL     1       6.257   7.562  16.083  0.00  0.00    +0.000 HD
ENDROOT
BRANCH   1  13
ATOM     13  O   UNL     1       3.647   2.416  18.184  0.00  0.00    +0.000 OA
BRANCH  13  14
ATOM     14  C   UNL     1       2.320   2.286  17.662  0.00  0.00    +0.000 C 
BRANCH  14  15
ATOM     15  C   UNL     1       1.324   2.373  18.818  0.00  0.00    +0.000 C 
BRANCH  15  16
ATOM     16  C   UNL     1       1.992   2.075  20.170  0.00  0.00    +0.000 C 
BRANCH  16  18
ATOM     17  O   UNL     1       2.137   3.261  22.280  0.00  0.00    +0.000 OA
ATOM     18  C   UNL     1       2.104   3.322  21.047  0.00  0.00    +0.000 C 
ATOM     19  N   UNL     1       2.158   4.508  20.387  0.00  0.00    +0.000 N 
ATOM     20  H   UNL     1       2.128   4.522  19.378  0.00  0.00    +0.000 HD
BRANCH  19  21
ATOM     21  O   UNL     1       2.257   5.768  21.009  0.00  0.00    +0.000 OA
ATOM     22  H   UNL     1       1.344   6.054  21.213  0.00  0.00    +0.000 HD
ENDBRANCH  19  21
ENDBRANCH  16  18
ENDBRANCH  15  16
ENDBRANCH  14  15
ENDBRANCH  13  14
ENDBRANCH   1  13
TORSDOF 6
ENDMDL
MODEL 6
REMARK VINA RESULT:      -6.9      2.362      5.844
REMARK  Name = 
REMARK  6 active torsions:
REMARK  status: ('A' for Active; 'I' for Inactive)
REMARK    1  A    between atoms: C_2  and  C_3
REMARK    2  A    between atoms: C_3  and  C_4
REMARK    3  A    between atoms: C_4  and  C_5
REMARK    4  A    between atoms: C_5  and  O_6
REMARK    5  A    between atoms: O_6  and  C_7
REMARK    6  A    between atoms: N_18  and  O_19
REMARK                            x       y       z     vdW  Elec       q    Type
REMARK                         _______ _______ _______ _____ _____    ______ ____
ROOT
ATOM      1  C   UNL     1       2.939   6.454  18.905  0.00  0.00    +0.000 A 
ATOM      2  C   UNL     1       2.960   7.466  17.942  0.00  0.00    +0.000 A 
ATOM      3  C   UNL     1       3.952   7.488  16.959  0.00  0.00    +0.000 A 
ATOM      4  C   UNL     1       4.915   6.485  16.925  0.00  0.00    +0.000 A 
ATOM      5  C   UNL     1       4.913   5.462  17.879  0.00  0.00    +0.000 A 
ATOM      6  C   UNL     1       3.932   5.466  18.882  0.00  0.00    +0.000 A 
ATOM      7  C   UNL     1       6.033   4.457  17.865  0.00  0.00    +0.000 C 
ATOM      8  C   UNL     1       6.507   4.201  16.442  0.00  0.00    +0.000 C 
ATOM      9  C   UNL     1       6.790   5.495  15.714  0.00  0.00    +0.000 C 
ATOM     10  O   UNL     1       7.683   5.600  14.876  0.00  0.00    +0.000 OA
ATOM     11  N   UNL     1       5.914   6.521  15.947  0.00  0.00    +0.000 N 
ATOM     12  H   UNL     1       6.025   7.337  15.360  0.00  0.00    +0.000 HD
ENDROOT
BRANCH   1  13
ATOM     13  O   UNL     1       2.050   6.387  19.944  0.00  0.00    +0.000 OA
BRANCH  13  14
ATOM     14  C   UNL     1       2.180   5.260  20.817  0.00  0.00    +0.000 C 
BRANCH  14  15
ATOM     15  C   UNL     1       1.009   4.308  20.574  0.00  0.00    +0.000 C 
BRANCH  15  16
ATOM     16  C   UNL     1       1.484   2.945  20.046  0.00  0.00    +0.000 C 
BRANCH  16  18
ATOM     17  O   UNL     1       2.917   2.384  21.920  0.00  0.00    +0.000 OA
ATOM     18  C   UNL     1       2.792   2.495  20.697  0.00  0.00    +0.000 C 
ATOM     19  N   UNL     1       3.817   2.230  19.845  0.00  0.00    +0.000 N 
ATOM     20  H   UNL     1       3.681   2.331  18.850  0.00  0.00    +0.000 HD
BRANCH  19  21
ATOM     21  O   UNL     1       5.101   1.809  20.244  0.00  0.00    +0.000 OA
ATOM     22  H   UNL     1       4.985   1.286  21.063  0.00  0.00    +0.000 HD
ENDBRANCH  19  21
ENDBRANCH  16  18
ENDBRANCH  15  16
ENDBRANCH  14  15
ENDBRANCH  13  14
ENDBRANCH   1  13
TORSDOF 6
ENDMDL
MODEL 7
REMARK VINA RESULT:      -6.9      2.581      6.032
REMARK  Name = 
REMARK  6 active torsions:
REMARK  status: ('A' for Active; 'I' for Inactive)
REMARK    1  A    between atoms: C_2  and  C_3
REMARK    2  A    between atoms: C_3  and  C_4
REMARK    3  A    between atoms: C_4  and  C_5
REMARK    4  A    between atoms: C_5  and  O_6
REMARK    5  A    between atoms: O_6  and  C_7
REMARK    6  A    between atoms: N_18  and  O_19
REMARK                            x       y       z     vdW  Elec       q    Type
REMARK                         _______ _______ _______ _____ _____    ______ ____
ROOT
ATOM      1  C   UNL     1       3.355   5.537  17.803  0.00  0.00    +0.000 A 
ATOM      2  C   UNL     1       3.914   6.806  17.642  0.00  0.00    +0.000 A 
ATOM      3  C   UNL     1       5.009   6.995  16.794  0.00  0.00    +0.000 A 
ATOM      4  C   UNL     1       5.534   5.916  16.091  0.00  0.00    +0.000 A 
ATOM      5  C   UNL     1       4.989   4.637  16.237  0.00  0.00    +0.000 A 
ATOM      6  C   UNL     1       3.910   4.449  17.115  0.00  0.00    +0.000 A 
ATOM      7  C   UNL     1       5.653   3.482  15.536  0.00  0.00    +0.000 C 
ATOM      8  C   UNL     1       6.253   3.932  14.212  0.00  0.00    +0.000 C 
ATOM      9  C   UNL     1       7.112   5.164  14.386  0.00  0.00    +0.000 C 
ATOM     10  O   UNL     1       8.119   5.368  13.712  0.00  0.00    +0.000 OA
ATOM     11  N   UNL     1       6.639   6.109  15.256  0.00  0.00    +0.000 N 
ATOM     12  H   UNL     1       7.141   6.987  15.270  0.00  0.00    +0.000 HD
ENDROOT
BRANCH   1  13
ATOM     13  O   UNL     1       2.328   5.242  18.660  0.00  0.00    +0.000 OA
BRANCH  13  14
ATOM     14  C   UNL     1       1.484   4.148  18.284  0.00  0.00    +0.000 C 
BRANCH  14  15
ATOM     15  C   UNL     1       0.956   3.474  19.550  0.00  0.00    +0.000 C 
BRANCH  15  16
ATOM     16  C   UNL     1       1.508   2.048  19.709  0.00  0.00    +0.000 C 
BRANCH  16  18
ATOM     17  O   UNL     1       3.344   1.272  18.327  0.00  0.00    +0.000 OA
ATOM     18  C   UNL     1       2.976   1.947  19.294  0.00  0.00    +0.000 C 
ATOM     19  N   UNL     1       3.857   2.642  20.059  0.00  0.00    +0.000 N 
ATOM     20  H   UNL     1       3.523   3.184  20.842  0.00  0.00    +0.000 HD
BRANCH  19  21
ATOM     21  O   UNL     1       5.250   2.675  19.847  0.00  0.00    +0.000 OA
ATOM     22  H   UNL     1       5.623   3.277  20.522  0.00  0.00    +0.000 HD
ENDBRANCH  19  21
ENDBRANCH  16  18
ENDBRANCH  15  16
ENDBRANCH  14  15
ENDBRANCH  13  14
ENDBRANCH   1  13
TORSDOF 6
ENDMDL
MODEL 8
REMARK VINA RESULT:      -6.8      2.467      5.710
REMARK  Name = 
REMARK  6 active torsions:
REMARK  status: ('A' for Active; 'I' for Inactive)
REMARK    1  A    between atoms: C_2  and  C_3
REMARK    2  A    between atoms: C_3  and  C_4
REMARK    3  A    between atoms: C_4  and  C_5
REMARK    4  A    between atoms: C_5  and  O_6
REMARK    5  A    between atoms: O_6  and  C_7
REMARK    6  A    between atoms: N_18  and  O_19
REMARK                            x       y       z     vdW  Elec       q    Type
REMARK                         _______ _______ _______ _____ _____    ______ ____
ROOT
ATOM      1  C   UNL     1       4.348   3.288  17.601  0.00  0.00    +0.000 A 
ATOM      2  C   UNL     1       4.235   3.914  16.358  0.00  0.00    +0.000 A 
ATOM      3  C   UNL     1       4.950   5.083  16.086  0.00  0.00    +0.000 A 
ATOM      4  C   UNL     1       5.795   5.619  17.052  0.00  0.00    +0.000 A 
ATOM      5  C   UNL     1       5.923   5.008  18.304  0.00  0.00    +0.000 A 
ATOM      6  C   UNL     1       5.177   3.852  18.580  0.00  0.00    +0.000 A 
ATOM      7  C   UNL     1       6.769   5.678  19.353  0.00  0.00    +0.000 C 
ATOM      8  C   UNL     1       7.941   6.407  18.712  0.00  0.00    +0.000 C 
ATOM      9  C   UNL     1       7.484   7.300  17.582  0.00  0.00    +0.000 C 
ATOM     10  O   UNL     1       8.032   8.369  17.321  0.00  0.00    +0.000 OA
ATOM     11  N   UNL     1       6.496   6.797  16.779  0.00  0.00    +0.000 N 
ATOM     12  H   UNL     1       6.286   7.335  15.948  0.00  0.00    +0.000 HD
ENDROOT
BRANCH   1  13
ATOM     13  O   UNL     1       3.638   2.181  17.982  0.00  0.00    +0.000 OA
BRANCH  13  14
ATOM     14  C   UNL     1       3.257   2.116  19.360  0.00  0.00    +0.000 C 
BRANCH  14  15
ATOM     15  C   UNL     1       1.731   2.103  19.451  0.00  0.00    +0.000 C 
BRANCH  15  16
ATOM     16  C   UNL     1       1.202   3.247  20.330  0.00  0.00    +0.000 C 
BRANCH  16  18
ATOM     17  O   UNL     1       1.565   4.935  18.627  0.00  0.00    +0.000 OA
ATOM     18  C   UNL     1       1.640   4.619  19.819  0.00  0.00    +0.000 C 
ATOM     19  N   UNL     1       2.124   5.475  20.756  0.00  0.00    +0.000 N 
ATOM     20  H   UNL     1       2.172   5.185  21.722  0.00  0.00    +0.000 HD
BRANCH  19  21
ATOM     21  O   UNL     1       2.582   6.780  20.490  0.00  0.00    +0.000 OA
ATOM     22  H   UNL     1       3.542   6.786  20.684  0.00  0.00    +0.000 HD
ENDBRANCH  19  21
ENDBRANCH  16  18
ENDBRANCH  15  16
ENDBRANCH  14  15
ENDBRANCH  13  14
ENDBRANCH   1  13
TORSDOF 6
ENDMDL
MODEL 9
REMARK VINA RESULT:      -6.8      1.501      1.686
REMARK  Name = 
REMARK  6 active torsions:
REMARK  status: ('A' for Active; 'I' for Inactive)
REMARK    1  A    between atoms: C_2  and  C_3
REMARK    2  A    between atoms: C_3  and  C_4
REMARK    3  A    between atoms: C_4  and  C_5
REMARK    4  A    between atoms: C_5  and  O_6
REMARK    5  A    between atoms: O_6  and  C_7
REMARK    6  A    between atoms: N_18  and  O_19
REMARK                            x       y       z     vdW  Elec       q    Type
REMARK                         _______ _______ _______ _____ _____    ______ ____
ROOT
ATOM      1  C   UNL     1       4.188   4.378  16.932  0.00  0.00    +0.000 A 
ATOM      2  C   UNL     1       4.183   2.986  17.036  0.00  0.00    +0.000 A 
ATOM      3  C   UNL     1       3.594   2.359  18.136  0.00  0.00    +0.000 A 
ATOM      4  C   UNL     1       2.990   3.126  19.127  0.00  0.00    +0.000 A 
ATOM      5  C   UNL     1       2.982   4.521  19.043  0.00  0.00    +0.000 A 
ATOM      6  C   UNL     1       3.605   5.144  17.951  0.00  0.00    +0.000 A 
ATOM      7  C   UNL     1       2.408   5.312  20.188  0.00  0.00    +0.000 C 
ATOM      8  C   UNL     1       1.255   4.560  20.835  0.00  0.00    +0.000 C 
ATOM      9  C   UNL     1       1.640   3.136  21.162  0.00  0.00    +0.000 C 
ATOM     10  O   UNL     1       1.202   2.541  22.145  0.00  0.00    +0.000 OA
ATOM     11  N   UNL     1       2.415   2.493  20.234  0.00  0.00    +0.000 N 
ATOM     12  H   UNL     1       2.559   1.504  20.388  0.00  0.00    +0.000 HD
ENDROOT
BRANCH   1  13
ATOM     13  O   UNL     1       4.799   5.082  15.928  0.00  0.00    +0.000 OA
BRANCH  13  14
ATOM     14  C   UNL     1       5.708   4.347  15.102  0.00  0.00    +0.000 C 
BRANCH  14  15
ATOM     15  C   UNL     1       7.138   4.750  15.460  0.00  0.00    +0.000 C 
BRANCH  15  16
ATOM     16  C   UNL     1       7.410   4.606  16.967  0.00  0.00    +0.000 C 
BRANCH  16  18
ATOM     17  O   UNL     1       7.808   6.063  18.864  0.00  0.00    +0.000 OA
ATOM     18  C   UNL     1       7.545   5.961  17.662  0.00  0.00    +0.000 C 
ATOM     19  N   UNL     1       7.351   7.052  16.876  0.00  0.00    +0.000 N 
ATOM     20  H   UNL     1       7.137   6.933  15.896  0.00  0.00    +0.000 HD
BRANCH  19  21
ATOM     21  O   UNL     1       7.426   8.386  17.324  0.00  0.00    +0.000 OA
ATOM     22  H   UNL     1       7.866   8.365  18.198  0.00  0.00    +0.000 HD
ENDBRANCH  19  21
ENDBRANCH  16  18
ENDBRANCH  15  16
ENDBRANCH  14  15
ENDBRANCH  13  14
ENDBRANCH   1  13
TORSDOF 6
ENDMDL
