MODEL 1
REMARK VINA RESULT:      -6.9      0.000      0.000
REMARK  Name = 
REMARK  6 active torsions:
REMARK  status: ('A' for Active; 'I' for Inactive)
REMARK    1  A    between atoms: C_2  and  OXT_3
REMARK    2  A    between atoms: C_2  and  CA_4
REMARK    3  A    between atoms: C_6  and  C_7
REMARK    4  A    between atoms: C_7  and  O_8
REMARK    5  A    between atoms: O_8  and  C_9
REMARK    6  A    between atoms: C_9  and  C_10
REMARK                            x       y       z     vdW  Elec       q    Type
REMARK                         _______ _______ _______ _____ _____    ______ ____
ROOT
ATOM      1  CA  UNL     1       1.253   2.889  18.801  0.00  0.00    +0.000 C 
ATOM      2  C   UNL     1       1.805   4.022  17.920  0.00  0.00    +0.000 C 
ATOM      3  C   UNL     1       3.337   4.101  17.870  0.00  0.00    +0.000 C 
ATOM      4  C   UNL     1       3.913   2.709  17.576  0.00  0.00    +0.000 C 
ATOM      5  C   UNL     1       3.360   1.648  18.521  0.00  0.00    +0.000 C 
ATOM      6  N   UNL     1       1.896   1.595  18.485  0.00  0.00    +0.000 NA
ATOM      7  H   UNL     1       1.593   0.909  19.182  0.00  0.00    +0.000 HD
ENDROOT
BRANCH   1   9
ATOM      8  O   UNL     1       1.557   2.378  21.186  0.00  0.00    +0.000 OA
ATOM      9  C   UNL     1       1.285   3.191  20.314  0.00  0.00    +0.000 C 
BRANCH   9  10
ATOM     10  OXT UNL     1       0.939   4.464  20.627  0.00  0.00    +0.000 OA
ATOM     11  HXT UNL     1       1.275   4.777  21.487  0.00  0.00    +0.000 HD
ENDBRANCH   9  10
ENDBRANCH   1   9
BRANCH   3  12
ATOM     12  C   UNL     1       3.932   4.731  19.139  0.00  0.00    +0.000 C 
BRANCH  12  13
ATOM     13  O   UNL     1       5.230   4.189  19.365  0.00  0.00    +0.000 OA
BRANCH  13  14
ATOM     14  C   UNL     1       6.243   5.205  19.322  0.00  0.00    +0.000 C 
BRANCH  14  15
ATOM     15  C   UNL     1       6.805   5.365  17.956  0.00  0.00    +0.000 A 
ATOM     16  N   UNL     1       6.993   6.592  17.371  0.00  0.00    +0.000 NA
ATOM     17  N   UNL     1       7.508   6.359  16.172  0.00  0.00    +0.000 NA
ATOM     18  N   UNL     1       7.597   5.026  16.092  0.00  0.00    +0.000 N 
ATOM     19  N   UNL     1       7.202   4.343  17.178  0.00  0.00    +0.000 NA
ATOM     20  H   UNL     1       7.951   4.563  15.261  0.00  0.00    +0.000 HD
ENDBRANCH  14  15
ENDBRANCH  13  14
ENDBRANCH  12  13
ENDBRANCH   3  12
TORSDOF 6
ENDMDL
MODEL 2
REMARK VINA RESULT:      -6.8      1.778      2.772
REMARK  Name = 
REMARK  6 active torsions:
REMARK  status: ('A' for Active; 'I' for Inactive)
REMARK    1  A    between atoms: C_2  and  OXT_3
REMARK    2  A    between atoms: C_2  and  CA_4
REMARK    3  A    between atoms: C_6  and  C_7
REMARK    4  A    between atoms: C_7  and  O_8
REMARK    5  A    between atoms: O_8  and  C_9
REMARK    6  A    between atoms: C_9  and  C_10
REMARK                            x       y       z     vdW  Elec       q    Type
REMARK                         _______ _______ _______ _____ _____    ______ ____
ROOT
ATOM      1  CA  UNL     1       2.924   1.974  18.969  0.00  0.00    +0.000 C 
ATOM      2  C   UNL     1       3.550   2.709  20.166  0.00  0.00    +0.000 C 
ATOM      3  C   UNL     1       2.782   3.960  20.617  0.00  0.00    +0.000 C 
ATOM      4  C   UNL     1       1.293   3.621  20.769  0.00  0.00    +0.000 C 
ATOM      5  C   UNL     1       0.730   2.942  19.526  0.00  0.00    +0.000 C 
ATOM      6  N   UNL     1       1.479   1.731  19.178  0.00  0.00    +0.000 NA
ATOM      7  H   UNL     1       1.088   1.363  18.307  0.00  0.00    +0.000 HD
ENDROOT
BRANCH   1   9
ATOM      8  O   UNL     1       2.344   3.039  16.831  0.00  0.00    +0.000 OA
ATOM      9  C   UNL     1       3.202   2.637  17.603  0.00  0.00    +0.000 C 
BRANCH   9  10
ATOM     10  OXT UNL     1       4.518   2.709  17.287  0.00  0.00    +0.000 OA
ATOM     11  HXT UNL     1       4.984   3.481  17.658  0.00  0.00    +0.000 HD
ENDBRANCH   9  10
ENDBRANCH   1   9
BRANCH   3  12
ATOM     12  C   UNL     1       3.024   5.161  19.689  0.00  0.00    +0.000 C 
BRANCH  12  13
ATOM     13  O   UNL     1       4.396   5.182  19.302  0.00  0.00    +0.000 OA
BRANCH  13  14
ATOM     14  C   UNL     1       4.635   6.131  18.252  0.00  0.00    +0.000 C 
BRANCH  14  15
ATOM     15  C   UNL     1       5.856   5.797  17.475  0.00  0.00    +0.000 A 
ATOM     16  N   UNL     1       6.630   4.697  17.748  0.00  0.00    +0.000 NA
ATOM     17  N   UNL     1       7.620   4.709  16.867  0.00  0.00    +0.000 NA
ATOM     18  N   UNL     1       7.402   5.801  16.124  0.00  0.00    +0.000 N 
ATOM     19  N   UNL     1       6.306   6.512  16.429  0.00  0.00    +0.000 NA
ATOM     20  H   UNL     1       8.027   6.067  15.369  0.00  0.00    +0.000 HD
ENDBRANCH  14  15
ENDBRANCH  13  14
ENDBRANCH  12  13
ENDBRANCH   3  12
TORSDOF 6
ENDMDL
MODEL 3
REMARK VINA RESULT:      -6.8      1.783      2.273
REMARK  Name = 
REMARK  6 active torsions:
REMARK  status: ('A' for Active; 'I' for Inactive)
REMARK    1  A    between atoms: C_2  and  OXT_3
REMARK    2  A    between atoms: C_2  and  CA_4
REMARK    3  A    between atoms: C_6  and  C_7
REMARK    4  A    between atoms: C_7  and  O_8
REMARK    5  A    between atoms: O_8  and  C_9
REMARK    6  A    between atoms: C_9  and  C_10
REMARK                            x       y       z     vdW  Elec       q    Type
REMARK                         _______ _______ _______ _____ _____    ______ ____
ROOT
ATOM      1  CA  UNL     1       2.668   2.967  19.807  0.00  0.00    +0.000 C 
ATOM      2  C   UNL     1       3.152   4.328  20.336  0.00  0.00    +0.000 C 
ATOM      3  C   UNL     1       3.387   5.386  19.248  0.00  0.00    +0.000 C 
ATOM      4  C   UNL     1       2.167   5.446  18.319  0.00  0.00    +0.000 C 
ATOM      5  C   UNL     1       1.778   4.069  17.793  0.00  0.00    +0.000 C 
ATOM      6  N   UNL     1       1.523   3.122  18.882  0.00  0.00    +0.000 NA
ATOM      7  H   UNL     1       1.328   2.209  18.461  0.00  0.00    +0.000 HD
ENDROOT
BRANCH   1   9
ATOM      8  O   UNL     1       3.655   1.376  18.214  0.00  0.00    +0.000 OA
ATOM      9  C   UNL     1       3.784   2.092  19.197  0.00  0.00    +0.000 C 
BRANCH   9  10
ATOM     10  OXT UNL     1       4.954   2.142  19.878  0.00  0.00    +0.000 OA
ATOM     11  HXT UNL     1       4.949   2.736  20.652  0.00  0.00    +0.000 HD
ENDBRANCH   9  10
ENDBRANCH   1   9
BRANCH   3  12
ATOM     12  C   UNL     1       4.702   5.159  18.486  0.00  0.00    +0.000 C 
BRANCH  12  13
ATOM     13  O   UNL     1       5.771   5.050  19.422  0.00  0.00    +0.000 OA
BRANCH  13  14
ATOM     14  C   UNL     1       6.950   5.725  18.961  0.00  0.00    +0.000 C 
BRANCH  14  15
ATOM     15  C   UNL     1       7.220   5.444  17.527  0.00  0.00    +0.000 A 
ATOM     16  N   UNL     1       6.981   6.361  16.535  0.00  0.00    +0.000 NA
ATOM     17  N   UNL     1       7.337   5.782  15.397  0.00  0.00    +0.000 NA
ATOM     18  N   UNL     1       7.759   4.563  15.753  0.00  0.00    +0.000 N 
ATOM     19  N   UNL     1       7.739   4.293  17.067  0.00  0.00    +0.000 NA
ATOM     20  H   UNL     1       8.082   3.888  15.066  0.00  0.00    +0.000 HD
ENDBRANCH  14  15
ENDBRANCH  13  14
ENDBRANCH  12  13
ENDBRANCH   3  12
TORSDOF 6
ENDMDL
MODEL 4
REMARK VINA RESULT:      -6.8      1.046      1.414
REMARK  Name = 
REMARK  6 active torsions:
REMARK  status: ('A' for Active; 'I' for Inactive)
REMARK    1  A    between atoms: C_2  and  OXT_3
REMARK    2  A    between atoms: C_2  and  CA_4
REMARK    3  A    between atoms: C_6  and  C_7
REMARK    4  A    between atoms: C_7  and  O_8
REMARK    5  A    between atoms: O_8  and  C_9
REMARK    6  A    between atoms: C_9  and  C_10
REMARK                            x       y       z     vdW  Elec       q    Type
REMARK                         _______ _______ _______ _____ _____    ______ ____
ROOT
ATOM      1  CA  UNL     1       1.217   4.033  19.749  0.00  0.00    +0.000 C 
ATOM      2  C   UNL     1       2.024   4.705  18.627  0.00  0.00    +0.000 C 
ATOM      3  C   UNL     1       3.151   3.838  18.047  0.00  0.00    +0.000 C 
ATOM      4  C   UNL     1       2.604   2.445  17.709  0.00  0.00    +0.000 C 
ATOM      5  C   UNL     1       1.860   1.820  18.884  0.00  0.00    +0.000 C 
ATOM      6  N   UNL     1       0.770   2.677  19.358  0.00  0.00    +0.000 NA
ATOM      7  H   UNL     1       0.357   2.228  20.180  0.00  0.00    +0.000 HD
ENDROOT
BRANCH   1   9
ATOM      8  O   UNL     1       1.890   3.109  21.925  0.00  0.00    +0.000 OA
ATOM      9  C   UNL     1       1.921   4.031  21.123  0.00  0.00    +0.000 C 
BRANCH   9  10
ATOM     10  OXT UNL     1       2.571   5.185  21.407  0.00  0.00    +0.000 OA
ATOM     11  HXT UNL     1       2.809   5.721  20.627  0.00  0.00    +0.000 HD
ENDBRANCH   9  10
ENDBRANCH   1   9
BRANCH   3  12
ATOM     12  C   UNL     1       4.380   3.784  18.967  0.00  0.00    +0.000 C 
BRANCH  12  13
ATOM     13  O   UNL     1       4.808   5.113  19.253  0.00  0.00    +0.000 OA
BRANCH  13  14
ATOM     14  C   UNL     1       6.239   5.213  19.291  0.00  0.00    +0.000 C 
BRANCH  14  15
ATOM     15  C   UNL     1       6.796   5.633  17.980  0.00  0.00    +0.000 A 
ATOM     16  N   UNL     1       7.076   4.742  16.974  0.00  0.00    +0.000 NA
ATOM     17  N   UNL     1       7.548   5.457  15.963  0.00  0.00    +0.000 NA
ATOM     18  N   UNL     1       7.536   6.721  16.403  0.00  0.00    +0.000 N 
ATOM     19  N   UNL     1       7.055   6.908  17.642  0.00  0.00    +0.000 NA
ATOM     20  H   UNL     1       7.865   7.490  15.828  0.00  0.00    +0.000 HD
ENDBRANCH  14  15
ENDBRANCH  13  14
ENDBRANCH  12  13
ENDBRANCH   3  12
TORSDOF 6
ENDMDL
MODEL 5
REMARK VINA RESULT:      -6.8      0.833      1.137
REMARK  Name = 
REMARK  6 active torsions:
REMARK  status: ('A' for Active; 'I' for Inactive)
REMARK    1  A    between atoms: C_2  and  OXT_3
REMARK    2  A    between atoms: C_2  and  CA_4
REMARK    3  A    between atoms: C_6  and  C_7
REMARK    4  A    between atoms: C_7  and  O_8
REMARK    5  A    between atoms: O_8  and  C_9
REMARK    6  A    between atoms: C_9  and  C_10
REMARK                            x       y       z     vdW  Elec       q    Type
REMARK                         _______ _______ _______ _____ _____    ______ ____
ROOT
ATOM      1  CA  UNL     1       1.089   2.952  18.833  0.00  0.00    +0.000 C 
ATOM      2  C   UNL     1       1.538   3.987  17.788  0.00  0.00    +0.000 C 
ATOM      3  C   UNL     1       3.058   4.180  17.696  0.00  0.00    +0.000 C 
ATOM      4  C   UNL     1       3.743   2.810  17.590  0.00  0.00    +0.000 C 
ATOM      5  C   UNL     1       3.288   1.855  18.688  0.00  0.00    +0.000 C 
ATOM      6  N   UNL     1       1.833   1.681  18.691  0.00  0.00    +0.000 NA
ATOM      7  H   UNL     1       1.594   1.080  19.484  0.00  0.00    +0.000 HD
ENDROOT
BRANCH   1   9
ATOM      8  O   UNL     1       1.021   4.644  20.614  0.00  0.00    +0.000 OA
ATOM      9  C   UNL     1       1.111   3.470  20.287  0.00  0.00    +0.000 C 
BRANCH   9  10
ATOM     10  OXT UNL     1       1.284   2.496  21.212  0.00  0.00    +0.000 OA
ATOM     11  HXT UNL     1       0.477   1.994  21.432  0.00  0.00    +0.000 HD
ENDBRANCH   9  10
ENDBRANCH   1   9
BRANCH   3  12
ATOM     12  C   UNL     1       3.611   5.031  18.849  0.00  0.00    +0.000 C 
BRANCH  12  13
ATOM     13  O   UNL     1       4.520   5.995  18.323  0.00  0.00    +0.000 OA
BRANCH  13  14
ATOM     14  C   UNL     1       5.884   5.588  18.500  0.00  0.00    +0.000 C 
BRANCH  14  15
ATOM     15  C   UNL     1       6.566   5.369  17.198  0.00  0.00    +0.000 A 
ATOM     16  N   UNL     1       6.284   6.113  16.080  0.00  0.00    +0.000 NA
ATOM     17  N   UNL     1       7.072   5.654  15.118  0.00  0.00    +0.000 NA
ATOM     18  N   UNL     1       7.774   4.669  15.692  0.00  0.00    +0.000 N 
ATOM     19  N   UNL     1       7.530   4.454  16.994  0.00  0.00    +0.000 NA
ATOM     20  H   UNL     1       8.455   4.125  15.172  0.00  0.00    +0.000 HD
ENDBRANCH  14  15
ENDBRANCH  13  14
ENDBRANCH  12  13
ENDBRANCH   3  12
TORSDOF 6
ENDMDL
MODEL 6
REMARK VINA RESULT:      -6.7      1.370      1.545
REMARK  Name = 
REMARK  6 active torsions:
REMARK  status: ('A' for Active; 'I' for Inactive)
REMARK    1  A    between atoms: C_2  and  OXT_3
REMARK    2  A    between atoms: C_2  and  CA_4
REMARK    3  A    between atoms: C_6  and  C_7
REMARK    4  A    between atoms: C_7  and  O_8
REMARK    5  A    between atoms: O_8  and  C_9
REMARK    6  A    between atoms: C_9  and  C_10
REMARK                            x       y       z     vdW  Elec       q    Type
REMARK                         _______ _______ _______ _____ _____    ______ ____
ROOT
ATOM      1  CA  UNL     1       1.231   3.934  19.792  0.00  0.00    +0.000 C 
ATOM      2  C   UNL     1       1.916   4.739  18.676  0.00  0.00    +0.000 C 
ATOM      3  C   UNL     1       3.178   4.081  18.100  0.00  0.00    +0.000 C 
ATOM      4  C   UNL     1       2.881   2.616  17.754  0.00  0.00    +0.000 C 
ATOM      5  C   UNL     1       2.250   1.868  18.923  0.00  0.00    +0.000 C 
ATOM      6  N   UNL     1       1.027   2.523  19.394  0.00  0.00    +0.000 NA
ATOM      7  H   UNL     1       0.692   2.006  20.212  0.00  0.00    +0.000 HD
ENDROOT
BRANCH   1   9
ATOM      8  O   UNL     1       1.999   3.144  21.989  0.00  0.00    +0.000 OA
ATOM      9  C   UNL     1       1.918   4.047  21.169  0.00  0.00    +0.000 C 
BRANCH   9  10
ATOM     10  OXT UNL     1       2.412   5.281  21.435  0.00  0.00    +0.000 OA
ATOM     11  HXT UNL     1       2.217   5.952  20.755  0.00  0.00    +0.000 HD
ENDBRANCH   9  10
ENDBRANCH   1   9
BRANCH   3  12
ATOM     12  C   UNL     1       4.394   4.236  19.027  0.00  0.00    +0.000 C 
BRANCH  12  13
ATOM     13  O   UNL     1       5.587   4.128  18.254  0.00  0.00    +0.000 OA
BRANCH  13  14
ATOM     14  C   UNL     1       5.888   5.354  17.571  0.00  0.00    +0.000 C 
BRANCH  14  15
ATOM     15  C   UNL     1       6.392   5.109  16.195  0.00  0.00    +0.000 A 
ATOM     16  N   UNL     1       7.407   5.843  15.636  0.00  0.00    +0.000 NA
ATOM     17  N   UNL     1       7.594   5.353  14.419  0.00  0.00    +0.000 NA
ATOM     18  N   UNL     1       6.695   4.369  14.304  0.00  0.00    +0.000 N 
ATOM     19  N   UNL     1       5.929   4.143  15.383  0.00  0.00    +0.000 NA
ATOM     20  H   UNL     1       6.606   3.823  13.453  0.00  0.00    +0.000 HD
ENDBRANCH  14  15
ENDBRANCH  13  14
ENDBRANCH  12  13
ENDBRANCH   3  12
TORSDOF 6
ENDMDL
MODEL 7
REMARK VINA RESULT:      -6.7      0.822      1.242
REMARK  Name = 
REMARK  6 active torsions:
REMARK  status: ('A' for Active; 'I' for Inactive)
REMARK    1  A    between atoms: C_2  and  OXT_3
REMARK    2  A    between atoms: C_2  and  CA_4
REMARK    3  A    between atoms: C_6  and  C_7
REMARK    4  A    between atoms: C_7  and  O_8
REMARK    5  A    between atoms: O_8  and  C_9
REMARK    6  A    between atoms: C_9  and  C_10
REMARK                            x       y       z     vdW  Elec       q    Type
REMARK                         _______ _______ _______ _____ _____    ______ ____
ROOT
ATOM      1  CA  UNL     1       1.086   3.153  19.158  0.00  0.00    +0.000 C 
ATOM      2  C   UNL     1       1.562   4.101  18.044  0.00  0.00    +0.000 C 
ATOM      3  C   UNL     1       3.066   4.030  17.747  0.00  0.00    +0.000 C 
ATOM      4  C   UNL     1       3.486   2.563  17.575  0.00  0.00    +0.000 C 
ATOM      5  C   UNL     1       3.025   1.695  18.740  0.00  0.00    +0.000 C 
ATOM      6  N   UNL     1       1.576   1.774  18.940  0.00  0.00    +0.000 NA
ATOM      7  H   UNL     1       1.345   1.219  19.769  0.00  0.00    +0.000 HD
ENDROOT
BRANCH   1   9
ATOM      8  O   UNL     1       1.737   2.938  21.518  0.00  0.00    +0.000 OA
ATOM      9  C   UNL     1       1.392   3.651  20.586  0.00  0.00    +0.000 C 
BRANCH   9  10
ATOM     10  OXT UNL     1       1.205   4.982  20.755  0.00  0.00    +0.000 OA
ATOM     11  HXT UNL     1       0.425   5.345  20.295  0.00  0.00    +0.000 HD
ENDBRANCH   9  10
ENDBRANCH   1   9
BRANCH   3  12
ATOM     12  C   UNL     1       3.907   4.766  18.801  0.00  0.00    +0.000 C 
BRANCH  12  13
ATOM     13  O   UNL     1       5.283   4.450  18.606  0.00  0.00    +0.000 OA
BRANCH  13  14
ATOM     14  C   UNL     1       6.021   5.578  18.115  0.00  0.00    +0.000 C 
BRANCH  14  15
ATOM     15  C   UNL     1       6.565   5.331  16.755  0.00  0.00    +0.000 A 
ATOM     16  N   UNL     1       6.221   4.233  16.008  0.00  0.00    +0.000 NA
ATOM     17  N   UNL     1       6.882   4.338  14.864  0.00  0.00    +0.000 NA
ATOM     18  N   UNL     1       7.584   5.471  14.978  0.00  0.00    +0.000 N 
ATOM     19  N   UNL     1       7.415   6.156  16.120  0.00  0.00    +0.000 NA
ATOM     20  H   UNL     1       8.201   5.795  14.239  0.00  0.00    +0.000 HD
ENDBRANCH  14  15
ENDBRANCH  13  14
ENDBRANCH  12  13
ENDBRANCH   3  12
TORSDOF 6
ENDMDL
MODEL 8
REMARK VINA RESULT:      -6.7      1.374      1.677
REMARK  Name = 
REMARK  6 active torsions:
REMARK  status: ('A' for Active; 'I' for Inactive)
REMARK    1  A    between atoms: C_2  and  OXT_3
REMARK    2  A    between atoms: C_2  and  CA_4
REMARK    3  A    between atoms: C_6  and  C_7
REMARK    4  A    between atoms: C_7  and  O_8
REMARK    5  A    between atoms: O_8  and  C_9
REMARK    6  A    between atoms: C_9  and  C_10
REMARK                            x       y       z     vdW  Elec       q    Type
REMARK                         _______ _______ _______ _____ _____    ______ ____
ROOT
ATOM      1  CA  UNL     1       1.441   3.369  19.844  0.00  0.00    +0.000 C 
ATOM      2  C   UNL     1       1.629   4.310  18.642  0.00  0.00    +0.000 C 
ATOM      3  C   UNL     1       2.943   4.108  17.874  0.00  0.00    +0.000 C 
ATOM      4  C   UNL     1       3.134   2.616  17.568  0.00  0.00    +0.000 C 
ATOM      5  C   UNL     1       2.985   1.751  18.814  0.00  0.00    +0.000 C 
ATOM      6  N   UNL     1       1.692   1.959  19.471  0.00  0.00    +0.000 NA
ATOM      7  H   UNL     1       1.684   1.397  20.327  0.00  0.00    +0.000 HD
ENDROOT
BRANCH   1   9
ATOM      8  O   UNL     1       2.649   3.008  21.954  0.00  0.00    +0.000 OA
ATOM      9  C   UNL     1       2.238   3.781  21.100  0.00  0.00    +0.000 C 
BRANCH   9  10
ATOM     10  OXT UNL     1       2.423   5.117  21.218  0.00  0.00    +0.000 OA
ATOM     11  HXT UNL     1       2.402   5.452  22.133  0.00  0.00    +0.000 HD
ENDBRANCH   9  10
ENDBRANCH   1   9
BRANCH   3  12
ATOM     12  C   UNL     1       4.147   4.721  18.605  0.00  0.00    +0.000 C 
BRANCH  12  13
ATOM     13  O   UNL     1       3.991   6.137  18.656  0.00  0.00    +0.000 OA
BRANCH  13  14
ATOM     14  C   UNL     1       4.178   6.737  17.366  0.00  0.00    +0.000 C 
BRANCH  14  15
ATOM     15  C   UNL     1       5.568   6.561  16.873  0.00  0.00    +0.000 A 
ATOM     16  N   UNL     1       5.866   5.850  15.738  0.00  0.00    +0.000 NA
ATOM     17  N   UNL     1       7.183   5.903  15.600  0.00  0.00    +0.000 NA
ATOM     18  N   UNL     1       7.607   6.626  16.643  0.00  0.00    +0.000 N 
ATOM     19  N   UNL     1       6.652   7.091  17.464  0.00  0.00    +0.000 NA
ATOM     20  H   UNL     1       8.593   6.816  16.797  0.00  0.00    +0.000 HD
ENDBRANCH  14  15
ENDBRANCH  13  14
ENDBRANCH  12  13
ENDBRANCH   3  12
TORSDOF 6
ENDMDL
MODEL 9
REMARK VINA RESULT:      -6.6      0.832      1.438
REMARK  Name = 
REMARK  6 active torsions:
REMARK  status: ('A' for Active; 'I' for Inactive)
REMARK    1  A    between atoms: C_2  and  OXT_3
REMARK    2  A    between atoms: C_2  and  CA_4
REMARK    3  A    between atoms: C_6  and  C_7
REMARK    4  A    between atoms: C_7  and  O_8
REMARK    5  A    between atoms: O_8  and  C_9
REMARK    6  A    between atoms: C_9  and  C_10
REMARK                            x       y       z     vdW  Elec       q    Type
REMARK                         _______ _______ _______ _____ _____    ______ ____
ROOT
ATOM      1  CA  UNL     1       1.407   3.895  19.130  0.00  0.00    +0.000 C 
ATOM      2  C   UNL     1       2.195   4.687  18.073  0.00  0.00    +0.000 C 
ATOM      3  C   UNL     1       3.709   4.435  18.087  0.00  0.00    +0.000 C 
ATOM      4  C   UNL     1       3.977   2.923  18.100  0.00  0.00    +0.000 C 
ATOM      5  C   UNL     1       3.203   2.213  19.204  0.00  0.00    +0.000 C 
ATOM      6  N   UNL     1       1.762   2.458  19.105  0.00  0.00    +0.000 NA
ATOM      7  H   UNL     1       1.314   2.005  19.907  0.00  0.00    +0.000 HD
ENDROOT
BRANCH   1   9
ATOM      8  O   UNL     1       1.428   5.672  20.827  0.00  0.00    +0.000 OA
ATOM      9  C   UNL     1       1.491   4.482  20.555  0.00  0.00    +0.000 C 
BRANCH   9  10
ATOM     10  OXT UNL     1       1.688   3.551  21.520  0.00  0.00    +0.000 OA
ATOM     11  HXT UNL     1       1.042   2.822  21.519  0.00  0.00    +0.000 HD
ENDBRANCH   9  10
ENDBRANCH   1   9
BRANCH   3  12
ATOM     12  C   UNL     1       4.414   5.171  19.237  0.00  0.00    +0.000 C 
BRANCH  12  13
ATOM     13  O   UNL     1       5.696   4.584  19.450  0.00  0.00    +0.000 OA
BRANCH  13  14
ATOM     14  C   UNL     1       6.756   5.496  19.126  0.00  0.00    +0.000 C 
BRANCH  14  15
ATOM     15  C   UNL     1       7.081   5.472  17.677  0.00  0.00    +0.000 A 
ATOM     16  N   UNL     1       7.551   4.350  17.042  0.00  0.00    +0.000 NA
ATOM     17  N   UNL     1       7.725   4.685  15.772  0.00  0.00    +0.000 NA
ATOM     18  N   UNL     1       7.363   5.972  15.705  0.00  0.00    +0.000 N 
ATOM     19  N   UNL     1       6.925   6.520  16.850  0.00  0.00    +0.000 NA
ATOM     20  H   UNL     1       7.411   6.496  14.838  0.00  0.00    +0.000 HD
ENDBRANCH  14  15
ENDBRANCH  13  14
ENDBRANCH  12  13
ENDBRANCH   3  12
TORSDOF 6
ENDMDL
