MODEL 1
REMARK VINA RESULT:      -6.4      0.000      0.000
REMARK  Name = 
REMARK  9 active torsions:
REMARK  status: ('A' for Active; 'I' for Inactive)
REMARK    1  A    between atoms: C_2  and  C_3
REMARK    2  A    between atoms: C_2  and  C_15
REMARK    3  A    between atoms: C_3  and  C_4
REMARK    4  A    between atoms: C_4  and  C_5
REMARK    5  A    between atoms: C_5  and  O_6
REMARK    6  A    between atoms: O_6  and  C_7
REMARK    7  A    between atoms: C_7  and  C_8
REMARK    8  A    between atoms: C_8  and  C_9
REMARK    9  A    between atoms: C_9  and  C_10
REMARK                            x       y       z     vdW  Elec       q    Type
REMARK                         _______ _______ _______ _____ _____    ______ ____
ROOT
ATOM      1  C   UNL     1       6.670   5.345  18.786  0.00  0.00    +0.000 C 
ENDROOT
BRANCH   1   2
ATOM      2  C   UNL     1       7.263   4.627  17.574  0.00  0.00    +0.000 C 
BRANCH   2   4
ATOM      3  O   UNL     1       7.580   6.692  16.374  0.00  0.00    +0.000 OA
ATOM      4  C   UNL     1       7.249   5.509  16.342  0.00  0.00    +0.000 C 
BRANCH   4   5
ATOM      5  C   UNL     1       6.804   4.910  15.049  0.00  0.00    +0.000 A 
ATOM      6  C   UNL     1       5.569   4.247  15.019  0.00  0.00    +0.000 A 
ATOM      7  C   UNL     1       5.116   3.658  13.841  0.00  0.00    +0.000 A 
ATOM      8  C   UNL     1       5.900   3.727  12.695  0.00  0.00    +0.000 A 
ATOM      9  F   UNL     1       5.470   3.153  11.564  0.00  0.00    +0.000 F 
ATOM     10  C   UNL     1       7.124   4.385  12.705  0.00  0.00    +0.000 A 
ATOM     11  C   UNL     1       7.580   4.980  13.883  0.00  0.00    +0.000 A 
ENDBRANCH   4   5
ENDBRANCH   2   4
ENDBRANCH   1   2
BRANCH   1  12
ATOM     12  C   UNL     1       5.181   5.597  18.608  0.00  0.00    +0.000 C 
BRANCH  12  13
ATOM     13  O   UNL     1       4.549   4.391  18.181  0.00  0.00    +0.000 OA
BRANCH  13  14
ATOM     14  C   UNL     1       3.197   4.631  17.802  0.00  0.00    +0.000 C 
BRANCH  14  15
ATOM     15  C   UNL     1       2.542   3.315  17.408  0.00  0.00    +0.000 C 
BRANCH  15  16
ATOM     16  C   UNL     1       2.977   2.209  18.364  0.00  0.00    +0.000 C 
BRANCH  16  17
ATOM     17  C   UNL     1       2.531   2.452  19.758  0.00  0.00    +0.000 A 
ATOM     18  C   UNL     1       3.284   2.506  20.912  0.00  0.00    +0.000 A 
ATOM     19  N   UNL     1       2.389   2.768  21.911  0.00  0.00    +0.000 N 
ATOM     20  C   UNL     1       1.152   2.867  21.342  0.00  0.00    +0.000 A 
ATOM     21  N   UNL     1       1.205   2.681  20.043  0.00  0.00    +0.000 NA
ATOM     22  H   UNL     1       2.599   2.879  22.893  0.00  0.00    +0.000 HD
ENDBRANCH  16  17
ENDBRANCH  15  16
ENDBRANCH  14  15
ENDBRANCH  13  14
ENDBRANCH  12  13
ENDBRANCH   1  12
TORSDOF 9
ENDMDL
MODEL 2
REMARK VINA RESULT:      -6.4      4.383      6.802
REMARK  Name = 
REMARK  9 active torsions:
REMARK  status: ('A' for Active; 'I' for Inactive)
REMARK    1  A    between atoms: C_2  and  C_3
REMARK    2  A    between atoms: C_2  and  C_15
REMARK    3  A    between atoms: C_3  and  C_4
REMARK    4  A    between atoms: C_4  and  C_5
REMARK    5  A    between atoms: C_5  and  O_6
REMARK    6  A    between atoms: O_6  and  C_7
REMARK    7  A    between atoms: C_7  and  C_8
REMARK    8  A    between atoms: C_8  and  C_9
REMARK    9  A    between atoms: C_9  and  C_10
REMARK                            x       y       z     vdW  Elec       q    Type
REMARK                         _______ _______ _______ _____ _____    ______ ____
ROOT
ATOM      1  C   UNL     1       1.868   3.541  19.732  0.00  0.00    +0.000 C 
ENDROOT
BRANCH   1   2
ATOM      2  C   UNL     1       1.829   4.870  20.487  0.00  0.00    +0.000 C 
BRANCH   2   4
ATOM      3  O   UNL     1       4.001   5.639  19.781  0.00  0.00    +0.000 OA
ATOM      4  C   UNL     1       2.800   5.874  19.899  0.00  0.00    +0.000 C 
BRANCH   4   5
ATOM      5  C   UNL     1       2.268   7.197  19.459  0.00  0.00    +0.000 A 
ATOM      6  C   UNL     1       1.624   8.000  20.412  0.00  0.00    +0.000 A 
ATOM      7  C   UNL     1       1.096   9.236  20.049  0.00  0.00    +0.000 A 
ATOM      8  C   UNL     1       1.209   9.669  18.732  0.00  0.00    +0.000 A 
ATOM      9  F   UNL     1       0.694  10.854  18.380  0.00  0.00    +0.000 F 
ATOM     10  C   UNL     1       1.849   8.890  17.776  0.00  0.00    +0.000 A 
ATOM     11  C   UNL     1       2.383   7.651  18.137  0.00  0.00    +0.000 A 
ENDBRANCH   4   5
ENDBRANCH   2   4
ENDBRANCH   1   2
BRANCH   1  12
ATOM     12  C   UNL     1       1.108   3.627  18.419  0.00  0.00    +0.000 C 
BRANCH  12  13
ATOM     13  O   UNL     1       1.910   3.078  17.375  0.00  0.00    +0.000 OA
BRANCH  13  14
ATOM     14  C   UNL     1       2.928   2.233  17.904  0.00  0.00    +0.000 C 
BRANCH  14  15
ATOM     15  C   UNL     1       4.283   2.904  17.727  0.00  0.00    +0.000 C 
BRANCH  15  16
ATOM     16  C   UNL     1       4.187   4.007  16.679  0.00  0.00    +0.000 C 
BRANCH  16  17
ATOM     17  C   UNL     1       5.503   4.346  16.086  0.00  0.00    +0.000 A 
ATOM     18  C   UNL     1       6.734   4.439  16.701  0.00  0.00    +0.000 A 
ATOM     19  N   UNL     1       7.609   4.767  15.704  0.00  0.00    +0.000 N 
ATOM     20  C   UNL     1       6.897   4.855  14.543  0.00  0.00    +0.000 A 
ATOM     21  N   UNL     1       5.623   4.607  14.741  0.00  0.00    +0.000 NA
ATOM     22  H   UNL     1       8.604   4.910  15.800  0.00  0.00    +0.000 HD
ENDBRANCH  16  17
ENDBRANCH  15  16
ENDBRANCH  14  15
ENDBRANCH  13  14
ENDBRANCH  12  13
ENDBRANCH   1  12
TORSDOF 9
ENDMDL
MODEL 3
REMARK VINA RESULT:      -6.3      4.393      6.843
REMARK  Name = 
REMARK  9 active torsions:
REMARK  status: ('A' for Active; 'I' for Inactive)
REMARK    1  A    between atoms: C_2  and  C_3
REMARK    2  A    between atoms: C_2  and  C_15
REMARK    3  A    between atoms: C_3  and  C_4
REMARK    4  A    between atoms: C_4  and  C_5
REMARK    5  A    between atoms: C_5  and  O_6
REMARK    6  A    between atoms: O_6  and  C_7
REMARK    7  A    between atoms: C_7  and  C_8
REMARK    8  A    between atoms: C_8  and  C_9
REMARK    9  A    between atoms: C_9  and  C_10
REMARK                            x       y       z     vdW  Elec       q    Type
REMARK                         _______ _______ _______ _____ _____    ______ ____
ROOT
ATOM      1  C   UNL     1       1.252   3.888  19.294  0.00  0.00    +0.000 C 
ENDROOT
BRANCH   1   2
ATOM      2  C   UNL     1       1.680   4.854  20.398  0.00  0.00    +0.000 C 
BRANCH   2   4
ATOM      3  O   UNL     1       3.857   5.656  19.746  0.00  0.00    +0.000 OA
ATOM      4  C   UNL     1       2.658   5.891  19.883  0.00  0.00    +0.000 C 
BRANCH   4   5
ATOM      5  C   UNL     1       2.137   7.248  19.544  0.00  0.00    +0.000 A 
ATOM      6  C   UNL     1       2.292   7.703  18.226  0.00  0.00    +0.000 A 
ATOM      7  C   UNL     1       1.837   8.968  17.861  0.00  0.00    +0.000 A 
ATOM      8  C   UNL     1       1.232   9.779  18.815  0.00  0.00    +0.000 A 
ATOM      9  F   UNL     1       0.803  10.999  18.468  0.00  0.00    +0.000 F 
ATOM     10  C   UNL     1       1.065   9.343  20.123  0.00  0.00    +0.000 A 
ATOM     11  C   UNL     1       1.517   8.073  20.492  0.00  0.00    +0.000 A 
ENDBRANCH   4   5
ENDBRANCH   2   4
ENDBRANCH   1   2
BRANCH   1  12
ATOM     12  C   UNL     1       1.624   2.454  19.636  0.00  0.00    +0.000 C 
BRANCH  12  13
ATOM     13  O   UNL     1       2.426   1.914  18.588  0.00  0.00    +0.000 OA
BRANCH  13  14
ATOM     14  C   UNL     1       2.661   2.885  17.573  0.00  0.00    +0.000 C 
BRANCH  14  15
ATOM     15  C   UNL     1       4.136   3.262  17.567  0.00  0.00    +0.000 C 
BRANCH  15  16
ATOM     16  C   UNL     1       4.452   4.114  16.343  0.00  0.00    +0.000 C 
BRANCH  16  17
ATOM     17  C   UNL     1       5.440   5.182  16.631  0.00  0.00    +0.000 A 
ATOM     18  C   UNL     1       5.339   6.539  16.411  0.00  0.00    +0.000 A 
ATOM     19  N   UNL     1       6.516   7.065  16.864  0.00  0.00    +0.000 N 
ATOM     20  C   UNL     1       7.273   6.033  17.338  0.00  0.00    +0.000 A 
ATOM     21  N   UNL     1       6.652   4.883  17.210  0.00  0.00    +0.000 NA
ATOM     22  H   UNL     1       6.780   8.040  16.862  0.00  0.00    +0.000 HD
ENDBRANCH  16  17
ENDBRANCH  15  16
ENDBRANCH  14  15
ENDBRANCH  13  14
ENDBRANCH  12  13
ENDBRANCH   1  12
TORSDOF 9
ENDMDL
MODEL 4
REMARK VINA RESULT:      -6.2      5.089      7.094
REMARK  Name = 
REMARK  9 active torsions:
REMARK  status: ('A' for Active; 'I' for Inactive)
REMARK    1  A    between atoms: C_2  and  C_3
REMARK    2  A    between atoms: C_2  and  C_15
REMARK    3  A    between atoms: C_3  and  C_4
REMARK    4  A    between atoms: C_4  and  C_5
REMARK    5  A    between atoms: C_5  and  O_6
REMARK    6  A    between atoms: O_6  and  C_7
REMARK    7  A    between atoms: C_7  and  C_8
REMARK    8  A    between atoms: C_8  and  C_9
REMARK    9  A    between atoms: C_9  and  C_10
REMARK                            x       y       z     vdW  Elec       q    Type
REMARK                         _______ _______ _______ _____ _____    ______ ____
ROOT
ATOM      1  C   UNL     1       3.768   7.265  17.410  0.00  0.00    +0.000 C 
ENDROOT
BRANCH   1   2
ATOM      2  C   UNL     1       2.604   7.317  18.399  0.00  0.00    +0.000 C 
BRANCH   2   4
ATOM      3  O   UNL     1       2.070   9.495  17.518  0.00  0.00    +0.000 OA
ATOM      4  C   UNL     1       1.972   8.694  18.445  0.00  0.00    +0.000 C 
BRANCH   4   5
ATOM      5  C   UNL     1       1.215   9.084  19.670  0.00  0.00    +0.000 A 
ATOM      6  C   UNL     1       0.314  10.155  19.576  0.00  0.00    +0.000 A 
ATOM      7  C   UNL     1      -0.405  10.570  20.695  0.00  0.00    +0.000 A 
ATOM      8  C   UNL     1      -0.220   9.916  21.908  0.00  0.00    +0.000 A 
ATOM      9  F   UNL     1      -0.904  10.319  22.986  0.00  0.00    +0.000 F 
ATOM     10  C   UNL     1       0.664   8.850  22.019  0.00  0.00    +0.000 A 
ATOM     11  C   UNL     1       1.384   8.429  20.898  0.00  0.00    +0.000 A 
ENDBRANCH   4   5
ENDBRANCH   2   4
ENDBRANCH   1   2
BRANCH   1  12
ATOM     12  C   UNL     1       4.761   6.175  17.780  0.00  0.00    +0.000 C 
BRANCH  12  13
ATOM     13  O   UNL     1       4.711   5.141  16.799  0.00  0.00    +0.000 OA
BRANCH  13  14
ATOM     14  C   UNL     1       4.448   3.877  17.403  0.00  0.00    +0.000 C 
BRANCH  14  15
ATOM     15  C   UNL     1       2.995   3.495  17.161  0.00  0.00    +0.000 C 
BRANCH  15  16
ATOM     16  C   UNL     1       2.649   2.236  17.948  0.00  0.00    +0.000 C 
BRANCH  16  17
ATOM     17  C   UNL     1       2.134   2.536  19.307  0.00  0.00    +0.000 A 
ATOM     18  C   UNL     1       0.856   2.878  19.694  0.00  0.00    +0.000 A 
ATOM     19  N   UNL     1       0.921   3.034  21.049  0.00  0.00    +0.000 N 
ATOM     20  C   UNL     1       2.207   2.782  21.432  0.00  0.00    +0.000 A 
ATOM     21  N   UNL     1       2.963   2.480  20.403  0.00  0.00    +0.000 NA
ATOM     22  H   UNL     1       0.158   3.281  21.664  0.00  0.00    +0.000 HD
ENDBRANCH  16  17
ENDBRANCH  15  16
ENDBRANCH  14  15
ENDBRANCH  13  14
ENDBRANCH  12  13
ENDBRANCH   1  12
TORSDOF 9
ENDMDL
MODEL 5
REMARK VINA RESULT:      -6.2      6.529      8.826
REMARK  Name = 
REMARK  9 active torsions:
REMARK  status: ('A' for Active; 'I' for Inactive)
REMARK    1  A    between atoms: C_2  and  C_3
REMARK    2  A    between atoms: C_2  and  C_15
REMARK    3  A    between atoms: C_3  and  C_4
REMARK    4  A    between atoms: C_4  and  C_5
REMARK    5  A    between atoms: C_5  and  O_6
REMARK    6  A    between atoms: O_6  and  C_7
REMARK    7  A    between atoms: C_7  and  C_8
REMARK    8  A    between atoms: C_8  and  C_9
REMARK    9  A    between atoms: C_9  and  C_10
REMARK                            x       y       z     vdW  Elec       q    Type
REMARK                         _______ _______ _______ _____ _____    ______ ____
ROOT
ATOM      1  C   UNL     1       8.348   7.098  18.407  0.00  0.00    +0.000 C 
ENDROOT
BRANCH   1   2
ATOM      2  C   UNL     1       7.634   5.918  19.067  0.00  0.00    +0.000 C 
BRANCH   2   4
ATOM      3  O   UNL     1       8.152   4.315  17.344  0.00  0.00    +0.000 OA
ATOM      4  C   UNL     1       7.299   4.836  18.061  0.00  0.00    +0.000 C 
BRANCH   4   5
ATOM      5  C   UNL     1       5.877   4.401  17.936  0.00  0.00    +0.000 A 
ATOM      6  C   UNL     1       5.304   4.378  16.656  0.00  0.00    +0.000 A 
ATOM      7  C   UNL     1       3.975   3.995  16.488  0.00  0.00    +0.000 A 
ATOM      8  C   UNL     1       3.218   3.640  17.599  0.00  0.00    +0.000 A 
ATOM      9  F   UNL     1       1.939   3.281  17.440  0.00  0.00    +0.000 F 
ATOM     10  C   UNL     1       3.772   3.652  18.874  0.00  0.00    +0.000 A 
ATOM     11  C   UNL     1       5.105   4.032  19.047  0.00  0.00    +0.000 A 
ENDBRANCH   4   5
ENDBRANCH   2   4
ENDBRANCH   1   2
BRANCH   1  12
ATOM     12  C   UNL     1       7.422   7.850  17.465  0.00  0.00    +0.000 C 
BRANCH  12  13
ATOM     13  O   UNL     1       7.468   9.242  17.775  0.00  0.00    +0.000 OA
BRANCH  13  14
ATOM     14  C   UNL     1       8.769   9.626  18.211  0.00  0.00    +0.000 C 
BRANCH  14  15
ATOM     15  C   UNL     1       8.927  11.132  18.062  0.00  0.00    +0.000 C 
BRANCH  15  16
ATOM     16  C   UNL     1      10.406  11.501  18.032  0.00  0.00    +0.000 C 
BRANCH  16  17
ATOM     17  C   UNL     1      10.637  12.898  17.591  0.00  0.00    +0.000 A 
ATOM     18  C   UNL     1      11.371  13.359  16.519  0.00  0.00    +0.000 A 
ATOM     19  N   UNL     1      11.248  14.719  16.557  0.00  0.00    +0.000 N 
ATOM     20  C   UNL     1      10.456  15.031  17.624  0.00  0.00    +0.000 A 
ATOM     21  N   UNL     1      10.072  13.953  18.268  0.00  0.00    +0.000 NA
ATOM     22  H   UNL     1      11.657  15.379  15.911  0.00  0.00    +0.000 HD
ENDBRANCH  16  17
ENDBRANCH  15  16
ENDBRANCH  14  15
ENDBRANCH  13  14
ENDBRANCH  12  13
ENDBRANCH   1  12
TORSDOF 9
ENDMDL
MODEL 6
REMARK VINA RESULT:      -6.2      1.698      2.224
REMARK  Name = 
REMARK  9 active torsions:
REMARK  status: ('A' for Active; 'I' for Inactive)
REMARK    1  A    between atoms: C_2  and  C_3
REMARK    2  A    between atoms: C_2  and  C_15
REMARK    3  A    between atoms: C_3  and  C_4
REMARK    4  A    between atoms: C_4  and  C_5
REMARK    5  A    between atoms: C_5  and  O_6
REMARK    6  A    between atoms: O_6  and  C_7
REMARK    7  A    between atoms: C_7  and  C_8
REMARK    8  A    between atoms: C_8  and  C_9
REMARK    9  A    between atoms: C_9  and  C_10
REMARK                            x       y       z     vdW  Elec       q    Type
REMARK                         _______ _______ _______ _____ _____    ______ ____
ROOT
ATOM      1  C   UNL     1       3.741   5.216  17.430  0.00  0.00    +0.000 C 
ENDROOT
BRANCH   1   2
ATOM      2  C   UNL     1       5.083   4.781  16.841  0.00  0.00    +0.000 C 
BRANCH   2   4
ATOM      3  O   UNL     1       5.368   6.874  15.683  0.00  0.00    +0.000 OA
ATOM      4  C   UNL     1       5.485   5.651  15.667  0.00  0.00    +0.000 C 
BRANCH   4   5
ATOM      5  C   UNL     1       6.032   4.986  14.448  0.00  0.00    +0.000 A 
ATOM      6  C   UNL     1       5.256   3.990  13.836  0.00  0.00    +0.000 A 
ATOM      7  C   UNL     1       5.728   3.327  12.705  0.00  0.00    +0.000 A 
ATOM      8  C   UNL     1       6.977   3.657  12.189  0.00  0.00    +0.000 A 
ATOM      9  F   UNL     1       7.436   3.015  11.108  0.00  0.00    +0.000 F 
ATOM     10  C   UNL     1       7.756   4.645  12.780  0.00  0.00    +0.000 A 
ATOM     11  C   UNL     1       7.285   5.314  13.912  0.00  0.00    +0.000 A 
ENDBRANCH   4   5
ENDBRANCH   2   4
ENDBRANCH   1   2
BRANCH   1  12
ATOM     12  C   UNL     1       3.927   6.268  18.513  0.00  0.00    +0.000 C 
BRANCH  12  13
ATOM     13  O   UNL     1       3.264   5.839  19.702  0.00  0.00    +0.000 OA
BRANCH  13  14
ATOM     14  C   UNL     1       1.948   5.375  19.413  0.00  0.00    +0.000 C 
BRANCH  14  15
ATOM     15  C   UNL     1       1.388   4.659  20.634  0.00  0.00    +0.000 C 
BRANCH  15  16
ATOM     16  C   UNL     1       1.218   3.174  20.335  0.00  0.00    +0.000 C 
BRANCH  16  17
ATOM     17  C   UNL     1       2.425   2.576  19.714  0.00  0.00    +0.000 A 
ATOM     18  C   UNL     1       3.697   2.451  20.234  0.00  0.00    +0.000 A 
ATOM     19  N   UNL     1       4.421   1.820  19.262  0.00  0.00    +0.000 N 
ATOM     20  C   UNL     1       3.583   1.584  18.211  0.00  0.00    +0.000 A 
ATOM     21  N   UNL     1       2.371   2.029  18.453  0.00  0.00    +0.000 NA
ATOM     22  H   UNL     1       5.397   1.564  19.310  0.00  0.00    +0.000 HD
ENDBRANCH  16  17
ENDBRANCH  15  16
ENDBRANCH  14  15
ENDBRANCH  13  14
ENDBRANCH  12  13
ENDBRANCH   1  12
TORSDOF 9
ENDMDL
MODEL 7
REMARK VINA RESULT:      -6.2      5.604      8.156
REMARK  Name = 
REMARK  9 active torsions:
REMARK  status: ('A' for Active; 'I' for Inactive)
REMARK    1  A    between atoms: C_2  and  C_3
REMARK    2  A    between atoms: C_2  and  C_15
REMARK    3  A    between atoms: C_3  and  C_4
REMARK    4  A    between atoms: C_4  and  C_5
REMARK    5  A    between atoms: C_5  and  O_6
REMARK    6  A    between atoms: O_6  and  C_7
REMARK    7  A    between atoms: C_7  and  C_8
REMARK    8  A    between atoms: C_8  and  C_9
REMARK    9  A    between atoms: C_9  and  C_10
REMARK                            x       y       z     vdW  Elec       q    Type
REMARK                         _______ _______ _______ _____ _____    ______ ____
ROOT
ATOM      1  C   UNL     1       5.283   5.970  16.601  0.00  0.00    +0.000 C 
ENDROOT
BRANCH   1   2
ATOM      2  C   UNL     1       4.389   6.944  17.368  0.00  0.00    +0.000 C 
BRANCH   2   4
ATOM      3  O   UNL     1       2.269   6.826  18.506  0.00  0.00    +0.000 OA
ATOM      4  C   UNL     1       3.244   6.229  18.056  0.00  0.00    +0.000 C 
BRANCH   4   5
ATOM      5  C   UNL     1       3.320   4.745  18.196  0.00  0.00    +0.000 A 
ATOM      6  C   UNL     1       4.236   4.215  19.116  0.00  0.00    +0.000 A 
ATOM      7  C   UNL     1       4.357   2.836  19.273  0.00  0.00    +0.000 A 
ATOM      8  C   UNL     1       3.565   1.987  18.507  0.00  0.00    +0.000 A 
ATOM      9  F   UNL     1       3.687   0.662  18.650  0.00  0.00    +0.000 F 
ATOM     10  C   UNL     1       2.649   2.495  17.594  0.00  0.00    +0.000 A 
ATOM     11  C   UNL     1       2.522   3.877  17.436  0.00  0.00    +0.000 A 
ENDBRANCH   4   5
ENDBRANCH   2   4
ENDBRANCH   1   2
BRANCH   1  12
ATOM     12  C   UNL     1       6.752   6.201  16.914  0.00  0.00    +0.000 C 
BRANCH  12  13
ATOM     13  O   UNL     1       7.026   7.601  16.877  0.00  0.00    +0.000 OA
BRANCH  13  14
ATOM     14  C   UNL     1       7.957   7.966  17.892  0.00  0.00    +0.000 C 
BRANCH  14  15
ATOM     15  C   UNL     1       8.160   9.474  17.872  0.00  0.00    +0.000 C 
BRANCH  15  16
ATOM     16  C   UNL     1       9.103   9.889  18.995  0.00  0.00    +0.000 C 
BRANCH  16  17
ATOM     17  C   UNL     1       9.852  11.130  18.683  0.00  0.00    +0.000 A 
ATOM     18  C   UNL     1       9.481  12.188  17.881  0.00  0.00    +0.000 A 
ATOM     19  N   UNL     1      10.523  13.070  17.944  0.00  0.00    +0.000 N 
ATOM     20  C   UNL     1      11.468  12.532  18.769  0.00  0.00    +0.000 A 
ATOM     21  N   UNL     1      11.093  11.361  19.230  0.00  0.00    +0.000 NA
ATOM     22  H   UNL     1      10.585  13.963  17.477  0.00  0.00    +0.000 HD
ENDBRANCH  16  17
ENDBRANCH  15  16
ENDBRANCH  14  15
ENDBRANCH  13  14
ENDBRANCH  12  13
ENDBRANCH   1  12
TORSDOF 9
ENDMDL
MODEL 8
REMARK VINA RESULT:      -6.2      1.725      2.564
REMARK  Name = 
REMARK  9 active torsions:
REMARK  status: ('A' for Active; 'I' for Inactive)
REMARK    1  A    between atoms: C_2  and  C_3
REMARK    2  A    between atoms: C_2  and  C_15
REMARK    3  A    between atoms: C_3  and  C_4
REMARK    4  A    between atoms: C_4  and  C_5
REMARK    5  A    between atoms: C_5  and  O_6
REMARK    6  A    between atoms: O_6  and  C_7
REMARK    7  A    between atoms: C_7  and  C_8
REMARK    8  A    between atoms: C_8  and  C_9
REMARK    9  A    between atoms: C_9  and  C_10
REMARK                            x       y       z     vdW  Elec       q    Type
REMARK                         _______ _______ _______ _____ _____    ______ ____
ROOT
ATOM      1  C   UNL     1       3.254   5.615  17.849  0.00  0.00    +0.000 C 
ENDROOT
BRANCH   1   2
ATOM      2  C   UNL     1       4.486   6.041  17.050  0.00  0.00    +0.000 C 
BRANCH   2   4
ATOM      3  O   UNL     1       5.721   4.059  17.645  0.00  0.00    +0.000 OA
ATOM      4  C   UNL     1       5.405   4.868  16.775  0.00  0.00    +0.000 C 
BRANCH   4   5
ATOM      5  C   UNL     1       5.950   4.704  15.395  0.00  0.00    +0.000 A 
ATOM      6  C   UNL     1       5.251   3.877  14.503  0.00  0.00    +0.000 A 
ATOM      7  C   UNL     1       5.726   3.679  13.209  0.00  0.00    +0.000 A 
ATOM      8  C   UNL     1       6.902   4.303  12.808  0.00  0.00    +0.000 A 
ATOM      9  F   UNL     1       7.365   4.105  11.567  0.00  0.00    +0.000 F 
ATOM     10  C   UNL     1       7.604   5.130  13.676  0.00  0.00    +0.000 A 
ATOM     11  C   UNL     1       7.129   5.334  14.974  0.00  0.00    +0.000 A 
ENDBRANCH   4   5
ENDBRANCH   2   4
ENDBRANCH   1   2
BRANCH   1  12
ATOM     12  C   UNL     1       3.435   5.889  19.334  0.00  0.00    +0.000 C 
BRANCH  12  13
ATOM     13  O   UNL     1       2.258   6.512  19.843  0.00  0.00    +0.000 OA
BRANCH  13  14
ATOM     14  C   UNL     1       1.392   5.553  20.444  0.00  0.00    +0.000 C 
BRANCH  14  15
ATOM     15  C   UNL     1       2.214   4.589  21.287  0.00  0.00    +0.000 C 
BRANCH  15  16
ATOM     16  C   UNL     1       1.817   3.151  20.972  0.00  0.00    +0.000 C 
BRANCH  16  17
ATOM     17  C   UNL     1       2.740   2.503  20.009  0.00  0.00    +0.000 A 
ATOM     18  C   UNL     1       4.087   2.241  20.141  0.00  0.00    +0.000 A 
ATOM     19  N   UNL     1       4.448   1.623  18.978  0.00  0.00    +0.000 N 
ATOM     20  C   UNL     1       3.332   1.527  18.198  0.00  0.00    +0.000 A 
ATOM     21  N   UNL     1       2.285   2.049  18.793  0.00  0.00    +0.000 NA
ATOM     22  H   UNL     1       5.370   1.286  18.736  0.00  0.00    +0.000 HD
ENDBRANCH  16  17
ENDBRANCH  15  16
ENDBRANCH  14  15
ENDBRANCH  13  14
ENDBRANCH  12  13
ENDBRANCH   1  12
TORSDOF 9
ENDMDL
MODEL 9
REMARK VINA RESULT:      -6.1      2.626      4.206
REMARK  Name = 
REMARK  9 active torsions:
REMARK  status: ('A' for Active; 'I' for Inactive)
REMARK    1  A    between atoms: C_2  and  C_3
REMARK    2  A    between atoms: C_2  and  C_15
REMARK    3  A    between atoms: C_3  and  C_4
REMARK    4  A    between atoms: C_4  and  C_5
REMARK    5  A    between atoms: C_5  and  O_6
REMARK    6  A    between atoms: O_6  and  C_7
REMARK    7  A    between atoms: C_7  and  C_8
REMARK    8  A    between atoms: C_8  and  C_9
REMARK    9  A    between atoms: C_9  and  C_10
REMARK                            x       y       z     vdW  Elec       q    Type
REMARK                         _______ _______ _______ _____ _____    ______ ____
ROOT
ATOM      1  C   UNL     1       6.960   4.605  16.177  0.00  0.00    +0.000 C 
ENDROOT
BRANCH   1   2
ATOM      2  C   UNL     1       6.684   6.060  15.798  0.00  0.00    +0.000 C 
BRANCH   2   4
ATOM      3  O   UNL     1       7.176   7.824  17.364  0.00  0.00    +0.000 OA
ATOM      4  C   UNL     1       6.422   6.915  17.021  0.00  0.00    +0.000 C 
BRANCH   4   5
ATOM      5  C   UNL     1       5.207   6.627  17.838  0.00  0.00    +0.000 A 
ATOM      6  C   UNL     1       3.997   7.226  17.456  0.00  0.00    +0.000 A 
ATOM      7  C   UNL     1       2.838   7.003  18.194  0.00  0.00    +0.000 A 
ATOM      8  C   UNL     1       2.888   6.185  19.318  0.00  0.00    +0.000 A 
ATOM      9  F   UNL     1       1.776   5.978  20.034  0.00  0.00    +0.000 F 
ATOM     10  C   UNL     1       4.076   5.580  19.709  0.00  0.00    +0.000 A 
ATOM     11  C   UNL     1       5.241   5.798  18.968  0.00  0.00    +0.000 A 
ENDBRANCH   4   5
ENDBRANCH   2   4
ENDBRANCH   1   2
BRANCH   1  12
ATOM     12  C   UNL     1       6.135   3.646  15.335  0.00  0.00    +0.000 C 
BRANCH  12  13
ATOM     13  O   UNL     1       4.751   3.840  15.623  0.00  0.00    +0.000 OA
BRANCH  13  14
ATOM     14  C   UNL     1       4.416   3.308  16.901  0.00  0.00    +0.000 C 
BRANCH  14  15
ATOM     15  C   UNL     1       2.918   3.448  17.130  0.00  0.00    +0.000 C 
BRANCH  15  16
ATOM     16  C   UNL     1       2.382   2.215  17.848  0.00  0.00    +0.000 C 
BRANCH  16  17
ATOM     17  C   UNL     1       1.968   2.502  19.244  0.00  0.00    +0.000 A 
ATOM     18  C   UNL     1       0.734   2.891  19.719  0.00  0.00    +0.000 A 
ATOM     19  N   UNL     1       0.892   3.008  21.072  0.00  0.00    +0.000 N 
ATOM     20  C   UNL     1       2.186   2.688  21.365  0.00  0.00    +0.000 A 
ATOM     21  N   UNL     1       2.861   2.379  20.282  0.00  0.00    +0.000 NA
ATOM     22  H   UNL     1       0.182   3.272  21.740  0.00  0.00    +0.000 HD
ENDBRANCH  16  17
ENDBRANCH  15  16
ENDBRANCH  14  15
ENDBRANCH  13  14
ENDBRANCH  12  13
ENDBRANCH   1  12
TORSDOF 9
ENDMDL
