MODEL 1
REMARK VINA RESULT:      -8.0      0.000      0.000
REMARK  Name = 
REMARK  12 active torsions:
REMARK  status: ('A' for Active; 'I' for Inactive)
REMARK    1  A    between atoms: C_1  and  O_2
REMARK    2  A    between atoms: O_2  and  C_3
REMARK    3  A    between atoms: C_6  and  C_7
REMARK    4  A    between atoms: C_20  and  O_21
REMARK    5  A    between atoms: O_21  and  C_22
REMARK    6  A    between atoms: C_22  and  C_23
REMARK    7  A    between atoms: C_23  and  O_24
REMARK    8  A    between atoms: C_23  and  C_25
REMARK    9  A    between atoms: C_25  and  N_26
REMARK   10  A    between atoms: N_26  and  C_27
REMARK   11  A    between atoms: C_27  and  C_28
REMARK   12  A    between atoms: C_27  and  C_29
REMARK                            x       y       z     vdW  Elec       q    Type
REMARK                         _______ _______ _______ _____ _____    ______ ____
ROOT
ATOM      1  C   UNL     1       5.946   4.618  15.602  0.00  0.00    +0.000 A 
ATOM      2  C   UNL     1       5.606   5.884  15.139  0.00  0.00    +0.000 A 
ATOM      3  C   UNL     1       4.811   6.711  15.908  0.00  0.00    +0.000 A 
ATOM      4  C   UNL     1       4.317   6.296  17.159  0.00  0.00    +0.000 A 
ATOM      5  C   UNL     1       4.692   5.027  17.656  0.00  0.00    +0.000 A 
ATOM      6  C   UNL     1       5.518   4.203  16.852  0.00  0.00    +0.000 A 
ENDROOT
BRANCH   4   7
ATOM      7  C   UNL     1       3.411   7.214  17.830  0.00  0.00    +0.000 A 
ATOM      8  N   UNL     1       2.659   8.106  17.207  0.00  0.00    +0.000 NA
ATOM      9  C   UNL     1       1.870   8.640  18.180  0.00  0.00    +0.000 A 
ATOM     10  C   UNL     1       1.097   9.790  18.191  0.00  0.00    +0.000 A 
ATOM     11  C   UNL     1       0.818  10.234  19.487  0.00  0.00    +0.000 A 
ATOM     12  C   UNL     1       0.957  11.573  19.860  0.00  0.00    +0.000 A 
ATOM     13  C   UNL     1       0.612  11.964  21.148  0.00  0.00    +0.000 A 
ATOM     14  C   UNL     1      -0.098  11.075  21.944  0.00  0.00    +0.000 A 
ATOM     15  C   UNL     1      -0.121   9.725  21.591  0.00  0.00    +0.000 A 
ATOM     16  C   UNL     1       0.614   9.289  20.497  0.00  0.00    +0.000 A 
ATOM     17  N   UNL     1       1.236   8.087  20.473  0.00  0.00    +0.000 NA
ATOM     18  C   UNL     1       1.988   7.933  19.364  0.00  0.00    +0.000 A 
ATOM     19  N   UNL     1       3.100   7.160  19.172  0.00  0.00    +0.000 N 
ATOM     20  H   UNL     1       3.604   6.650  19.880  0.00  0.00    +0.000 HD
ENDBRANCH   4   7
BRANCH   1  22
ATOM     21  C   UNL     1       6.322   3.910  13.369  0.00  0.00    +0.000 C 
ATOM     22  O   UNL     1       6.719   3.893  14.730  0.00  0.00    +0.000 OA
ENDBRANCH   1  22
BRANCH   5  23
ATOM     23  O   UNL     1       4.277   4.677  18.920  0.00  0.00    +0.000 OA
BRANCH  23  24
ATOM     24  C   UNL     1       5.092   3.738  19.635  0.00  0.00    +0.000 C 
BRANCH  24  25
ATOM     25  C   UNL     1       4.376   2.393  19.795  0.00  0.00    +0.000 C 
BRANCH  25  26
ATOM     26  O   UNL     1       5.257   1.460  20.429  0.00  0.00    +0.000 OA
ATOM     27  H   UNL     1       5.049   0.580  20.061  0.00  0.00    +0.000 HD
ENDBRANCH  25  26
BRANCH  25  28
ATOM     28  C   UNL     1       3.081   2.521  20.617  0.00  0.00    +0.000 C 
BRANCH  28  29
ATOM     29  N   UNL     1       1.905   2.145  19.824  0.00  0.00    +0.000 NA
ATOM     30  H   UNL     1       1.393   1.414  20.322  0.00  0.00    +0.000 HD
BRANCH  29  31
ATOM     31  C   UNL     1       0.986   3.256  19.550  0.00  0.00    +0.000 C 
ATOM     32  C   UNL     1       1.159   4.423  20.523  0.00  0.00    +0.000 C 
ATOM     33  C   UNL     1       1.262   3.742  18.123  0.00  0.00    +0.000 C 
ENDBRANCH  29  31
ENDBRANCH  28  29
ENDBRANCH  25  28
ENDBRANCH  24  25
ENDBRANCH  23  24
ENDBRANCH   5  23
TORSDOF 9
ENDMDL
MODEL 2
REMARK VINA RESULT:      -7.5      1.974      3.892
REMARK  Name = 
REMARK  12 active torsions:
REMARK  status: ('A' for Active; 'I' for Inactive)
REMARK    1  A    between atoms: C_1  and  O_2
REMARK    2  A    between atoms: O_2  and  C_3
REMARK    3  A    between atoms: C_6  and  C_7
REMARK    4  A    between atoms: C_20  and  O_21
REMARK    5  A    between atoms: O_21  and  C_22
REMARK    6  A    between atoms: C_22  and  C_23
REMARK    7  A    between atoms: C_23  and  O_24
REMARK    8  A    between atoms: C_23  and  C_25
REMARK    9  A    between atoms: C_25  and  N_26
REMARK   10  A    between atoms: N_26  and  C_27
REMARK   11  A    between atoms: C_27  and  C_28
REMARK   12  A    between atoms: C_27  and  C_29
REMARK                            x       y       z     vdW  Elec       q    Type
REMARK                         _______ _______ _______ _____ _____    ______ ____
ROOT
ATOM      1  C   UNL     1       3.447   2.825  18.111  0.00  0.00    +0.000 A 
ATOM      2  C   UNL     1       2.276   3.384  17.614  0.00  0.00    +0.000 A 
ATOM      3  C   UNL     1       2.014   4.726  17.808  0.00  0.00    +0.000 A 
ATOM      4  C   UNL     1       2.906   5.552  18.517  0.00  0.00    +0.000 A 
ATOM      5  C   UNL     1       4.119   5.002  18.989  0.00  0.00    +0.000 A 
ATOM      6  C   UNL     1       4.369   3.625  18.766  0.00  0.00    +0.000 A 
ENDROOT
BRANCH   4   7
ATOM      7  C   UNL     1       2.475   6.922  18.742  0.00  0.00    +0.000 A 
ATOM      8  N   UNL     1       2.137   7.763  17.780  0.00  0.00    +0.000 NA
ATOM      9  C   UNL     1       1.665   8.865  18.426  0.00  0.00    +0.000 A 
ATOM     10  C   UNL     1       1.431  10.153  17.972  0.00  0.00    +0.000 A 
ATOM     11  C   UNL     1       1.396  11.088  19.011  0.00  0.00    +0.000 A 
ATOM     12  C   UNL     1       2.083  12.303  18.941  0.00  0.00    +0.000 A 
ATOM     13  C   UNL     1       1.965  13.216  19.981  0.00  0.00    +0.000 A 
ATOM     14  C   UNL     1       0.976  13.012  20.935  0.00  0.00    +0.000 A 
ATOM     15  C   UNL     1       0.392  11.749  21.041  0.00  0.00    +0.000 A 
ATOM     16  C   UNL     1       0.852  10.711  20.243  0.00  0.00    +0.000 A 
ATOM     17  N   UNL     1       0.926   9.434  20.684  0.00  0.00    +0.000 NA
ATOM     18  C   UNL     1       1.517   8.624  19.781  0.00  0.00    +0.000 A 
ATOM     19  N   UNL     1       2.209   7.461  19.983  0.00  0.00    +0.000 N 
ATOM     20  H   UNL     1       2.479   7.072  20.872  0.00  0.00    +0.000 HD
ENDBRANCH   4   7
BRANCH   1  22
ATOM     21  C   UNL     1       4.027   0.683  18.948  0.00  0.00    +0.000 C 
ATOM     22  O   UNL     1       3.571   1.480  17.868  0.00  0.00    +0.000 OA
ENDBRANCH   1  22
BRANCH   5  23
ATOM     23  O   UNL     1       5.021   5.843  19.597  0.00  0.00    +0.000 OA
BRANCH  23  24
ATOM     24  C   UNL     1       6.405   5.471  19.532  0.00  0.00    +0.000 C 
BRANCH  24  25
ATOM     25  C   UNL     1       7.021   5.862  18.185  0.00  0.00    +0.000 C 
BRANCH  25  26
ATOM     26  O   UNL     1       8.057   6.826  18.399  0.00  0.00    +0.000 OA
ATOM     27  H   UNL     1       8.906   6.353  18.307  0.00  0.00    +0.000 HD
ENDBRANCH  25  26
BRANCH  25  28
ATOM     28  C   UNL     1       7.594   4.645  17.436  0.00  0.00    +0.000 C 
BRANCH  28  29
ATOM     29  N   UNL     1       7.458   4.799  15.983  0.00  0.00    +0.000 NA
ATOM     30  H   UNL     1       8.123   4.173  15.523  0.00  0.00    +0.000 HD
BRANCH  29  31
ATOM     31  C   UNL     1       6.113   4.508  15.473  0.00  0.00    +0.000 C 
ATOM     32  C   UNL     1       5.199   5.734  15.479  0.00  0.00    +0.000 C 
ATOM     33  C   UNL     1       6.265   3.996  14.037  0.00  0.00    +0.000 C 
ENDBRANCH  29  31
ENDBRANCH  28  29
ENDBRANCH  25  28
ENDBRANCH  24  25
ENDBRANCH  23  24
ENDBRANCH   5  23
TORSDOF 9
ENDMDL
MODEL 3
REMARK VINA RESULT:      -7.3      1.153      1.532
REMARK  Name = 
REMARK  12 active torsions:
REMARK  status: ('A' for Active; 'I' for Inactive)
REMARK    1  A    between atoms: C_1  and  O_2
REMARK    2  A    between atoms: O_2  and  C_3
REMARK    3  A    between atoms: C_6  and  C_7
REMARK    4  A    between atoms: C_20  and  O_21
REMARK    5  A    between atoms: O_21  and  C_22
REMARK    6  A    between atoms: C_22  and  C_23
REMARK    7  A    between atoms: C_23  and  O_24
REMARK    8  A    between atoms: C_23  and  C_25
REMARK    9  A    between atoms: C_25  and  N_26
REMARK   10  A    between atoms: N_26  and  C_27
REMARK   11  A    between atoms: C_27  and  C_28
REMARK   12  A    between atoms: C_27  and  C_29
REMARK                            x       y       z     vdW  Elec       q    Type
REMARK                         _______ _______ _______ _____ _____    ______ ____
ROOT
ATOM      1  C   UNL     1       5.982   4.908  15.784  0.00  0.00    +0.000 A 
ATOM      2  C   UNL     1       6.092   6.293  15.808  0.00  0.00    +0.000 A 
ATOM      3  C   UNL     1       5.213   7.043  16.564  0.00  0.00    +0.000 A 
ATOM      4  C   UNL     1       4.185   6.437  17.310  0.00  0.00    +0.000 A 
ATOM      5  C   UNL     1       4.092   5.026  17.326  0.00  0.00    +0.000 A 
ATOM      6  C   UNL     1       5.014   4.280  16.551  0.00  0.00    +0.000 A 
ENDROOT
BRANCH   4   7
ATOM      7  C   UNL     1       3.264   7.335  17.986  0.00  0.00    +0.000 A 
ATOM      8  N   UNL     1       2.486   8.208  17.366  0.00  0.00    +0.000 NA
ATOM      9  C   UNL     1       1.693   8.726  18.344  0.00  0.00    +0.000 A 
ATOM     10  C   UNL     1       0.893   9.857  18.358  0.00  0.00    +0.000 A 
ATOM     11  C   UNL     1       0.613  10.298  19.655  0.00  0.00    +0.000 A 
ATOM     12  C   UNL     1       0.724  11.641  20.024  0.00  0.00    +0.000 A 
ATOM     13  C   UNL     1       0.378  12.027  21.313  0.00  0.00    +0.000 A 
ATOM     14  C   UNL     1      -0.305  11.123  22.116  0.00  0.00    +0.000 A 
ATOM     15  C   UNL     1      -0.299   9.772  21.767  0.00  0.00    +0.000 A 
ATOM     16  C   UNL     1       0.438   9.350  20.669  0.00  0.00    +0.000 A 
ATOM     17  N   UNL     1       1.088   8.164  20.643  0.00  0.00    +0.000 NA
ATOM     18  C   UNL     1       1.835   8.025  19.529  0.00  0.00    +0.000 A 
ATOM     19  N   UNL     1       2.964   7.277  19.330  0.00  0.00    +0.000 N 
ATOM     20  H   UNL     1       3.485   6.780  20.036  0.00  0.00    +0.000 HD
ENDBRANCH   4   7
BRANCH   1  22
ATOM     21  C   UNL     1       6.439   3.858  13.707  0.00  0.00    +0.000 C 
ATOM     22  O   UNL     1       6.902   4.288  14.976  0.00  0.00    +0.000 OA
ENDBRANCH   1  22
BRANCH   5  23
ATOM     23  O   UNL     1       3.143   4.447  18.134  0.00  0.00    +0.000 OA
BRANCH  23  24
ATOM     24  C   UNL     1       2.047   3.789  17.484  0.00  0.00    +0.000 C 
BRANCH  24  25
ATOM     25  C   UNL     1       1.956   2.319  17.904  0.00  0.00    +0.000 C 
BRANCH  25  26
ATOM     26  O   UNL     1       3.215   1.901  18.442  0.00  0.00    +0.000 OA
ATOM     27  H   UNL     1       3.811   1.753  17.683  0.00  0.00    +0.000 HD
ENDBRANCH  25  26
BRANCH  25  28
ATOM     28  C   UNL     1       0.846   2.083  18.944  0.00  0.00    +0.000 C 
BRANCH  28  29
ATOM     29  N   UNL     1       0.769   3.188  19.905  0.00  0.00    +0.000 NA
ATOM     30  H   UNL     1      -0.149   3.171  20.354  0.00  0.00    +0.000 HD
BRANCH  29  31
ATOM     31  C   UNL     1       1.800   3.148  20.949  0.00  0.00    +0.000 C 
ATOM     32  C   UNL     1       2.275   4.540  21.368  0.00  0.00    +0.000 C 
ATOM     33  C   UNL     1       1.201   2.429  22.163  0.00  0.00    +0.000 C 
ENDBRANCH  29  31
ENDBRANCH  28  29
ENDBRANCH  25  28
ENDBRANCH  24  25
ENDBRANCH  23  24
ENDBRANCH   5  23
TORSDOF 9
ENDMDL
MODEL 4
REMARK VINA RESULT:      -7.2      3.702      8.761
REMARK  Name = 
REMARK  12 active torsions:
REMARK  status: ('A' for Active; 'I' for Inactive)
REMARK    1  A    between atoms: C_1  and  O_2
REMARK    2  A    between atoms: O_2  and  C_3
REMARK    3  A    between atoms: C_6  and  C_7
REMARK    4  A    between atoms: C_20  and  O_21
REMARK    5  A    between atoms: O_21  and  C_22
REMARK    6  A    between atoms: C_22  and  C_23
REMARK    7  A    between atoms: C_23  and  O_24
REMARK    8  A    between atoms: C_23  and  C_25
REMARK    9  A    between atoms: C_25  and  N_26
REMARK   10  A    between atoms: N_26  and  C_27
REMARK   11  A    between atoms: C_27  and  C_28
REMARK   12  A    between atoms: C_27  and  C_29
REMARK                            x       y       z     vdW  Elec       q    Type
REMARK                         _______ _______ _______ _____ _____    ______ ____
ROOT
ATOM      1  C   UNL     1      -1.035  10.611  22.592  0.00  0.00    +0.000 A 
ATOM      2  C   UNL     1      -0.187   9.692  23.200  0.00  0.00    +0.000 A 
ATOM      3  C   UNL     1       0.688   8.947  22.435  0.00  0.00    +0.000 A 
ATOM      4  C   UNL     1       0.737   9.083  21.035  0.00  0.00    +0.000 A 
ATOM      5  C   UNL     1      -0.091  10.045  20.412  0.00  0.00    +0.000 A 
ATOM      6  C   UNL     1      -0.972  10.805  21.222  0.00  0.00    +0.000 A 
ENDROOT
BRANCH   4   7
ATOM      7  C   UNL     1       1.627   8.176  20.330  0.00  0.00    +0.000 A 
ATOM      8  N   UNL     1       1.826   6.914  20.671  0.00  0.00    +0.000 NA
ATOM      9  C   UNL     1       2.601   6.400  19.676  0.00  0.00    +0.000 A 
ATOM     10  C   UNL     1       3.348   5.234  19.618  0.00  0.00    +0.000 A 
ATOM     11  C   UNL     1       4.347   5.287  18.642  0.00  0.00    +0.000 A 
ATOM     12  C   UNL     1       5.660   4.884  18.899  0.00  0.00    +0.000 A 
ATOM     13  C   UNL     1       6.596   4.908  17.873  0.00  0.00    +0.000 A 
ATOM     14  C   UNL     1       6.148   5.084  16.570  0.00  0.00    +0.000 A 
ATOM     15  C   UNL     1       4.865   5.591  16.360  0.00  0.00    +0.000 A 
ATOM     16  C   UNL     1       4.091   5.970  17.449  0.00  0.00    +0.000 A 
ATOM     17  N   UNL     1       3.259   7.036  17.412  0.00  0.00    +0.000 NA
ATOM     18  C   UNL     1       2.707   7.285  18.617  0.00  0.00    +0.000 A 
ATOM     19  N   UNL     1       2.244   8.465  19.132  0.00  0.00    +0.000 N 
ATOM     20  H   UNL     1       2.339   9.378  18.715  0.00  0.00    +0.000 HD
ENDBRANCH   4   7
BRANCH   1  22
ATOM     21  C   UNL     1      -2.052  12.653  23.239  0.00  0.00    +0.000 C 
ATOM     22  O   UNL     1      -1.868  11.265  23.464  0.00  0.00    +0.000 OA
ENDBRANCH   1  22
BRANCH   5  23
ATOM     23  O   UNL     1       0.037  10.232  19.056  0.00  0.00    +0.000 OA
BRANCH  23  24
ATOM     24  C   UNL     1       0.363  11.554  18.609  0.00  0.00    +0.000 C 
BRANCH  24  25
ATOM     25  C   UNL     1      -0.882  12.445  18.558  0.00  0.00    +0.000 C 
BRANCH  25  26
ATOM     26  O   UNL     1      -0.569  13.660  17.870  0.00  0.00    +0.000 OA
ATOM     27  H   UNL     1       0.405  13.718  17.830  0.00  0.00    +0.000 HD
ENDBRANCH  25  26
BRANCH  25  28
ATOM     28  C   UNL     1      -2.065  11.747  17.861  0.00  0.00    +0.000 C 
BRANCH  28  29
ATOM     29  N   UNL     1      -1.608  10.896  16.757  0.00  0.00    +0.000 NA
ATOM     30  H   UNL     1      -0.683  10.527  16.987  0.00  0.00    +0.000 HD
BRANCH  29  31
ATOM     31  C   UNL     1      -2.501   9.770  16.459  0.00  0.00    +0.000 C 
ATOM     32  C   UNL     1      -3.597   9.588  17.509  0.00  0.00    +0.000 C 
ATOM     33  C   UNL     1      -3.146  10.041  15.095  0.00  0.00    +0.000 C 
ENDBRANCH  29  31
ENDBRANCH  28  29
ENDBRANCH  25  28
ENDBRANCH  24  25
ENDBRANCH  23  24
ENDBRANCH   5  23
TORSDOF 9
ENDMDL
MODEL 5
REMARK VINA RESULT:      -7.1      3.588      9.179
REMARK  Name = 
REMARK  12 active torsions:
REMARK  status: ('A' for Active; 'I' for Inactive)
REMARK    1  A    between atoms: C_1  and  O_2
REMARK    2  A    between atoms: O_2  and  C_3
REMARK    3  A    between atoms: C_6  and  C_7
REMARK    4  A    between atoms: C_20  and  O_21
REMARK    5  A    between atoms: O_21  and  C_22
REMARK    6  A    between atoms: C_22  and  C_23
REMARK    7  A    between atoms: C_23  and  O_24
REMARK    8  A    between atoms: C_23  and  C_25
REMARK    9  A    between atoms: C_25  and  N_26
REMARK   10  A    between atoms: N_26  and  C_27
REMARK   11  A    between atoms: C_27  and  C_28
REMARK   12  A    between atoms: C_27  and  C_29
REMARK                            x       y       z     vdW  Elec       q    Type
REMARK                         _______ _______ _______ _____ _____    ______ ____
ROOT
ATOM      1  C   UNL     1      -1.195  10.923  22.523  0.00  0.00    +0.000 A 
ATOM      2  C   UNL     1      -0.404   9.996  23.191  0.00  0.00    +0.000 A 
ATOM      3  C   UNL     1       0.460   9.185  22.482  0.00  0.00    +0.000 A 
ATOM      4  C   UNL     1       0.554   9.263  21.080  0.00  0.00    +0.000 A 
ATOM      5  C   UNL     1      -0.215  10.233  20.396  0.00  0.00    +0.000 A 
ATOM      6  C   UNL     1      -1.085  11.060  21.149  0.00  0.00    +0.000 A 
ENDROOT
BRANCH   4   7
ATOM      7  C   UNL     1       1.424   8.293  20.437  0.00  0.00    +0.000 A 
ATOM      8  N   UNL     1       1.579   7.045  20.848  0.00  0.00    +0.000 NA
ATOM      9  C   UNL     1       2.350   6.455  19.894  0.00  0.00    +0.000 A 
ATOM     10  C   UNL     1       3.061   5.266  19.909  0.00  0.00    +0.000 A 
ATOM     11  C   UNL     1       4.073   5.235  18.945  0.00  0.00    +0.000 A 
ATOM     12  C   UNL     1       5.370   4.807  19.242  0.00  0.00    +0.000 A 
ATOM     13  C   UNL     1       6.319   4.747  18.230  0.00  0.00    +0.000 A 
ATOM     14  C   UNL     1       5.893   4.865  16.913  0.00  0.00    +0.000 A 
ATOM     15  C   UNL     1       4.629   5.399  16.658  0.00  0.00    +0.000 A 
ATOM     16  C   UNL     1       3.853   5.859  17.714  0.00  0.00    +0.000 A 
ATOM     17  N   UNL     1       3.056   6.947  17.608  0.00  0.00    +0.000 NA
ATOM     18  C   UNL     1       2.497   7.277  18.790  0.00  0.00    +0.000 A 
ATOM     19  N   UNL     1       2.064   8.497  19.234  0.00  0.00    +0.000 N 
ATOM     20  H   UNL     1       2.193   9.383  18.770  0.00  0.00    +0.000 HD
ENDBRANCH   4   7
BRANCH   1  22
ATOM     21  C   UNL     1      -1.793  13.044  23.401  0.00  0.00    +0.000 C 
ATOM     22  O   UNL     1      -2.023  11.646  23.344  0.00  0.00    +0.000 OA
ENDBRANCH   1  22
BRANCH   5  23
ATOM     23  O   UNL     1      -0.041  10.359  19.038  0.00  0.00    +0.000 OA
BRANCH  23  24
ATOM     24  C   UNL     1       0.228  11.675  18.536  0.00  0.00    +0.000 C 
BRANCH  24  25
ATOM     25  C   UNL     1       1.709  12.034  18.691  0.00  0.00    +0.000 C 
BRANCH  25  26
ATOM     26  O   UNL     1       2.470  11.352  17.689  0.00  0.00    +0.000 OA
ATOM     27  H   UNL     1       3.322  11.823  17.611  0.00  0.00    +0.000 HD
ENDBRANCH  25  26
BRANCH  25  28
ATOM     28  C   UNL     1       1.952  13.551  18.580  0.00  0.00    +0.000 C 
BRANCH  28  29
ATOM     29  N   UNL     1       3.095  13.847  17.710  0.00  0.00    +0.000 NA
ATOM     30  H   UNL     1       2.754  14.000  16.759  0.00  0.00    +0.000 HD
BRANCH  29  31
ATOM     31  C   UNL     1       3.873  15.022  18.123  0.00  0.00    +0.000 C 
ATOM     32  C   UNL     1       5.371  14.863  17.860  0.00  0.00    +0.000 C 
ATOM     33  C   UNL     1       3.345  16.225  17.335  0.00  0.00    +0.000 C 
ENDBRANCH  29  31
ENDBRANCH  28  29
ENDBRANCH  25  28
ENDBRANCH  24  25
ENDBRANCH  23  24
ENDBRANCH   5  23
TORSDOF 9
ENDMDL
MODEL 6
REMARK VINA RESULT:      -7.1      2.056      4.530
REMARK  Name = 
REMARK  12 active torsions:
REMARK  status: ('A' for Active; 'I' for Inactive)
REMARK    1  A    between atoms: C_1  and  O_2
REMARK    2  A    between atoms: O_2  and  C_3
REMARK    3  A    between atoms: C_6  and  C_7
REMARK    4  A    between atoms: C_20  and  O_21
REMARK    5  A    between atoms: O_21  and  C_22
REMARK    6  A    between atoms: C_22  and  C_23
REMARK    7  A    between atoms: C_23  and  O_24
REMARK    8  A    between atoms: C_23  and  C_25
REMARK    9  A    between atoms: C_25  and  N_26
REMARK   10  A    between atoms: N_26  and  C_27
REMARK   11  A    between atoms: C_27  and  C_28
REMARK   12  A    between atoms: C_27  and  C_29
REMARK                            x       y       z     vdW  Elec       q    Type
REMARK                         _______ _______ _______ _____ _____    ______ ____
ROOT
ATOM      1  C   UNL     1       3.337   3.241  17.736  0.00  0.00    +0.000 A 
ATOM      2  C   UNL     1       2.002   3.576  17.928  0.00  0.00    +0.000 A 
ATOM      3  C   UNL     1       1.643   4.892  18.144  0.00  0.00    +0.000 A 
ATOM      4  C   UNL     1       2.607   5.917  18.191  0.00  0.00    +0.000 A 
ATOM      5  C   UNL     1       3.962   5.592  17.954  0.00  0.00    +0.000 A 
ATOM      6  C   UNL     1       4.302   4.235  17.723  0.00  0.00    +0.000 A 
ENDROOT
BRANCH   4   7
ATOM      7  C   UNL     1       2.120   7.245  18.523  0.00  0.00    +0.000 A 
ATOM      8  N   UNL     1       1.685   7.600  19.721  0.00  0.00    +0.000 NA
ATOM      9  C   UNL     1       1.470   8.942  19.632  0.00  0.00    +0.000 A 
ATOM     10  C   UNL     1       0.766   9.805  20.456  0.00  0.00    +0.000 A 
ATOM     11  C   UNL     1       0.392  10.982  19.803  0.00  0.00    +0.000 A 
ATOM     12  C   UNL     1      -0.902  11.504  19.894  0.00  0.00    +0.000 A 
ATOM     13  C   UNL     1      -1.200  12.707  19.267  0.00  0.00    +0.000 A 
ATOM     14  C   UNL     1      -0.153  13.483  18.787  0.00  0.00    +0.000 A 
ATOM     15  C   UNL     1       1.099  12.891  18.610  0.00  0.00    +0.000 A 
ATOM     16  C   UNL     1       1.256  11.533  18.852  0.00  0.00    +0.000 A 
ATOM     17  N   UNL     1       2.073  10.753  18.108  0.00  0.00    +0.000 NA
ATOM     18  C   UNL     1       1.970   9.451  18.446  0.00  0.00    +0.000 A 
ATOM     19  N   UNL     1       2.203   8.337  17.687  0.00  0.00    +0.000 N 
ATOM     20  H   UNL     1       2.396   8.317  16.697  0.00  0.00    +0.000 HD
ENDBRANCH   4   7
BRANCH   1  22
ATOM     21  C   UNL     1       3.734   1.124  18.730  0.00  0.00    +0.000 C 
ATOM     22  O   UNL     1       3.557   1.899  17.556  0.00  0.00    +0.000 OA
ENDBRANCH   1  22
BRANCH   5  23
ATOM     23  O   UNL     1       4.878   6.617  17.909  0.00  0.00    +0.000 OA
BRANCH  23  24
ATOM     24  C   UNL     1       5.649   6.748  16.707  0.00  0.00    +0.000 C 
BRANCH  24  25
ATOM     25  C   UNL     1       7.105   6.330  16.936  0.00  0.00    +0.000 C 
BRANCH  25  26
ATOM     26  O   UNL     1       7.322   6.115  18.335  0.00  0.00    +0.000 OA
ATOM     27  H   UNL     1       6.594   6.564  18.806  0.00  0.00    +0.000 HD
ENDBRANCH  25  26
BRANCH  25  28
ATOM     28  C   UNL     1       7.470   5.054  16.155  0.00  0.00    +0.000 C 
BRANCH  28  29
ATOM     29  N   UNL     1       7.493   5.301  14.709  0.00  0.00    +0.000 NA
ATOM     30  H   UNL     1       8.466   5.385  14.406  0.00  0.00    +0.000 HD
BRANCH  29  31
ATOM     31  C   UNL     1       6.844   4.253  13.913  0.00  0.00    +0.000 C 
ATOM     32  C   UNL     1       5.325   4.229  14.090  0.00  0.00    +0.000 C 
ATOM     33  C   UNL     1       7.178   4.519  12.440  0.00  0.00    +0.000 C 
ENDBRANCH  29  31
ENDBRANCH  28  29
ENDBRANCH  25  28
ENDBRANCH  24  25
ENDBRANCH  23  24
ENDBRANCH   5  23
TORSDOF 9
ENDMDL
MODEL 7
REMARK VINA RESULT:      -7.1      4.324      8.657
REMARK  Name = 
REMARK  12 active torsions:
REMARK  status: ('A' for Active; 'I' for Inactive)
REMARK    1  A    between atoms: C_1  and  O_2
REMARK    2  A    between atoms: O_2  and  C_3
REMARK    3  A    between atoms: C_6  and  C_7
REMARK    4  A    between atoms: C_20  and  O_21
REMARK    5  A    between atoms: O_21  and  C_22
REMARK    6  A    between atoms: C_22  and  C_23
REMARK    7  A    between atoms: C_23  and  O_24
REMARK    8  A    between atoms: C_23  and  C_25
REMARK    9  A    between atoms: C_25  and  N_26
REMARK   10  A    between atoms: N_26  and  C_27
REMARK   11  A    between atoms: C_27  and  C_28
REMARK   12  A    between atoms: C_27  and  C_29
REMARK                            x       y       z     vdW  Elec       q    Type
REMARK                         _______ _______ _______ _____ _____    ______ ____
ROOT
ATOM      1  C   UNL     1       0.678  14.056  18.687  0.00  0.00    +0.000 A 
ATOM      2  C   UNL     1       1.953  13.511  18.581  0.00  0.00    +0.000 A 
ATOM      3  C   UNL     1       2.123  12.141  18.600  0.00  0.00    +0.000 A 
ATOM      4  C   UNL     1       1.028  11.268  18.737  0.00  0.00    +0.000 A 
ATOM      5  C   UNL     1      -0.276  11.811  18.802  0.00  0.00    +0.000 A 
ATOM      6  C   UNL     1      -0.423  13.220  18.769  0.00  0.00    +0.000 A 
ENDROOT
BRANCH   4   7
ATOM      7  C   UNL     1       1.341   9.853  18.842  0.00  0.00    +0.000 A 
ATOM      8  N   UNL     1       2.155   9.208  18.023  0.00  0.00    +0.000 NA
ATOM      9  C   UNL     1       2.279   7.963  18.561  0.00  0.00    +0.000 A 
ATOM     10  C   UNL     1       2.764   6.784  18.018  0.00  0.00    +0.000 A 
ATOM     11  C   UNL     1       2.306   5.653  18.700  0.00  0.00    +0.000 A 
ATOM     12  C   UNL     1       1.800   4.535  18.030  0.00  0.00    +0.000 A 
ATOM     13  C   UNL     1       1.412   3.418  18.760  0.00  0.00    +0.000 A 
ATOM     14  C   UNL     1       1.771   3.343  20.099  0.00  0.00    +0.000 A 
ATOM     15  C   UNL     1       2.168   4.507  20.758  0.00  0.00    +0.000 A 
ATOM     16  C   UNL     1       2.134   5.721  20.085  0.00  0.00    +0.000 A 
ATOM     17  N   UNL     1       1.794   6.880  20.696  0.00  0.00    +0.000 NA
ATOM     18  C   UNL     1       1.709   7.903  19.821  0.00  0.00    +0.000 A 
ATOM     19  N   UNL     1       0.964   9.047  19.896  0.00  0.00    +0.000 N 
ATOM     20  H   UNL     1       0.264   9.262  20.589  0.00  0.00    +0.000 HD
ENDBRANCH   4   7
BRANCH   1  22
ATOM     21  C   UNL     1       1.893  16.079  18.455  0.00  0.00    +0.000 C 
ATOM     22  O   UNL     1       0.654  15.427  18.678  0.00  0.00    +0.000 OA
ENDBRANCH   1  22
BRANCH   5  23
ATOM     23  O   UNL     1      -1.341  10.942  18.841  0.00  0.00    +0.000 OA
BRANCH  23  24
ATOM     24  C   UNL     1      -1.710  10.309  17.608  0.00  0.00    +0.000 C 
BRANCH  24  25
ATOM     25  C   UNL     1      -2.442  11.285  16.682  0.00  0.00    +0.000 C 
BRANCH  25  26
ATOM     26  O   UNL     1      -2.304  10.846  15.326  0.00  0.00    +0.000 OA
ATOM     27  H   UNL     1      -2.690   9.951  15.279  0.00  0.00    +0.000 HD
ENDBRANCH  25  26
BRANCH  25  28
ATOM     28  C   UNL     1      -3.936  11.408  17.036  0.00  0.00    +0.000 C 
BRANCH  28  29
ATOM     29  N   UNL     1      -4.165  11.201  18.470  0.00  0.00    +0.000 NA
ATOM     30  H   UNL     1      -3.262  11.196  18.949  0.00  0.00    +0.000 HD
BRANCH  29  31
ATOM     31  C   UNL     1      -5.020  12.217  19.093  0.00  0.00    +0.000 C 
ATOM     32  C   UNL     1      -6.318  11.636  19.655  0.00  0.00    +0.000 C 
ATOM     33  C   UNL     1      -4.219  12.861  20.230  0.00  0.00    +0.000 C 
ENDBRANCH  29  31
ENDBRANCH  28  29
ENDBRANCH  25  28
ENDBRANCH  24  25
ENDBRANCH  23  24
ENDBRANCH   5  23
TORSDOF 9
ENDMDL
MODEL 8
REMARK VINA RESULT:      -7.0      1.544      1.975
REMARK  Name = 
REMARK  12 active torsions:
REMARK  status: ('A' for Active; 'I' for Inactive)
REMARK    1  A    between atoms: C_1  and  O_2
REMARK    2  A    between atoms: O_2  and  C_3
REMARK    3  A    between atoms: C_6  and  C_7
REMARK    4  A    between atoms: C_20  and  O_21
REMARK    5  A    between atoms: O_21  and  C_22
REMARK    6  A    between atoms: C_22  and  C_23
REMARK    7  A    between atoms: C_23  and  O_24
REMARK    8  A    between atoms: C_23  and  C_25
REMARK    9  A    between atoms: C_25  and  N_26
REMARK   10  A    between atoms: N_26  and  C_27
REMARK   11  A    between atoms: C_27  and  C_28
REMARK   12  A    between atoms: C_27  and  C_29
REMARK                            x       y       z     vdW  Elec       q    Type
REMARK                         _______ _______ _______ _____ _____    ______ ____
ROOT
ATOM      1  C   UNL     1       5.288   4.763  16.255  0.00  0.00    +0.000 A 
ATOM      2  C   UNL     1       5.683   6.093  16.338  0.00  0.00    +0.000 A 
ATOM      3  C   UNL     1       4.887   7.010  16.997  0.00  0.00    +0.000 A 
ATOM      4  C   UNL     1       3.665   6.633  17.583  0.00  0.00    +0.000 A 
ATOM      5  C   UNL     1       3.276   5.274  17.540  0.00  0.00    +0.000 A 
ATOM      6  C   UNL     1       4.117   4.352  16.868  0.00  0.00    +0.000 A 
ENDROOT
BRANCH   4   7
ATOM      7  C   UNL     1       2.870   7.703  18.161  0.00  0.00    +0.000 A 
ATOM      8  N   UNL     1       2.414   8.742  17.481  0.00  0.00    +0.000 NA
ATOM      9  C   UNL     1       1.610   9.408  18.356  0.00  0.00    +0.000 A 
ATOM     10  C   UNL     1       1.088  10.691  18.313  0.00  0.00    +0.000 A 
ATOM     11  C   UNL     1       0.711  11.157  19.575  0.00  0.00    +0.000 A 
ATOM     12  C   UNL     1       1.057  12.432  20.031  0.00  0.00    +0.000 A 
ATOM     13  C   UNL     1       0.605  12.861  21.273  0.00  0.00    +0.000 A 
ATOM     14  C   UNL     1      -0.380  12.120  21.913  0.00  0.00    +0.000 A 
ATOM     15  C   UNL     1      -0.618  10.811  21.494  0.00  0.00    +0.000 A 
ATOM     16  C   UNL     1       0.172  10.254  20.497  0.00  0.00    +0.000 A 
ATOM     17  N   UNL     1       0.538   8.952  20.503  0.00  0.00    +0.000 NA
ATOM     18  C   UNL     1       1.403   8.669  19.508  0.00  0.00    +0.000 A 
ATOM     19  N   UNL     1       2.355   7.688  19.440  0.00  0.00    +0.000 N 
ATOM     20  H   UNL     1       2.633   7.071  20.187  0.00  0.00    +0.000 HD
ENDBRANCH   4   7
BRANCH   1  22
ATOM     21  C   UNL     1       6.531   4.419  14.264  0.00  0.00    +0.000 C 
ATOM     22  O   UNL     1       6.158   3.965  15.554  0.00  0.00    +0.000 OA
ENDBRANCH   1  22
BRANCH   5  23
ATOM     23  O   UNL     1       2.127   4.906  18.199  0.00  0.00    +0.000 OA
BRANCH  23  24
ATOM     24  C   UNL     1       1.360   3.839  17.625  0.00  0.00    +0.000 C 
BRANCH  24  25
ATOM     25  C   UNL     1       1.143   2.708  18.634  0.00  0.00    +0.000 C 
BRANCH  25  26
ATOM     26  O   UNL     1       0.249   1.739  18.075  0.00  0.00    +0.000 OA
ATOM     27  H   UNL     1       0.149   1.960  17.130  0.00  0.00    +0.000 HD
ENDBRANCH  25  26
BRANCH  25  28
ATOM     28  C   UNL     1       2.464   2.024  19.030  0.00  0.00    +0.000 C 
BRANCH  28  29
ATOM     29  N   UNL     1       2.836   2.338  20.414  0.00  0.00    +0.000 NA
ATOM     30  H   UNL     1       3.700   2.883  20.406  0.00  0.00    +0.000 HD
BRANCH  29  31
ATOM     31  C   UNL     1       1.815   3.091  21.152  0.00  0.00    +0.000 C 
ATOM     32  C   UNL     1       1.378   2.391  22.440  0.00  0.00    +0.000 C 
ATOM     33  C   UNL     1       2.409   4.461  21.496  0.00  0.00    +0.000 C 
ENDBRANCH  29  31
ENDBRANCH  28  29
ENDBRANCH  25  28
ENDBRANCH  24  25
ENDBRANCH  23  24
ENDBRANCH   5  23
TORSDOF 9
ENDMDL
MODEL 9
REMARK VINA RESULT:      -7.0      2.055      4.891
REMARK  Name = 
REMARK  12 active torsions:
REMARK  status: ('A' for Active; 'I' for Inactive)
REMARK    1  A    between atoms: C_1  and  O_2
REMARK    2  A    between atoms: O_2  and  C_3
REMARK    3  A    between atoms: C_6  and  C_7
REMARK    4  A    between atoms: C_20  and  O_21
REMARK    5  A    between atoms: O_21  and  C_22
REMARK    6  A    between atoms: C_22  and  C_23
REMARK    7  A    between atoms: C_23  and  O_24
REMARK    8  A    between atoms: C_23  and  C_25
REMARK    9  A    between atoms: C_25  and  N_26
REMARK   10  A    between atoms: N_26  and  C_27
REMARK   11  A    between atoms: C_27  and  C_28
REMARK   12  A    between atoms: C_27  and  C_29
REMARK                            x       y       z     vdW  Elec       q    Type
REMARK                         _______ _______ _______ _____ _____    ______ ____
ROOT
ATOM      1  C   UNL     1       3.297   3.403  19.876  0.00  0.00    +0.000 A 
ATOM      2  C   UNL     1       2.136   3.799  20.529  0.00  0.00    +0.000 A 
ATOM      3  C   UNL     1       1.698   5.106  20.430  0.00  0.00    +0.000 A 
ATOM      4  C   UNL     1       2.412   6.063  19.686  0.00  0.00    +0.000 A 
ATOM      5  C   UNL     1       3.570   5.659  18.982  0.00  0.00    +0.000 A 
ATOM      6  C   UNL     1       3.991   4.310  19.092  0.00  0.00    +0.000 A 
ENDROOT
BRANCH   4   7
ATOM      7  C   UNL     1       1.908   7.425  19.736  0.00  0.00    +0.000 A 
ATOM      8  N   UNL     1       1.560   8.049  20.849  0.00  0.00    +0.000 NA
ATOM      9  C   UNL     1       1.292   9.328  20.465  0.00  0.00    +0.000 A 
ATOM     10  C   UNL     1       0.628  10.352  21.120  0.00  0.00    +0.000 A 
ATOM     11  C   UNL     1       0.160  11.334  20.242  0.00  0.00    +0.000 A 
ATOM     12  C   UNL     1      -1.139  11.844  20.321  0.00  0.00    +0.000 A 
ATOM     13  C   UNL     1      -1.530  12.858  19.456  0.00  0.00    +0.000 A 
ATOM     14  C   UNL     1      -0.553  13.512  18.716  0.00  0.00    +0.000 A 
ATOM     15  C   UNL     1       0.699  12.913  18.574  0.00  0.00    +0.000 A 
ATOM     16  C   UNL     1       0.924  11.655  19.116  0.00  0.00    +0.000 A 
ATOM     17  N   UNL     1       1.704  10.732  18.508  0.00  0.00    +0.000 NA
ATOM     18  C   UNL     1       1.675   9.547  19.152  0.00  0.00    +0.000 A 
ATOM     19  N   UNL     1       1.884   8.288  18.661  0.00  0.00    +0.000 N 
ATOM     20  H   UNL     1       1.995   8.034  17.691  0.00  0.00    +0.000 HD
ENDBRANCH   4   7
BRANCH   1  22
ATOM     21  C   UNL     1       3.805   1.295  18.914  0.00  0.00    +0.000 C 
ATOM     22  O   UNL     1       3.630   2.087  20.077  0.00  0.00    +0.000 OA
ENDBRANCH   1  22
BRANCH   5  23
ATOM     23  O   UNL     1       4.202   6.584  18.185  0.00  0.00    +0.000 OA
BRANCH  23  24
ATOM     24  C   UNL     1       4.486   6.193  16.835  0.00  0.00    +0.000 C 
BRANCH  24  25
ATOM     25  C   UNL     1       5.972   6.372  16.508  0.00  0.00    +0.000 C 
BRANCH  25  26
ATOM     26  O   UNL     1       6.517   7.407  17.334  0.00  0.00    +0.000 OA
ATOM     27  H   UNL     1       5.878   7.557  18.057  0.00  0.00    +0.000 HD
ENDBRANCH  25  26
BRANCH  25  28
ATOM     28  C   UNL     1       6.771   5.072  16.714  0.00  0.00    +0.000 C 
BRANCH  28  29
ATOM     29  N   UNL     1       7.571   4.743  15.529  0.00  0.00    +0.000 NA
ATOM     30  H   UNL     1       7.803   3.748  15.555  0.00  0.00    +0.000 HD
BRANCH  29  31
ATOM     31  C   UNL     1       6.903   5.034  14.255  0.00  0.00    +0.000 C 
ATOM     32  C   UNL     1       7.887   5.340  13.125  0.00  0.00    +0.000 C 
ATOM     33  C   UNL     1       6.068   3.804  13.881  0.00  0.00    +0.000 C 
ENDBRANCH  29  31
ENDBRANCH  28  29
ENDBRANCH  25  28
ENDBRANCH  24  25
ENDBRANCH  23  24
ENDBRANCH   5  23
TORSDOF 9
ENDMDL
