MODEL 1
REMARK VINA RESULT:      -8.2      0.000      0.000
REMARK  Name = 
REMARK  9 active torsions:
REMARK  status: ('A' for Active; 'I' for Inactive)
REMARK    1  A    between atoms: C_1  and  C_2
REMARK    2  A    between atoms: C_2  and  C_3
REMARK    3  A    between atoms: C_2  and  O_4
REMARK    4  A    between atoms: O_4  and  C_5
REMARK    5  A    between atoms: C_7  and  O_8
REMARK    6  A    between atoms: O_8  and  C_9
REMARK    7  A    between atoms: C_12  and  S_13
REMARK    8  A    between atoms: S_13  and  C_14
REMARK    9  A    between atoms: C_20  and  C_21
REMARK                            x       y       z     vdW  Elec       q    Type
REMARK                         _______ _______ _______ _____ _____    ______ ____
ROOT
ATOM      1  C   UNL     1      -0.056  11.334  20.631  0.00  0.00    +0.000 A 
ATOM      2  C   UNL     1       1.037  10.503  20.347  0.00  0.00    +0.000 A 
ATOM      3  C   UNL     1       1.034   9.708  19.192  0.00  0.00    +0.000 A 
ATOM      4  C   UNL     1      -0.101   9.666  18.377  0.00  0.00    +0.000 A 
ATOM      5  C   UNL     1      -1.141  10.561  18.604  0.00  0.00    +0.000 A 
ATOM      6  C   UNL     1      -1.109  11.397  19.722  0.00  0.00    +0.000 A 
ENDROOT
BRANCH   5   7
ATOM      7  C   UNL     1      -2.228  10.748  17.616  0.00  0.00    +0.000 A 
ATOM      8  N   UNL     1      -3.366  11.255  17.982  0.00  0.00    +0.000 NA
ATOM      9  C   UNL     1      -4.314  11.431  17.010  0.00  0.00    +0.000 A 
ATOM     10  C   UNL     1      -4.170  11.101  15.725  0.00  0.00    +0.000 A 
ATOM     11  C   UNL     1      -2.887  10.503  15.329  0.00  0.00    +0.000 A 
ATOM     12  O   UNL     1      -2.681  10.135  14.180  0.00  0.00    +0.000 OA
ATOM     13  N   UNL     1      -1.965  10.375  16.322  0.00  0.00    +0.000 N 
ATOM     14  H   UNL     1      -1.097   9.941  16.049  0.00  0.00    +0.000 HD
ENDBRANCH   5   7
BRANCH   1  15
ATOM     15  O   UNL     1       0.019  12.127  21.747  0.00  0.00    +0.000 OA
BRANCH  15  17
ATOM     16  C   UNL     1      -2.242  12.229  22.512  0.00  0.00    +0.000 C 
ATOM     17  C   UNL     1      -0.826  11.769  22.862  0.00  0.00    +0.000 C 
ATOM     18  C   UNL     1      -0.863  10.255  23.098  0.00  0.00    +0.000 C 
ENDBRANCH  15  17
ENDBRANCH   1  15
BRANCH   3  19
ATOM     19  O   UNL     1       2.176   8.995  18.873  0.00  0.00    +0.000 OA
BRANCH  19  20
ATOM     20  C   UNL     1       2.158   7.617  19.044  0.00  0.00    +0.000 A 
ATOM     21  C   UNL     1       2.450   6.703  18.021  0.00  0.00    +0.000 A 
ATOM     22  C   UNL     1       2.356   5.329  18.242  0.00  0.00    +0.000 A 
ATOM     23  C   UNL     1       2.056   4.863  19.521  0.00  0.00    +0.000 A 
ATOM     24  C   UNL     1       1.797   5.756  20.565  0.00  0.00    +0.000 A 
ATOM     25  C   UNL     1       1.848   7.136  20.323  0.00  0.00    +0.000 A 
BRANCH  23  26
ATOM     26  S   UNL     1       2.025   3.108  19.808  0.00  0.00    +0.000 S 
ATOM     27  C   UNL     1       1.952   3.009  21.580  0.00  0.00    +0.000 C 
ATOM     28  O   UNL     1       0.786   2.594  19.270  0.00  0.00    +0.000 OA
ATOM     29  O   UNL     1       3.306   2.576  19.380  0.00  0.00    +0.000 OA
ENDBRANCH  23  26
ENDBRANCH  19  20
ENDBRANCH   3  19
TORSDOF 6
ENDMDL
MODEL 2
REMARK VINA RESULT:      -8.1      1.262      1.729
REMARK  Name = 
REMARK  9 active torsions:
REMARK  status: ('A' for Active; 'I' for Inactive)
REMARK    1  A    between atoms: C_1  and  C_2
REMARK    2  A    between atoms: C_2  and  C_3
REMARK    3  A    between atoms: C_2  and  O_4
REMARK    4  A    between atoms: O_4  and  C_5
REMARK    5  A    between atoms: C_7  and  O_8
REMARK    6  A    between atoms: O_8  and  C_9
REMARK    7  A    between atoms: C_12  and  S_13
REMARK    8  A    between atoms: S_13  and  C_14
REMARK    9  A    between atoms: C_20  and  C_21
REMARK                            x       y       z     vdW  Elec       q    Type
REMARK                         _______ _______ _______ _____ _____    ______ ____
ROOT
ATOM      1  C   UNL     1       0.053  10.507  20.234  0.00  0.00    +0.000 A 
ATOM      2  C   UNL     1       1.200   9.926  19.676  0.00  0.00    +0.000 A 
ATOM      3  C   UNL     1       1.192   9.499  18.340  0.00  0.00    +0.000 A 
ATOM      4  C   UNL     1       0.011   9.559  17.596  0.00  0.00    +0.000 A 
ATOM      5  C   UNL     1      -1.094  10.223  18.117  0.00  0.00    +0.000 A 
ATOM      6  C   UNL     1      -1.064  10.703  19.428  0.00  0.00    +0.000 A 
ENDROOT
BRANCH   5   7
ATOM      7  C   UNL     1      -2.265  10.556  17.272  0.00  0.00    +0.000 A 
ATOM      8  N   UNL     1      -3.296  11.153  17.787  0.00  0.00    +0.000 NA
ATOM      9  C   UNL     1      -4.328  11.461  16.942  0.00  0.00    +0.000 A 
ATOM     10  C   UNL     1      -4.367  11.174  15.639  0.00  0.00    +0.000 A 
ATOM     11  C   UNL     1      -3.204  10.474  15.073  0.00  0.00    +0.000 A 
ATOM     12  O   UNL     1      -3.171  10.139  13.897  0.00  0.00    +0.000 OA
ATOM     13  N   UNL     1      -2.191  10.216  15.945  0.00  0.00    +0.000 N 
ATOM     14  H   UNL     1      -1.408   9.714  15.556  0.00  0.00    +0.000 HD
ENDBRANCH   5   7
BRANCH   1  15
ATOM     15  O   UNL     1       0.130  10.951  21.530  0.00  0.00    +0.000 OA
BRANCH  15  17
ATOM     16  C   UNL     1      -0.006   9.558  23.466  0.00  0.00    +0.000 C 
ATOM     17  C   UNL     1      -0.813  10.392  22.470  0.00  0.00    +0.000 C 
ATOM     18  C   UNL     1      -1.560  11.476  23.254  0.00  0.00    +0.000 C 
ENDBRANCH  15  17
ENDBRANCH   1  15
BRANCH   3  19
ATOM     19  O   UNL     1       2.374   9.047  17.780  0.00  0.00    +0.000 OA
BRANCH  19  20
ATOM     20  C   UNL     1       2.811   7.771  18.113  0.00  0.00    +0.000 A 
ATOM     21  C   UNL     1       3.871   7.120  17.465  0.00  0.00    +0.000 A 
ATOM     22  C   UNL     1       4.222   5.814  17.807  0.00  0.00    +0.000 A 
ATOM     23  C   UNL     1       3.569   5.187  18.866  0.00  0.00    +0.000 A 
ATOM     24  C   UNL     1       2.534   5.832  19.551  0.00  0.00    +0.000 A 
ATOM     25  C   UNL     1       2.156   7.127  19.170  0.00  0.00    +0.000 A 
BRANCH  23  26
ATOM     26  S   UNL     1       4.087   3.555  19.348  0.00  0.00    +0.000 S 
ATOM     27  C   UNL     1       3.540   2.559  17.983  0.00  0.00    +0.000 C 
ATOM     28  O   UNL     1       5.532   3.541  19.375  0.00  0.00    +0.000 OA
ATOM     29  O   UNL     1       3.311   3.181  20.516  0.00  0.00    +0.000 OA
ENDBRANCH  23  26
ENDBRANCH  19  20
ENDBRANCH   3  19
TORSDOF 6
ENDMDL
MODEL 3
REMARK VINA RESULT:      -8.1      1.141      1.645
REMARK  Name = 
REMARK  9 active torsions:
REMARK  status: ('A' for Active; 'I' for Inactive)
REMARK    1  A    between atoms: C_1  and  C_2
REMARK    2  A    between atoms: C_2  and  C_3
REMARK    3  A    between atoms: C_2  and  O_4
REMARK    4  A    between atoms: O_4  and  C_5
REMARK    5  A    between atoms: C_7  and  O_8
REMARK    6  A    between atoms: O_8  and  C_9
REMARK    7  A    between atoms: C_12  and  S_13
REMARK    8  A    between atoms: S_13  and  C_14
REMARK    9  A    between atoms: C_20  and  C_21
REMARK                            x       y       z     vdW  Elec       q    Type
REMARK                         _______ _______ _______ _____ _____    ______ ____
ROOT
ATOM      1  C   UNL     1       0.227  10.834  20.271  0.00  0.00    +0.000 A 
ATOM      2  C   UNL     1       1.357  10.201  19.736  0.00  0.00    +0.000 A 
ATOM      3  C   UNL     1       1.309   9.648  18.448  0.00  0.00    +0.000 A 
ATOM      4  C   UNL     1       0.105   9.638  17.738  0.00  0.00    +0.000 A 
ATOM      5  C   UNL     1      -0.984  10.351  18.227  0.00  0.00    +0.000 A 
ATOM      6  C   UNL     1      -0.915  10.954  19.485  0.00  0.00    +0.000 A 
ENDROOT
BRANCH   5   7
ATOM      7  C   UNL     1      -2.181  10.603  17.390  0.00  0.00    +0.000 A 
ATOM      8  N   UNL     1      -3.241  11.143  17.909  0.00  0.00    +0.000 NA
ATOM      9  C   UNL     1      -4.297  11.379  17.071  0.00  0.00    +0.000 A 
ATOM     10  C   UNL     1      -4.332  11.075  15.772  0.00  0.00    +0.000 A 
ATOM     11  C   UNL     1      -3.134  10.439  15.202  0.00  0.00    +0.000 A 
ATOM     12  O   UNL     1      -3.092  10.092  14.029  0.00  0.00    +0.000 OA
ATOM     13  N   UNL     1      -2.100  10.253  16.066  0.00  0.00    +0.000 N 
ATOM     14  H   UNL     1      -1.291   9.794  15.675  0.00  0.00    +0.000 HD
ENDBRANCH   5   7
BRANCH   1  15
ATOM     15  O   UNL     1       0.343  11.400  21.515  0.00  0.00    +0.000 OA
BRANCH  15  17
ATOM     16  C   UNL     1      -1.034  10.548  23.271  0.00  0.00    +0.000 C 
ATOM     17  C   UNL     1      -0.883  11.660  22.233  0.00  0.00    +0.000 C 
ATOM     18  C   UNL     1      -0.847  13.001  22.974  0.00  0.00    +0.000 C 
ENDBRANCH  15  17
ENDBRANCH   1  15
BRANCH   3  19
ATOM     19  O   UNL     1       2.473   9.143  17.898  0.00  0.00    +0.000 OA
BRANCH  19  20
ATOM     20  C   UNL     1       2.813   7.825  18.179  0.00  0.00    +0.000 A 
ATOM     21  C   UNL     1       2.108   7.019  19.085  0.00  0.00    +0.000 A 
ATOM     22  C   UNL     1       2.536   5.722  19.367  0.00  0.00    +0.000 A 
ATOM     23  C   UNL     1       3.623   5.195  18.673  0.00  0.00    +0.000 A 
ATOM     24  C   UNL     1       4.318   5.969  17.738  0.00  0.00    +0.000 A 
ATOM     25  C   UNL     1       3.909   7.287  17.494  0.00  0.00    +0.000 A 
BRANCH  23  26
ATOM     26  S   UNL     1       4.103   3.510  18.981  0.00  0.00    +0.000 S 
ATOM     27  C   UNL     1       3.076   3.063  20.360  0.00  0.00    +0.000 C 
ATOM     28  O   UNL     1       3.703   2.721  17.838  0.00  0.00    +0.000 OA
ATOM     29  O   UNL     1       5.482   3.528  19.434  0.00  0.00    +0.000 OA
ENDBRANCH  23  26
ENDBRANCH  19  20
ENDBRANCH   3  19
TORSDOF 6
ENDMDL
MODEL 4
REMARK VINA RESULT:      -8.1      4.374      8.747
REMARK  Name = 
REMARK  9 active torsions:
REMARK  status: ('A' for Active; 'I' for Inactive)
REMARK    1  A    between atoms: C_1  and  C_2
REMARK    2  A    between atoms: C_2  and  C_3
REMARK    3  A    between atoms: C_2  and  O_4
REMARK    4  A    between atoms: O_4  and  C_5
REMARK    5  A    between atoms: C_7  and  O_8
REMARK    6  A    between atoms: O_8  and  C_9
REMARK    7  A    between atoms: C_12  and  S_13
REMARK    8  A    between atoms: S_13  and  C_14
REMARK    9  A    between atoms: C_20  and  C_21
REMARK                            x       y       z     vdW  Elec       q    Type
REMARK                         _______ _______ _______ _____ _____    ______ ____
ROOT
ATOM      1  C   UNL     1       2.623   5.744  19.787  0.00  0.00    +0.000 A 
ATOM      2  C   UNL     1       1.872   6.863  19.401  0.00  0.00    +0.000 A 
ATOM      3  C   UNL     1       2.265   7.625  18.291  0.00  0.00    +0.000 A 
ATOM      4  C   UNL     1       3.461   7.330  17.631  0.00  0.00    +0.000 A 
ATOM      5  C   UNL     1       4.150   6.166  17.951  0.00  0.00    +0.000 A 
ATOM      6  C   UNL     1       3.724   5.374  19.019  0.00  0.00    +0.000 A 
ENDROOT
BRANCH   5   7
ATOM      7  C   UNL     1       5.258   5.667  17.103  0.00  0.00    +0.000 A 
ATOM      8  N   UNL     1       5.188   5.763  15.810  0.00  0.00    +0.000 NA
ATOM      9  C   UNL     1       6.261   5.313  15.090  0.00  0.00    +0.000 A 
ATOM     10  C   UNL     1       7.360   4.762  15.609  0.00  0.00    +0.000 A 
ATOM     11  C   UNL     1       7.416   4.635  17.073  0.00  0.00    +0.000 A 
ATOM     12  O   UNL     1       8.369   4.108  17.632  0.00  0.00    +0.000 OA
ATOM     13  N   UNL     1       6.340   5.123  17.748  0.00  0.00    +0.000 N 
ATOM     14  H   UNL     1       6.374   5.010  18.749  0.00  0.00    +0.000 HD
ENDBRANCH   5   7
BRANCH   1  15
ATOM     15  O   UNL     1       2.168   5.007  20.849  0.00  0.00    +0.000 OA
BRANCH  15  17
ATOM     16  C   UNL     1       1.882   2.951  22.032  0.00  0.00    +0.000 C 
ATOM     17  C   UNL     1       2.031   3.584  20.647  0.00  0.00    +0.000 C 
ATOM     18  C   UNL     1       0.784   3.232  19.828  0.00  0.00    +0.000 C 
ENDBRANCH  15  17
ENDBRANCH   1  15
BRANCH   3  19
ATOM     19  O   UNL     1       1.437   8.646  17.859  0.00  0.00    +0.000 OA
BRANCH  19  20
ATOM     20  C   UNL     1       1.454   9.845  18.560  0.00  0.00    +0.000 A 
ATOM     21  C   UNL     1       0.852  10.019  19.816  0.00  0.00    +0.000 A 
ATOM     22  C   UNL     1       0.854  11.265  20.441  0.00  0.00    +0.000 A 
ATOM     23  C   UNL     1       1.540  12.325  19.850  0.00  0.00    +0.000 A 
ATOM     24  C   UNL     1       2.178  12.164  18.617  0.00  0.00    +0.000 A 
ATOM     25  C   UNL     1       2.133  10.920  17.973  0.00  0.00    +0.000 A 
BRANCH  23  26
ATOM     26  S   UNL     1       1.606  13.884  20.702  0.00  0.00    +0.000 S 
ATOM     27  C   UNL     1       1.964  15.026  19.389  0.00  0.00    +0.000 C 
ATOM     28  O   UNL     1       0.282  14.169  21.207  0.00  0.00    +0.000 OA
ATOM     29  O   UNL     1       2.754  13.845  21.589  0.00  0.00    +0.000 OA
ENDBRANCH  23  26
ENDBRANCH  19  20
ENDBRANCH   3  19
TORSDOF 6
ENDMDL
MODEL 5
REMARK VINA RESULT:      -8.1      1.933      4.662
REMARK  Name = 
REMARK  9 active torsions:
REMARK  status: ('A' for Active; 'I' for Inactive)
REMARK    1  A    between atoms: C_1  and  C_2
REMARK    2  A    between atoms: C_2  and  C_3
REMARK    3  A    between atoms: C_2  and  O_4
REMARK    4  A    between atoms: O_4  and  C_5
REMARK    5  A    between atoms: C_7  and  O_8
REMARK    6  A    between atoms: O_8  and  C_9
REMARK    7  A    between atoms: C_12  and  S_13
REMARK    8  A    between atoms: S_13  and  C_14
REMARK    9  A    between atoms: C_20  and  C_21
REMARK                            x       y       z     vdW  Elec       q    Type
REMARK                         _______ _______ _______ _____ _____    ______ ____
ROOT
ATOM      1  C   UNL     1      -1.380  10.191  17.973  0.00  0.00    +0.000 A 
ATOM      2  C   UNL     1      -0.108   9.630  17.796  0.00  0.00    +0.000 A 
ATOM      3  C   UNL     1       0.925   9.932  18.695  0.00  0.00    +0.000 A 
ATOM      4  C   UNL     1       0.715  10.872  19.708  0.00  0.00    +0.000 A 
ATOM      5  C   UNL     1      -0.569  11.351  19.942  0.00  0.00    +0.000 A 
ATOM      6  C   UNL     1      -1.612  11.002  19.081  0.00  0.00    +0.000 A 
ENDROOT
BRANCH   5   7
ATOM      7  C   UNL     1      -0.894  12.124  21.164  0.00  0.00    +0.000 A 
ATOM      8  N   UNL     1      -0.192  13.168  21.484  0.00  0.00    +0.000 NA
ATOM      9  C   UNL     1      -0.568  13.855  22.607  0.00  0.00    +0.000 A 
ATOM     10  C   UNL     1      -1.581  13.522  23.409  0.00  0.00    +0.000 A 
ATOM     11  C   UNL     1      -2.352  12.322  23.050  0.00  0.00    +0.000 A 
ATOM     12  O   UNL     1      -3.272  11.921  23.750  0.00  0.00    +0.000 OA
ATOM     13  N   UNL     1      -1.959  11.690  21.910  0.00  0.00    +0.000 N 
ATOM     14  H   UNL     1      -2.475  10.854  21.684  0.00  0.00    +0.000 HD
ENDBRANCH   5   7
BRANCH   1  15
ATOM     15  O   UNL     1      -2.367   9.825  17.094  0.00  0.00    +0.000 OA
BRANCH  15  17
ATOM     16  C   UNL     1      -2.923  10.199  14.801  0.00  0.00    +0.000 C 
ATOM     17  C   UNL     1      -2.846  10.841  16.187  0.00  0.00    +0.000 C 
ATOM     18  C   UNL     1      -4.247  11.337  16.560  0.00  0.00    +0.000 C 
ENDBRANCH  15  17
ENDBRANCH   1  15
BRANCH   3  19
ATOM     19  O   UNL     1       2.131   9.266  18.569  0.00  0.00    +0.000 OA
BRANCH  19  20
ATOM     20  C   UNL     1       2.171   7.916  18.894  0.00  0.00    +0.000 A 
ATOM     21  C   UNL     1       2.531   6.909  17.985  0.00  0.00    +0.000 A 
ATOM     22  C   UNL     1       2.494   5.566  18.357  0.00  0.00    +0.000 A 
ATOM     23  C   UNL     1       2.181   5.230  19.673  0.00  0.00    +0.000 A 
ATOM     24  C   UNL     1       1.854   6.220  20.605  0.00  0.00    +0.000 A 
ATOM     25  C   UNL     1       1.850   7.565  20.211  0.00  0.00    +0.000 A 
BRANCH  23  26
ATOM     26  S   UNL     1       2.222   3.519  20.154  0.00  0.00    +0.000 S 
ATOM     27  C   UNL     1       0.992   2.792  19.099  0.00  0.00    +0.000 C 
ATOM     28  O   UNL     1       3.514   2.987  19.785  0.00  0.00    +0.000 OA
ATOM     29  O   UNL     1       1.743   3.441  21.522  0.00  0.00    +0.000 OA
ENDBRANCH  23  26
ENDBRANCH  19  20
ENDBRANCH   3  19
TORSDOF 6
ENDMDL
MODEL 6
REMARK VINA RESULT:      -8.1      1.759      4.568
REMARK  Name = 
REMARK  9 active torsions:
REMARK  status: ('A' for Active; 'I' for Inactive)
REMARK    1  A    between atoms: C_1  and  C_2
REMARK    2  A    between atoms: C_2  and  C_3
REMARK    3  A    between atoms: C_2  and  O_4
REMARK    4  A    between atoms: O_4  and  C_5
REMARK    5  A    between atoms: C_7  and  O_8
REMARK    6  A    between atoms: O_8  and  C_9
REMARK    7  A    between atoms: C_12  and  S_13
REMARK    8  A    between atoms: S_13  and  C_14
REMARK    9  A    between atoms: C_20  and  C_21
REMARK                            x       y       z     vdW  Elec       q    Type
REMARK                         _______ _______ _______ _____ _____    ______ ____
ROOT
ATOM      1  C   UNL     1      -0.999  10.041  17.901  0.00  0.00    +0.000 A 
ATOM      2  C   UNL     1       0.231   9.369  17.852  0.00  0.00    +0.000 A 
ATOM      3  C   UNL     1       1.194   9.595  18.846  0.00  0.00    +0.000 A 
ATOM      4  C   UNL     1       0.971  10.564  19.827  0.00  0.00    +0.000 A 
ATOM      5  C   UNL     1      -0.283  11.156  19.931  0.00  0.00    +0.000 A 
ATOM      6  C   UNL     1      -1.264  10.885  18.975  0.00  0.00    +0.000 A 
ENDROOT
BRANCH   5   7
ATOM      7  C   UNL     1      -0.656  11.972  21.111  0.00  0.00    +0.000 A 
ATOM      8  N   UNL     1       0.007  13.051  21.396  0.00  0.00    +0.000 NA
ATOM      9  C   UNL     1      -0.413  13.776  22.479  0.00  0.00    +0.000 A 
ATOM     10  C   UNL     1      -1.431  13.447  23.277  0.00  0.00    +0.000 A 
ATOM     11  C   UNL     1      -2.157  12.208  22.959  0.00  0.00    +0.000 A 
ATOM     12  O   UNL     1      -3.079  11.810  23.659  0.00  0.00    +0.000 OA
ATOM     13  N   UNL     1      -1.723  11.538  21.857  0.00  0.00    +0.000 N 
ATOM     14  H   UNL     1      -2.208  10.677  21.659  0.00  0.00    +0.000 HD
ENDBRANCH   5   7
BRANCH   1  15
ATOM     15  O   UNL     1      -1.924   9.748  16.932  0.00  0.00    +0.000 OA
BRANCH  15  17
ATOM     16  C   UNL     1      -2.987  10.597  14.968  0.00  0.00    +0.000 C 
ATOM     17  C   UNL     1      -2.744  10.838  16.459  0.00  0.00    +0.000 C 
ATOM     18  C   UNL     1      -4.105  10.886  17.160  0.00  0.00    +0.000 C 
ENDBRANCH  15  17
ENDBRANCH   1  15
BRANCH   3  19
ATOM     19  O   UNL     1       2.344   8.825  18.843  0.00  0.00    +0.000 OA
BRANCH  19  20
ATOM     20  C   UNL     1       2.223   7.464  19.094  0.00  0.00    +0.000 A 
ATOM     21  C   UNL     1       1.824   6.936  20.331  0.00  0.00    +0.000 A 
ATOM     22  C   UNL     1       1.778   5.558  20.537  0.00  0.00    +0.000 A 
ATOM     23  C   UNL     1       2.047   4.699  19.472  0.00  0.00    +0.000 A 
ATOM     24  C   UNL     1       2.411   5.204  18.220  0.00  0.00    +0.000 A 
ATOM     25  C   UNL     1       2.499   6.591  18.035  0.00  0.00    +0.000 A 
BRANCH  23  26
ATOM     26  S   UNL     1       1.900   2.945  19.727  0.00  0.00    +0.000 S 
ATOM     27  C   UNL     1       1.490   2.839  21.452  0.00  0.00    +0.000 C 
ATOM     28  O   UNL     1       0.768   2.481  18.958  0.00  0.00    +0.000 OA
ATOM     29  O   UNL     1       3.219   2.368  19.542  0.00  0.00    +0.000 OA
ENDBRANCH  23  26
ENDBRANCH  19  20
ENDBRANCH   3  19
TORSDOF 6
ENDMDL
MODEL 7
REMARK VINA RESULT:      -8.0      3.998      8.460
REMARK  Name = 
REMARK  9 active torsions:
REMARK  status: ('A' for Active; 'I' for Inactive)
REMARK    1  A    between atoms: C_1  and  C_2
REMARK    2  A    between atoms: C_2  and  C_3
REMARK    3  A    between atoms: C_2  and  O_4
REMARK    4  A    between atoms: O_4  and  C_5
REMARK    5  A    between atoms: C_7  and  O_8
REMARK    6  A    between atoms: O_8  and  C_9
REMARK    7  A    between atoms: C_12  and  S_13
REMARK    8  A    between atoms: S_13  and  C_14
REMARK    9  A    between atoms: C_20  and  C_21
REMARK                            x       y       z     vdW  Elec       q    Type
REMARK                         _______ _______ _______ _____ _____    ______ ____
ROOT
ATOM      1  C   UNL     1       2.452   6.189  19.374  0.00  0.00    +0.000 A 
ATOM      2  C   UNL     1       1.908   7.420  18.983  0.00  0.00    +0.000 A 
ATOM      3  C   UNL     1       2.495   8.147  17.938  0.00  0.00    +0.000 A 
ATOM      4  C   UNL     1       3.683   7.696  17.355  0.00  0.00    +0.000 A 
ATOM      5  C   UNL     1       4.165   6.432  17.675  0.00  0.00    +0.000 A 
ATOM      6  C   UNL     1       3.543   5.681  18.674  0.00  0.00    +0.000 A 
ENDROOT
BRANCH   5   7
ATOM      7  C   UNL     1       5.250   5.798  16.890  0.00  0.00    +0.000 A 
ATOM      8  N   UNL     1       5.198   5.785  15.593  0.00  0.00    +0.000 NA
ATOM      9  C   UNL     1       6.250   5.213  14.930  0.00  0.00    +0.000 A 
ATOM     10  C   UNL     1       7.310   4.648  15.511  0.00  0.00    +0.000 A 
ATOM     11  C   UNL     1       7.345   4.646  16.982  0.00  0.00    +0.000 A 
ATOM     12  O   UNL     1       8.259   4.116  17.598  0.00  0.00    +0.000 OA
ATOM     13  N   UNL     1       6.292   5.252  17.596  0.00  0.00    +0.000 N 
ATOM     14  H   UNL     1       6.309   5.225  18.603  0.00  0.00    +0.000 HD
ENDBRANCH   5   7
BRANCH   1  15
ATOM     15  O   UNL     1       1.811   5.495  20.368  0.00  0.00    +0.000 OA
BRANCH  15  17
ATOM     16  C   UNL     1       2.228   3.619  21.788  0.00  0.00    +0.000 C 
ATOM     17  C   UNL     1       1.939   4.057  20.351  0.00  0.00    +0.000 C 
ATOM     18  C   UNL     1       0.649   3.367  19.894  0.00  0.00    +0.000 C 
ENDBRANCH  15  17
ENDBRANCH   1  15
BRANCH   3  19
ATOM     19  O   UNL     1       1.864   9.294  17.490  0.00  0.00    +0.000 OA
BRANCH  19  20
ATOM     20  C   UNL     1       1.115  10.028  18.401  0.00  0.00    +0.000 A 
ATOM     21  C   UNL     1       1.681  10.844  19.392  0.00  0.00    +0.000 A 
ATOM     22  C   UNL     1       0.875  11.510  20.315  0.00  0.00    +0.000 A 
ATOM     23  C   UNL     1      -0.511  11.431  20.192  0.00  0.00    +0.000 A 
ATOM     24  C   UNL     1      -1.097  10.654  19.189  0.00  0.00    +0.000 A 
ATOM     25  C   UNL     1      -0.279   9.951  18.293  0.00  0.00    +0.000 A 
BRANCH  23  26
ATOM     26  S   UNL     1      -1.526  12.355  21.323  0.00  0.00    +0.000 S 
ATOM     27  C   UNL     1      -0.453  13.687  21.803  0.00  0.00    +0.000 C 
ATOM     28  O   UNL     1      -2.632  12.906  20.574  0.00  0.00    +0.000 OA
ATOM     29  O   UNL     1      -1.751  11.518  22.487  0.00  0.00    +0.000 OA
ENDBRANCH  23  26
ENDBRANCH  19  20
ENDBRANCH   3  19
TORSDOF 6
ENDMDL
MODEL 8
REMARK VINA RESULT:      -8.0      1.492      2.243
REMARK  Name = 
REMARK  9 active torsions:
REMARK  status: ('A' for Active; 'I' for Inactive)
REMARK    1  A    between atoms: C_1  and  C_2
REMARK    2  A    between atoms: C_2  and  C_3
REMARK    3  A    between atoms: C_2  and  O_4
REMARK    4  A    between atoms: O_4  and  C_5
REMARK    5  A    between atoms: C_7  and  O_8
REMARK    6  A    between atoms: O_8  and  C_9
REMARK    7  A    between atoms: C_12  and  S_13
REMARK    8  A    between atoms: S_13  and  C_14
REMARK    9  A    between atoms: C_20  and  C_21
REMARK                            x       y       z     vdW  Elec       q    Type
REMARK                         _______ _______ _______ _____ _____    ______ ____
ROOT
ATOM      1  C   UNL     1       0.244  10.456  20.326  0.00  0.00    +0.000 A 
ATOM      2  C   UNL     1       1.368   9.958  19.652  0.00  0.00    +0.000 A 
ATOM      3  C   UNL     1       1.284   9.638  18.289  0.00  0.00    +0.000 A 
ATOM      4  C   UNL     1       0.056   9.720  17.627  0.00  0.00    +0.000 A 
ATOM      5  C   UNL     1      -1.029  10.306  18.269  0.00  0.00    +0.000 A 
ATOM      6  C   UNL     1      -0.928  10.680  19.610  0.00  0.00    +0.000 A 
ENDROOT
BRANCH   5   7
ATOM      7  C   UNL     1      -2.261  10.667  17.528  0.00  0.00    +0.000 A 
ATOM      8  N   UNL     1      -3.288  11.148  18.160  0.00  0.00    +0.000 NA
ATOM      9  C   UNL     1      -4.379  11.493  17.409  0.00  0.00    +0.000 A 
ATOM     10  C   UNL     1      -4.479  11.351  16.086  0.00  0.00    +0.000 A 
ATOM     11  C   UNL     1      -3.319  10.780  15.385  0.00  0.00    +0.000 A 
ATOM     12  O   UNL     1      -3.338  10.579  14.178  0.00  0.00    +0.000 OA
ATOM     13  N   UNL     1      -2.247  10.481  16.169  0.00  0.00    +0.000 N 
ATOM     14  H   UNL     1      -1.465  10.067  15.686  0.00  0.00    +0.000 HD
ENDBRANCH   5   7
BRANCH   1  15
ATOM     15  O   UNL     1       0.393  10.798  21.646  0.00  0.00    +0.000 OA
BRANCH  15  17
ATOM     16  C   UNL     1      -0.016   9.535  23.632  0.00  0.00    +0.000 C 
ATOM     17  C   UNL     1      -0.662  10.400  22.548  0.00  0.00    +0.000 C 
ATOM     18  C   UNL     1      -1.323  11.602  23.231  0.00  0.00    +0.000 C 
ENDBRANCH  15  17
ENDBRANCH   1  15
BRANCH   3  19
ATOM     19  O   UNL     1       2.439   9.269  17.621  0.00  0.00    +0.000 OA
BRANCH  19  20
ATOM     20  C   UNL     1       2.858   7.948  17.719  0.00  0.00    +0.000 A 
ATOM     21  C   UNL     1       2.066   6.919  18.251  0.00  0.00    +0.000 A 
ATOM     22  C   UNL     1       2.568   5.624  18.376  0.00  0.00    +0.000 A 
ATOM     23  C   UNL     1       3.839   5.334  17.883  0.00  0.00    +0.000 A 
ATOM     24  C   UNL     1       4.632   6.336  17.315  0.00  0.00    +0.000 A 
ATOM     25  C   UNL     1       4.137   7.646  17.235  0.00  0.00    +0.000 A 
BRANCH  23  26
ATOM     26  S   UNL     1       4.431   3.660  17.970  0.00  0.00    +0.000 S 
ATOM     27  C   UNL     1       5.426   3.526  16.506  0.00  0.00    +0.000 C 
ATOM     28  O   UNL     1       5.297   3.557  19.123  0.00  0.00    +0.000 OA
ATOM     29  O   UNL     1       3.283   2.785  17.816  0.00  0.00    +0.000 OA
ENDBRANCH  23  26
ENDBRANCH  19  20
ENDBRANCH   3  19
TORSDOF 6
ENDMDL
MODEL 9
REMARK VINA RESULT:      -8.0      3.874      8.468
REMARK  Name = 
REMARK  9 active torsions:
REMARK  status: ('A' for Active; 'I' for Inactive)
REMARK    1  A    between atoms: C_1  and  C_2
REMARK    2  A    between atoms: C_2  and  C_3
REMARK    3  A    between atoms: C_2  and  O_4
REMARK    4  A    between atoms: O_4  and  C_5
REMARK    5  A    between atoms: C_7  and  O_8
REMARK    6  A    between atoms: O_8  and  C_9
REMARK    7  A    between atoms: C_12  and  S_13
REMARK    8  A    between atoms: S_13  and  C_14
REMARK    9  A    between atoms: C_20  and  C_21
REMARK                            x       y       z     vdW  Elec       q    Type
REMARK                         _______ _______ _______ _____ _____    ______ ____
ROOT
ATOM      1  C   UNL     1       2.250   5.653  19.414  0.00  0.00    +0.000 A 
ATOM      2  C   UNL     1       1.694   6.918  19.177  0.00  0.00    +0.000 A 
ATOM      3  C   UNL     1       2.288   7.784  18.248  0.00  0.00    +0.000 A 
ATOM      4  C   UNL     1       3.492   7.428  17.633  0.00  0.00    +0.000 A 
ATOM      5  C   UNL     1       3.987   6.138  17.793  0.00  0.00    +0.000 A 
ATOM      6  C   UNL     1       3.359   5.255  18.674  0.00  0.00    +0.000 A 
ENDROOT
BRANCH   5   7
ATOM      7  C   UNL     1       5.094   5.626  16.952  0.00  0.00    +0.000 A 
ATOM      8  N   UNL     1       5.001   5.657  15.658  0.00  0.00    +0.000 NA
ATOM      9  C   UNL     1       6.075   5.200  14.942  0.00  0.00    +0.000 A 
ATOM     10  C   UNL     1       7.196   4.702  15.469  0.00  0.00    +0.000 A 
ATOM     11  C   UNL     1       7.277   4.648  16.936  0.00  0.00    +0.000 A 
ATOM     12  O   UNL     1       8.251   4.172  17.504  0.00  0.00    +0.000 OA
ATOM     13  N   UNL     1       6.199   5.141  17.604  0.00  0.00    +0.000 N 
ATOM     14  H   UNL     1       6.251   5.078  18.609  0.00  0.00    +0.000 HD
ENDBRANCH   5   7
BRANCH   1  15
ATOM     15  O   UNL     1       1.602   4.827  20.296  0.00  0.00    +0.000 OA
BRANCH  15  17
ATOM     16  C   UNL     1       1.811   2.834  21.596  0.00  0.00    +0.000 C 
ATOM     17  C   UNL     1       1.862   3.412  20.181  0.00  0.00    +0.000 C 
ATOM     18  C   UNL     1       0.804   2.695  19.336  0.00  0.00    +0.000 C 
ENDBRANCH  15  17
ENDBRANCH   1  15
BRANCH   3  19
ATOM     19  O   UNL     1       1.648   8.972  17.942  0.00  0.00    +0.000 OA
BRANCH  19  20
ATOM     20  C   UNL     1       1.027   9.665  18.973  0.00  0.00    +0.000 A 
ATOM     21  C   UNL     1       1.608   9.867  20.234  0.00  0.00    +0.000 A 
ATOM     22  C   UNL     1       0.908  10.521  21.247  0.00  0.00    +0.000 A 
ATOM     23  C   UNL     1      -0.349  11.057  20.971  0.00  0.00    +0.000 A 
ATOM     24  C   UNL     1      -0.933  10.899  19.711  0.00  0.00    +0.000 A 
ATOM     25  C   UNL     1      -0.241  10.201  18.711  0.00  0.00    +0.000 A 
BRANCH  23  26
ATOM     26  S   UNL     1      -1.193  11.963  22.247  0.00  0.00    +0.000 S 
ATOM     27  C   UNL     1      -2.619  12.591  21.395  0.00  0.00    +0.000 C 
ATOM     28  O   UNL     1      -1.636  11.014  23.243  0.00  0.00    +0.000 OA
ATOM     29  O   UNL     1      -0.352  13.090  22.608  0.00  0.00    +0.000 OA
ENDBRANCH  23  26
ENDBRANCH  19  20
ENDBRANCH   3  19
TORSDOF 6
ENDMDL
