MODEL 1
REMARK VINA RESULT:      -8.4      0.000      0.000
REMARK  Name = 
REMARK  6 active torsions:
REMARK  status: ('A' for Active; 'I' for Inactive)
REMARK    1  A    between atoms: C_1  and  C_2
REMARK    2  A    between atoms: C_3  and  C_4
REMARK    3  A    between atoms: C_4  and  C_5
REMARK    4  A    between atoms: C_8  and  C_9
REMARK    5  A    between atoms: C_17  and  C_18
REMARK    6  A    between atoms: N_20  and  C_21
REMARK                            x       y       z     vdW  Elec       q    Type
REMARK                         _______ _______ _______ _____ _____    ______ ____
ROOT
ATOM      1  C   UNL     1       5.039   6.651  16.227  0.00  0.00    +0.000 C 
ATOM      2  C   UNL     1       6.137   5.685  16.526  0.00  0.00    +0.000 A 
ATOM      3  C   UNL     1       6.594   5.308  17.843  0.00  0.00    +0.000 A 
ATOM      4  C   UNL     1       7.690   4.486  17.652  0.00  0.00    +0.000 A 
ATOM      5  N   UNL     1       7.896   4.338  16.311  0.00  0.00    +0.000 N 
ATOM      6  C   UNL     1       6.918   4.992  15.598  0.00  0.00    +0.000 A 
ATOM      7  H   UNL     1       8.634   3.794  15.881  0.00  0.00    +0.000 HD
ENDROOT
BRANCH   6   8
ATOM      8  C   UNL     1       6.877   4.886  14.147  0.00  0.00    +0.000 C 
ATOM      9  O   UNL     1       7.655   5.489  13.417  0.00  0.00    +0.000 OA
ATOM     10  N   UNL     1       5.957   3.983  13.662  0.00  0.00    +0.000 N 
ATOM     11  H   UNL     1       5.527   3.383  14.353  0.00  0.00    +0.000 HD
BRANCH  10  12
ATOM     12  C   UNL     1       5.896   3.587  12.240  0.00  0.00    +0.000 C 
ATOM     13  C   UNL     1       6.245   2.115  11.978  0.00  0.00    +0.000 C 
ATOM     14  O   UNL     1       5.106   1.978  11.089  0.00  0.00    +0.000 OA
ATOM     15  C   UNL     1       4.531   3.190  11.661  0.00  0.00    +0.000 C 
ENDBRANCH  10  12
ENDBRANCH   6   8
BRANCH   3  16
ATOM     16  C   UNL     1       6.056   5.742  19.178  0.00  0.00    +0.000 C 
BRANCH  16  17
ATOM     17  C   UNL     1       4.766   4.992  19.380  0.00  0.00    +0.000 A 
ATOM     18  C   UNL     1       3.557   5.651  19.613  0.00  0.00    +0.000 A 
ATOM     19  C   UNL     1       2.396   4.915  19.851  0.00  0.00    +0.000 A 
ATOM     20  C   UNL     1       2.459   3.521  19.854  0.00  0.00    +0.000 A 
ATOM     21  N   UNL     1       3.622   2.861  19.584  0.00  0.00    +0.000 NA
ATOM     22  C   UNL     1       4.731   3.602  19.356  0.00  0.00    +0.000 A 
BRANCH  20  23
ATOM     23  C   UNL     1       1.219   2.707  20.207  0.00  0.00    +0.000 C 
ATOM     24  F   UNL     1       1.230   1.448  19.671  0.00  0.00    +0.000 F 
ATOM     25  F   UNL     1       1.051   2.526  21.548  0.00  0.00    +0.000 F 
ATOM     26  F   UNL     1       0.063   3.277  19.756  0.00  0.00    +0.000 F 
ENDBRANCH  20  23
ENDBRANCH  16  17
ENDBRANCH   3  16
TORSDOF 5
ENDMDL
MODEL 2
REMARK VINA RESULT:      -8.1      0.576      1.265
REMARK  Name = 
REMARK  6 active torsions:
REMARK  status: ('A' for Active; 'I' for Inactive)
REMARK    1  A    between atoms: C_1  and  C_2
REMARK    2  A    between atoms: C_3  and  C_4
REMARK    3  A    between atoms: C_4  and  C_5
REMARK    4  A    between atoms: C_8  and  C_9
REMARK    5  A    between atoms: C_17  and  C_18
REMARK    6  A    between atoms: N_20  and  C_21
REMARK                            x       y       z     vdW  Elec       q    Type
REMARK                         _______ _______ _______ _____ _____    ______ ____
ROOT
ATOM      1  C   UNL     1       5.032   6.710  16.101  0.00  0.00    +0.000 C 
ATOM      2  C   UNL     1       6.119   5.744  16.439  0.00  0.00    +0.000 A 
ATOM      3  C   UNL     1       6.556   5.396  17.770  0.00  0.00    +0.000 A 
ATOM      4  C   UNL     1       7.648   4.561  17.613  0.00  0.00    +0.000 A 
ATOM      5  N   UNL     1       7.869   4.378  16.279  0.00  0.00    +0.000 N 
ATOM      6  C   UNL     1       6.905   5.022  15.537  0.00  0.00    +0.000 A 
ATOM      7  H   UNL     1       8.609   3.818  15.872  0.00  0.00    +0.000 HD
ENDROOT
BRANCH   6   8
ATOM      8  C   UNL     1       6.882   4.880  14.090  0.00  0.00    +0.000 C 
ATOM      9  O   UNL     1       7.723   5.392  13.360  0.00  0.00    +0.000 OA
ATOM     10  N   UNL     1       5.894   4.049  13.608  0.00  0.00    +0.000 N 
ATOM     11  H   UNL     1       5.399   3.510  14.306  0.00  0.00    +0.000 HD
BRANCH  10  12
ATOM     12  C   UNL     1       5.825   3.622  12.197  0.00  0.00    +0.000 C 
ATOM     13  C   UNL     1       6.234   2.162  11.957  0.00  0.00    +0.000 C 
ATOM     14  O   UNL     1       5.086   1.956  11.093  0.00  0.00    +0.000 OA
ATOM     15  C   UNL     1       4.468   3.152  11.652  0.00  0.00    +0.000 C 
ENDBRANCH  10  12
ENDBRANCH   6   8
BRANCH   3  16
ATOM     16  C   UNL     1       6.005   5.867  19.087  0.00  0.00    +0.000 C 
BRANCH  16  17
ATOM     17  C   UNL     1       4.804   5.005  19.377  0.00  0.00    +0.000 A 
ATOM     18  C   UNL     1       4.862   3.610  19.304  0.00  0.00    +0.000 A 
ATOM     19  C   UNL     1       3.711   2.852  19.525  0.00  0.00    +0.000 A 
ATOM     20  C   UNL     1       2.511   3.501  19.815  0.00  0.00    +0.000 A 
ATOM     21  N   UNL     1       2.446   4.860  19.934  0.00  0.00    +0.000 NA
ATOM     22  C   UNL     1       3.579   5.567  19.715  0.00  0.00    +0.000 A 
BRANCH  20  23
ATOM     23  C   UNL     1       1.227   2.691  19.963  0.00  0.00    +0.000 C 
ATOM     24  F   UNL     1       0.829   2.545  21.264  0.00  0.00    +0.000 F 
ATOM     25  F   UNL     1       0.160   3.243  19.319  0.00  0.00    +0.000 F 
ATOM     26  F   UNL     1       1.343   1.420  19.481  0.00  0.00    +0.000 F 
ENDBRANCH  20  23
ENDBRANCH  16  17
ENDBRANCH   3  16
TORSDOF 5
ENDMDL
MODEL 3
REMARK VINA RESULT:      -7.7      0.846      1.322
REMARK  Name = 
REMARK  6 active torsions:
REMARK  status: ('A' for Active; 'I' for Inactive)
REMARK    1  A    between atoms: C_1  and  C_2
REMARK    2  A    between atoms: C_3  and  C_4
REMARK    3  A    between atoms: C_4  and  C_5
REMARK    4  A    between atoms: C_8  and  C_9
REMARK    5  A    between atoms: C_17  and  C_18
REMARK    6  A    between atoms: N_20  and  C_21
REMARK                            x       y       z     vdW  Elec       q    Type
REMARK                         _______ _______ _______ _____ _____    ______ ____
ROOT
ATOM      1  C   UNL     1       5.111   6.716  15.810  0.00  0.00    +0.000 C 
ATOM      2  C   UNL     1       6.159   5.721  16.187  0.00  0.00    +0.000 A 
ATOM      3  C   UNL     1       6.550   5.375  17.533  0.00  0.00    +0.000 A 
ATOM      4  C   UNL     1       7.620   4.507  17.414  0.00  0.00    +0.000 A 
ATOM      5  N   UNL     1       7.871   4.302  16.088  0.00  0.00    +0.000 N 
ATOM      6  C   UNL     1       6.947   4.966  15.314  0.00  0.00    +0.000 A 
ATOM      7  H   UNL     1       8.604   3.716  15.706  0.00  0.00    +0.000 HD
ENDROOT
BRANCH   6   8
ATOM      8  C   UNL     1       6.958   4.809  13.868  0.00  0.00    +0.000 C 
ATOM      9  O   UNL     1       7.634   5.517  13.130  0.00  0.00    +0.000 OA
ATOM     10  N   UNL     1       6.221   3.744  13.399  0.00  0.00    +0.000 N 
ATOM     11  H   UNL     1       5.887   3.101  14.103  0.00  0.00    +0.000 HD
BRANCH  10  12
ATOM     12  C   UNL     1       6.262   3.300  11.991  0.00  0.00    +0.000 C 
ATOM     13  C   UNL     1       7.415   2.340  11.664  0.00  0.00    +0.000 C 
ATOM     14  O   UNL     1       6.515   1.472  10.927  0.00  0.00    +0.000 OA
ATOM     15  C   UNL     1       5.382   2.109  11.585  0.00  0.00    +0.000 C 
ENDBRANCH  10  12
ENDBRANCH   6   8
BRANCH   3  16
ATOM     16  C   UNL     1       5.979   5.877  18.830  0.00  0.00    +0.000 C 
BRANCH  16  17
ATOM     17  C   UNL     1       4.772   5.023  19.119  0.00  0.00    +0.000 A 
ATOM     18  C   UNL     1       4.890   3.708  19.576  0.00  0.00    +0.000 A 
ATOM     19  C   UNL     1       3.747   2.934  19.778  0.00  0.00    +0.000 A 
ATOM     20  C   UNL     1       2.493   3.487  19.516  0.00  0.00    +0.000 A 
ATOM     21  N   UNL     1       2.357   4.784  19.112  0.00  0.00    +0.000 NA
ATOM     22  C   UNL     1       3.484   5.509  18.927  0.00  0.00    +0.000 A 
BRANCH  20  23
ATOM     23  C   UNL     1       1.243   2.623  19.640  0.00  0.00    +0.000 C 
ATOM     24  F   UNL     1       0.262   2.962  18.750  0.00  0.00    +0.000 F 
ATOM     25  F   UNL     1       1.477   1.296  19.431  0.00  0.00    +0.000 F 
ATOM     26  F   UNL     1       0.656   2.712  20.869  0.00  0.00    +0.000 F 
ENDBRANCH  20  23
ENDBRANCH  16  17
ENDBRANCH   3  16
TORSDOF 5
ENDMDL
MODEL 4
REMARK VINA RESULT:      -7.2      3.833      6.000
REMARK  Name = 
REMARK  6 active torsions:
REMARK  status: ('A' for Active; 'I' for Inactive)
REMARK    1  A    between atoms: C_1  and  C_2
REMARK    2  A    between atoms: C_3  and  C_4
REMARK    3  A    between atoms: C_4  and  C_5
REMARK    4  A    between atoms: C_8  and  C_9
REMARK    5  A    between atoms: C_17  and  C_18
REMARK    6  A    between atoms: N_20  and  C_21
REMARK                            x       y       z     vdW  Elec       q    Type
REMARK                         _______ _______ _______ _____ _____    ______ ____
ROOT
ATOM      1  C   UNL     1       5.955   7.168  16.305  0.00  0.00    +0.000 C 
ATOM      2  C   UNL     1       6.867   6.689  17.386  0.00  0.00    +0.000 A 
ATOM      3  C   UNL     1       6.973   5.330  17.860  0.00  0.00    +0.000 A 
ATOM      4  C   UNL     1       7.846   5.361  18.933  0.00  0.00    +0.000 A 
ATOM      5  N   UNL     1       8.277   6.644  19.108  0.00  0.00    +0.000 N 
ATOM      6  C   UNL     1       7.760   7.464  18.131  0.00  0.00    +0.000 A 
ATOM      7  H   UNL     1       8.919   6.962  19.824  0.00  0.00    +0.000 HD
ENDROOT
BRANCH   6   8
ATOM      8  C   UNL     1       8.166   8.859  18.058  0.00  0.00    +0.000 C 
ATOM      9  O   UNL     1       7.779   9.617  17.176  0.00  0.00    +0.000 OA
ATOM     10  N   UNL     1       8.945   9.288  19.110  0.00  0.00    +0.000 N 
ATOM     11  H   UNL     1       9.020   8.646  19.888  0.00  0.00    +0.000 HD
BRANCH  10  12
ATOM     12  C   UNL     1       9.295  10.706  19.322  0.00  0.00    +0.000 C 
ATOM     13  C   UNL     1       9.422  11.113  20.798  0.00  0.00    +0.000 C 
ATOM     14  O   UNL     1      10.654  11.828  20.519  0.00  0.00    +0.000 OA
ATOM     15  C   UNL     1      10.778  11.100  19.263  0.00  0.00    +0.000 C 
ENDBRANCH  10  12
ENDBRANCH   6   8
BRANCH   3  16
ATOM     16  C   UNL     1       6.255   4.108  17.360  0.00  0.00    +0.000 C 
BRANCH  16  17
ATOM     17  C   UNL     1       4.949   4.047  18.108  0.00  0.00    +0.000 A 
ATOM     18  C   UNL     1       3.815   4.736  17.670  0.00  0.00    +0.000 A 
ATOM     19  C   UNL     1       2.642   4.698  18.424  0.00  0.00    +0.000 A 
ATOM     20  C   UNL     1       2.617   3.971  19.615  0.00  0.00    +0.000 A 
ATOM     21  N   UNL     1       3.702   3.256  20.035  0.00  0.00    +0.000 NA
ATOM     22  C   UNL     1       4.825   3.311  19.281  0.00  0.00    +0.000 A 
BRANCH  20  23
ATOM     23  C   UNL     1       1.373   3.999  20.496  0.00  0.00    +0.000 C 
ATOM     24  F   UNL     1       0.895   5.262  20.714  0.00  0.00    +0.000 F 
ATOM     25  F   UNL     1       0.324   3.300  19.976  0.00  0.00    +0.000 F 
ATOM     26  F   UNL     1       1.592   3.481  21.740  0.00  0.00    +0.000 F 
ENDBRANCH  20  23
ENDBRANCH  16  17
ENDBRANCH   3  16
TORSDOF 5
ENDMDL
MODEL 5
REMARK VINA RESULT:      -7.2      3.498      5.609
REMARK  Name = 
REMARK  6 active torsions:
REMARK  status: ('A' for Active; 'I' for Inactive)
REMARK    1  A    between atoms: C_1  and  C_2
REMARK    2  A    between atoms: C_3  and  C_4
REMARK    3  A    between atoms: C_4  and  C_5
REMARK    4  A    between atoms: C_8  and  C_9
REMARK    5  A    between atoms: C_17  and  C_18
REMARK    6  A    between atoms: N_20  and  C_21
REMARK                            x       y       z     vdW  Elec       q    Type
REMARK                         _______ _______ _______ _____ _____    ______ ____
ROOT
ATOM      1  C   UNL     1       7.635   4.609  17.834  0.00  0.00    +0.000 C 
ATOM      2  C   UNL     1       6.750   5.691  17.308  0.00  0.00    +0.000 A 
ATOM      3  C   UNL     1       5.522   5.496  16.575  0.00  0.00    +0.000 A 
ATOM      4  C   UNL     1       5.096   6.755  16.191  0.00  0.00    +0.000 A 
ATOM      5  N   UNL     1       5.980   7.679  16.667  0.00  0.00    +0.000 N 
ATOM      6  C   UNL     1       6.957   7.069  17.420  0.00  0.00    +0.000 A 
ATOM      7  H   UNL     1       5.923   8.682  16.531  0.00  0.00    +0.000 HD
ENDROOT
BRANCH   6   8
ATOM      8  C   UNL     1       7.953   7.871  18.114  0.00  0.00    +0.000 C 
ATOM      9  O   UNL     1       8.733   7.398  18.933  0.00  0.00    +0.000 OA
ATOM     10  N   UNL     1       8.014   9.187  17.711  0.00  0.00    +0.000 N 
ATOM     11  H   UNL     1       7.482   9.416  16.882  0.00  0.00    +0.000 HD
BRANCH  10  12
ATOM     12  C   UNL     1       9.080  10.110  18.149  0.00  0.00    +0.000 C 
ATOM     13  C   UNL     1       8.771  11.595  17.906  0.00  0.00    +0.000 C 
ATOM     14  O   UNL     1       9.229  11.934  19.240  0.00  0.00    +0.000 OA
ATOM     15  C   UNL     1       9.105  10.534  19.625  0.00  0.00    +0.000 C 
ENDBRANCH  10  12
ENDBRANCH   6   8
BRANCH   3  16
ATOM     16  C   UNL     1       4.839   4.204  16.225  0.00  0.00    +0.000 C 
BRANCH  16  17
ATOM     17  C   UNL     1       3.949   3.866  17.392  0.00  0.00    +0.000 A 
ATOM     18  C   UNL     1       2.653   4.377  17.506  0.00  0.00    +0.000 A 
ATOM     19  C   UNL     1       1.884   4.083  18.632  0.00  0.00    +0.000 A 
ATOM     20  C   UNL     1       2.422   3.279  19.637  0.00  0.00    +0.000 A 
ATOM     21  N   UNL     1       3.669   2.735  19.522  0.00  0.00    +0.000 NA
ATOM     22  C   UNL     1       4.391   3.037  18.417  0.00  0.00    +0.000 A 
BRANCH  20  23
ATOM     23  C   UNL     1       1.629   3.029  20.915  0.00  0.00    +0.000 C 
ATOM     24  F   UNL     1       1.556   4.127  21.728  0.00  0.00    +0.000 F 
ATOM     25  F   UNL     1       0.336   2.662  20.688  0.00  0.00    +0.000 F 
ATOM     26  F   UNL     1       2.170   2.045  21.691  0.00  0.00    +0.000 F 
ENDBRANCH  20  23
ENDBRANCH  16  17
ENDBRANCH   3  16
TORSDOF 5
ENDMDL
MODEL 6
REMARK VINA RESULT:      -7.0      3.592      5.648
REMARK  Name = 
REMARK  6 active torsions:
REMARK  status: ('A' for Active; 'I' for Inactive)
REMARK    1  A    between atoms: C_1  and  C_2
REMARK    2  A    between atoms: C_3  and  C_4
REMARK    3  A    between atoms: C_4  and  C_5
REMARK    4  A    between atoms: C_8  and  C_9
REMARK    5  A    between atoms: C_17  and  C_18
REMARK    6  A    between atoms: N_20  and  C_21
REMARK                            x       y       z     vdW  Elec       q    Type
REMARK                         _______ _______ _______ _____ _____    ______ ____
ROOT
ATOM      1  C   UNL     1       7.861   4.668  17.962  0.00  0.00    +0.000 C 
ATOM      2  C   UNL     1       6.983   5.719  17.368  0.00  0.00    +0.000 A 
ATOM      3  C   UNL     1       5.804   5.481  16.569  0.00  0.00    +0.000 A 
ATOM      4  C   UNL     1       5.371   6.723  16.139  0.00  0.00    +0.000 A 
ATOM      5  N   UNL     1       6.205   7.676  16.648  0.00  0.00    +0.000 N 
ATOM      6  C   UNL     1       7.151   7.103  17.467  0.00  0.00    +0.000 A 
ATOM      7  H   UNL     1       6.131   8.675  16.492  0.00  0.00    +0.000 HD
ENDROOT
BRANCH   6   8
ATOM      8  C   UNL     1       8.085   7.941  18.202  0.00  0.00    +0.000 C 
ATOM      9  O   UNL     1       8.804   7.506  19.095  0.00  0.00    +0.000 OA
ATOM     10  N   UNL     1       8.167   9.241  17.755  0.00  0.00    +0.000 N 
ATOM     11  H   UNL     1       7.698   9.432  16.880  0.00  0.00    +0.000 HD
BRANCH  10  12
ATOM     12  C   UNL     1       9.191  10.190  18.236  0.00  0.00    +0.000 C 
ATOM     13  C   UNL     1       8.882  11.663  17.927  0.00  0.00    +0.000 C 
ATOM     14  O   UNL     1       9.245  12.047  19.279  0.00  0.00    +0.000 OA
ATOM     15  C   UNL     1       9.111  10.657  19.697  0.00  0.00    +0.000 C 
ENDBRANCH  10  12
ENDBRANCH   6   8
BRANCH   3  16
ATOM     16  C   UNL     1       5.172   4.167  16.204  0.00  0.00    +0.000 C 
BRANCH  16  17
ATOM     17  C   UNL     1       4.086   3.923  17.218  0.00  0.00    +0.000 A 
ATOM     18  C   UNL     1       4.302   4.096  18.588  0.00  0.00    +0.000 A 
ATOM     19  C   UNL     1       3.285   3.804  19.497  0.00  0.00    +0.000 A 
ATOM     20  C   UNL     1       2.058   3.337  19.023  0.00  0.00    +0.000 A 
ATOM     21  N   UNL     1       1.815   3.205  17.686  0.00  0.00    +0.000 NA
ATOM     22  C   UNL     1       2.821   3.498  16.829  0.00  0.00    +0.000 A 
BRANCH  20  23
ATOM     23  C   UNL     1       0.971   2.924  20.009  0.00  0.00    +0.000 C 
ATOM     24  F   UNL     1      -0.089   2.298  19.413  0.00  0.00    +0.000 F 
ATOM     25  F   UNL     1       1.409   2.058  20.967  0.00  0.00    +0.000 F 
ATOM     26  F   UNL     1       0.430   3.984  20.678  0.00  0.00    +0.000 F 
ENDBRANCH  20  23
ENDBRANCH  16  17
ENDBRANCH   3  16
TORSDOF 5
ENDMDL
MODEL 7
REMARK VINA RESULT:      -7.0      5.037      7.930
REMARK  Name = 
REMARK  6 active torsions:
REMARK  status: ('A' for Active; 'I' for Inactive)
REMARK    1  A    between atoms: C_1  and  C_2
REMARK    2  A    between atoms: C_3  and  C_4
REMARK    3  A    between atoms: C_4  and  C_5
REMARK    4  A    between atoms: C_8  and  C_9
REMARK    5  A    between atoms: C_17  and  C_18
REMARK    6  A    between atoms: N_20  and  C_21
REMARK                            x       y       z     vdW  Elec       q    Type
REMARK                         _______ _______ _______ _____ _____    ______ ____
ROOT
ATOM      1  C   UNL     1       5.137   7.245  17.033  0.00  0.00    +0.000 C 
ATOM      2  C   UNL     1       4.794   6.221  18.064  0.00  0.00    +0.000 A 
ATOM      3  C   UNL     1       5.596   5.071  18.410  0.00  0.00    +0.000 A 
ATOM      4  C   UNL     1       4.852   4.341  19.321  0.00  0.00    +0.000 A 
ATOM      5  N   UNL     1       3.676   4.995  19.548  0.00  0.00    +0.000 N 
ATOM      6  C   UNL     1       3.645   6.185  18.857  0.00  0.00    +0.000 A 
ATOM      7  H   UNL     1       2.935   4.686  20.166  0.00  0.00    +0.000 HD
ENDROOT
BRANCH   6   8
ATOM      8  C   UNL     1       2.527   7.100  19.029  0.00  0.00    +0.000 C 
ATOM      9  O   UNL     1       1.825   7.472  18.096  0.00  0.00    +0.000 OA
ATOM     10  N   UNL     1       2.260   7.444  20.336  0.00  0.00    +0.000 N 
ATOM     11  H   UNL     1       2.757   6.912  21.038  0.00  0.00    +0.000 HD
BRANCH  10  12
ATOM     12  C   UNL     1       1.056   8.199  20.736  0.00  0.00    +0.000 C 
ATOM     13  C   UNL     1       1.184   8.926  22.083  0.00  0.00    +0.000 C 
ATOM     14  O   UNL     1       0.598  10.127  21.518  0.00  0.00    +0.000 OA
ATOM     15  C   UNL     1       0.879   9.620  20.181  0.00  0.00    +0.000 C 
ENDBRANCH  10  12
ENDBRANCH   6   8
BRANCH   3  16
ATOM     16  C   UNL     1       6.943   4.675  17.874  0.00  0.00    +0.000 C 
BRANCH  16  17
ATOM     17  C   UNL     1       6.770   4.492  16.389  0.00  0.00    +0.000 A 
ATOM     18  C   UNL     1       5.786   3.654  15.858  0.00  0.00    +0.000 A 
ATOM     19  C   UNL     1       5.697   3.469  14.478  0.00  0.00    +0.000 A 
ATOM     20  C   UNL     1       6.601   4.126  13.641  0.00  0.00    +0.000 A 
ATOM     21  N   UNL     1       7.540   4.982  14.140  0.00  0.00    +0.000 NA
ATOM     22  C   UNL     1       7.600   5.142  15.482  0.00  0.00    +0.000 A 
BRANCH  20  23
ATOM     23  C   UNL     1       6.576   3.858  12.140  0.00  0.00    +0.000 C 
ATOM     24  F   UNL     1       7.142   2.661  11.796  0.00  0.00    +0.000 F 
ATOM     25  F   UNL     1       5.318   3.827  11.615  0.00  0.00    +0.000 F 
ATOM     26  F   UNL     1       7.261   4.796  11.423  0.00  0.00    +0.000 F 
ENDBRANCH  20  23
ENDBRANCH  16  17
ENDBRANCH   3  16
TORSDOF 5
ENDMDL
MODEL 8
REMARK VINA RESULT:      -7.0      6.796      8.648
REMARK  Name = 
REMARK  6 active torsions:
REMARK  status: ('A' for Active; 'I' for Inactive)
REMARK    1  A    between atoms: C_1  and  C_2
REMARK    2  A    between atoms: C_3  and  C_4
REMARK    3  A    between atoms: C_4  and  C_5
REMARK    4  A    between atoms: C_8  and  C_9
REMARK    5  A    between atoms: C_17  and  C_18
REMARK    6  A    between atoms: N_20  and  C_21
REMARK                            x       y       z     vdW  Elec       q    Type
REMARK                         _______ _______ _______ _____ _____    ______ ____
ROOT
ATOM      1  C   UNL     1       2.197   8.545  17.888  0.00  0.00    +0.000 C 
ATOM      2  C   UNL     1       1.699   8.652  19.292  0.00  0.00    +0.000 A 
ATOM      3  C   UNL     1       1.088   9.818  19.885  0.00  0.00    +0.000 A 
ATOM      4  C   UNL     1       0.886   9.513  21.219  0.00  0.00    +0.000 A 
ATOM      5  N   UNL     1       1.317   8.238  21.446  0.00  0.00    +0.000 N 
ATOM      6  C   UNL     1       1.745   7.658  20.273  0.00  0.00    +0.000 A 
ATOM      7  H   UNL     1       1.297   7.754  22.335  0.00  0.00    +0.000 HD
ENDROOT
BRANCH   6   8
ATOM      8  C   UNL     1       2.154   6.262  20.256  0.00  0.00    +0.000 C 
ATOM      9  O   UNL     1       1.411   5.349  20.595  0.00  0.00    +0.000 OA
ATOM     10  N   UNL     1       3.412   6.038  19.742  0.00  0.00    +0.000 N 
ATOM     11  H   UNL     1       3.848   6.831  19.291  0.00  0.00    +0.000 HD
BRANCH  10  12
ATOM     12  C   UNL     1       3.932   4.685  19.458  0.00  0.00    +0.000 C 
ATOM     13  C   UNL     1       3.637   4.179  18.039  0.00  0.00    +0.000 C 
ATOM     14  O   UNL     1       5.003   3.708  17.897  0.00  0.00    +0.000 OA
ATOM     15  C   UNL     1       5.397   4.554  19.016  0.00  0.00    +0.000 C 
ENDBRANCH  10  12
ENDBRANCH   6   8
BRANCH   3  16
ATOM     16  C   UNL     1       0.772  11.138  19.238  0.00  0.00    +0.000 C 
BRANCH  16  17
ATOM     17  C   UNL     1      -0.686  11.089  18.867  0.00  0.00    +0.000 A 
ATOM     18  C   UNL     1      -1.170  10.220  17.885  0.00  0.00    +0.000 A 
ATOM     19  C   UNL     1      -2.519  10.247  17.532  0.00  0.00    +0.000 A 
ATOM     20  C   UNL     1      -3.373  11.149  18.167  0.00  0.00    +0.000 A 
ATOM     21  N   UNL     1      -2.927  11.974  19.159  0.00  0.00    +0.000 NA
ATOM     22  C   UNL     1      -1.614  11.923  19.480  0.00  0.00    +0.000 A 
BRANCH  20  23
ATOM     23  C   UNL     1      -4.829  11.256  17.724  0.00  0.00    +0.000 C 
ATOM     24  F   UNL     1      -5.653  10.370  18.361  0.00  0.00    +0.000 F 
ATOM     25  F   UNL     1      -5.376  12.485  17.950  0.00  0.00    +0.000 F 
ATOM     26  F   UNL     1      -4.998  11.008  16.392  0.00  0.00    +0.000 F 
ENDBRANCH  20  23
ENDBRANCH  16  17
ENDBRANCH   3  16
TORSDOF 5
ENDMDL
MODEL 9
REMARK VINA RESULT:      -7.0      6.952      9.057
REMARK  Name = 
REMARK  6 active torsions:
REMARK  status: ('A' for Active; 'I' for Inactive)
REMARK    1  A    between atoms: C_1  and  C_2
REMARK    2  A    between atoms: C_3  and  C_4
REMARK    3  A    between atoms: C_4  and  C_5
REMARK    4  A    between atoms: C_8  and  C_9
REMARK    5  A    between atoms: C_17  and  C_18
REMARK    6  A    between atoms: N_20  and  C_21
REMARK                            x       y       z     vdW  Elec       q    Type
REMARK                         _______ _______ _______ _____ _____    ______ ____
ROOT
ATOM      1  C   UNL     1       2.235   9.039  17.769  0.00  0.00    +0.000 C 
ATOM      2  C   UNL     1       1.750   8.891  19.174  0.00  0.00    +0.000 A 
ATOM      3  C   UNL     1       1.080   9.910  19.947  0.00  0.00    +0.000 A 
ATOM      4  C   UNL     1       0.914   9.386  21.216  0.00  0.00    +0.000 A 
ATOM      5  N   UNL     1       1.423   8.120  21.236  0.00  0.00    +0.000 N 
ATOM      6  C   UNL     1       1.869   7.760  19.985  0.00  0.00    +0.000 A 
ATOM      7  H   UNL     1       1.444   7.501  22.038  0.00  0.00    +0.000 HD
ENDROOT
BRANCH   6   8
ATOM      8  C   UNL     1       2.361   6.412  19.745  0.00  0.00    +0.000 C 
ATOM      9  O   UNL     1       3.392   6.183  19.123  0.00  0.00    +0.000 OA
ATOM     10  N   UNL     1       1.627   5.415  20.350  0.00  0.00    +0.000 N 
ATOM     11  H   UNL     1       0.932   5.727  21.015  0.00  0.00    +0.000 HD
BRANCH  10  12
ATOM     12  C   UNL     1       2.070   4.007  20.391  0.00  0.00    +0.000 C 
ATOM     13  C   UNL     1       2.233   3.436  21.808  0.00  0.00    +0.000 C 
ATOM     14  O   UNL     1       1.537   2.221  21.424  0.00  0.00    +0.000 OA
ATOM     15  C   UNL     1       1.002   2.911  20.256  0.00  0.00    +0.000 C 
ENDBRANCH  10  12
ENDBRANCH   6   8
BRANCH   3  16
ATOM     16  C   UNL     1       0.677  11.293  19.518  0.00  0.00    +0.000 C 
BRANCH  16  17
ATOM     17  C   UNL     1      -0.757  11.197  19.069  0.00  0.00    +0.000 A 
ATOM     18  C   UNL     1      -1.158  10.312  18.065  0.00  0.00    +0.000 A 
ATOM     19  C   UNL     1      -2.487  10.295  17.640  0.00  0.00    +0.000 A 
ATOM     20  C   UNL     1      -3.403  11.170  18.225  0.00  0.00    +0.000 A 
ATOM     21  N   UNL     1      -3.038  12.010  19.237  0.00  0.00    +0.000 NA
ATOM     22  C   UNL     1      -1.743  12.002  19.629  0.00  0.00    +0.000 A 
BRANCH  20  23
ATOM     23  C   UNL     1      -4.835  11.230  17.704  0.00  0.00    +0.000 C 
ATOM     24  F   UNL     1      -5.405  12.466  17.833  0.00  0.00    +0.000 F 
ATOM     25  F   UNL     1      -4.944  10.918  16.381  0.00  0.00    +0.000 F 
ATOM     26  F   UNL     1      -5.675  10.379  18.362  0.00  0.00    +0.000 F 
ENDBRANCH  20  23
ENDBRANCH  16  17
ENDBRANCH   3  16
TORSDOF 5
ENDMDL
