MODEL 1
REMARK VINA RESULT:      -8.5      0.000      0.000
REMARK  Name = 
REMARK  5 active torsions:
REMARK  status: ('A' for Active; 'I' for Inactive)
REMARK    1  A    between atoms: C_1  and  O_2
REMARK    2  A    between atoms: O_2  and  C_3
REMARK    3  A    between atoms: C_8  and  N_9
REMARK    4  A    between atoms: C_13  and  C_15
REMARK    5  A    between atoms: C_18  and  N_19
REMARK                            x       y       z     vdW  Elec       q    Type
REMARK                         _______ _______ _______ _____ _____    ______ ____
ROOT
ATOM      1  N   UNL     1       1.227  13.563  19.324  0.00  0.00    +0.000 N 
ATOM      2  C   UNL     1       0.402  12.518  19.974  0.00  0.00    +0.000 C 
ATOM      3  C   UNL     1       0.315  11.110  19.004  0.00  0.00    +0.000 C 
ATOM      4  N   UNL     1       1.714  10.466  18.372  0.00  0.00    +0.000 N 
ATOM      5  C   UNL     1       1.871   8.862  17.764  0.00  0.00    +0.000 C 
ATOM      6  O   UNL     1       0.780   8.259  17.869  0.00  0.00    +0.000 OA
ATOM      7  C   UNL     1       2.482  11.656  17.873  0.00  0.00    +0.000 C 
ATOM      8  C   UNL     1       2.536  12.986  18.858  0.00  0.00    +0.000 C 
ENDROOT
BRANCH   5   9
ATOM      9  C   UNL     1       3.353   7.757  17.655  0.00  0.00    +0.000 A 
ATOM     10  C   UNL     1       2.929   7.128  18.822  0.00  0.00    +0.000 A 
ATOM     11  N   UNL     1       3.411   6.009  19.388  0.00  0.00    +0.000 NA
ATOM     12  C   UNL     1       3.998   5.266  18.501  0.00  0.00    +0.000 A 
ATOM     13  C   UNL     1       4.993   6.041  17.840  0.00  0.00    +0.000 A 
ATOM     14  C   UNL     1       6.444   6.418  17.950  0.00  0.00    +0.000 A 
ATOM     15  C   UNL     1       7.393   5.870  17.073  0.00  0.00    +0.000 A 
ATOM     16  C   UNL     1       6.817   5.012  16.210  0.00  0.00    +0.000 A 
ATOM     17  C   UNL     1       5.360   5.326  16.014  0.00  0.00    +0.000 A 
ATOM     18  C   UNL     1       4.356   6.536  16.828  0.00  0.00    +0.000 A 
BRANCH  12  19
ATOM     19  N   UNL     1       3.103   4.427  17.687  0.00  0.00    +0.000 N 
ATOM     20  C   UNL     1       1.578   4.327  17.749  0.00  0.00    +0.000 C 
ATOM     21  C   UNL     1       1.065   3.301  18.782  0.00  0.00    +0.000 C 
ATOM     22  O   UNL     1       1.700   2.028  18.587  0.00  0.00    +0.000 OA
ATOM     23  C   UNL     1       3.127   2.186  18.687  0.00  0.00    +0.000 C 
ATOM     24  C   UNL     1       3.676   3.088  17.575  0.00  0.00    +0.000 C 
ENDBRANCH  12  19
ENDBRANCH   5   9
BRANCH   1  30
ATOM     25  C   UNL     1       1.694  15.950  19.932  0.00  0.00    +0.000 A 
ATOM     26  C   UNL     1       1.406  17.348  19.905  0.00  0.00    +0.000 A 
ATOM     27  C   UNL     1       0.286  17.840  19.258  0.00  0.00    +0.000 A 
ATOM     28  C   UNL     1      -0.516  16.926  18.588  0.00  0.00    +0.000 A 
ATOM     29  C   UNL     1      -0.206  15.517  18.588  0.00  0.00    +0.000 A 
ATOM     30  C   UNL     1       0.906  14.951  19.281  0.00  0.00    +0.000 A 
BRANCH  25  32
ATOM     31  C   UNL     1       2.474  15.409  22.048  0.00  0.00    +0.000 C 
ATOM     32  O   UNL     1       2.802  15.682  20.702  0.00  0.00    +0.000 OA
ENDBRANCH  25  32
ENDBRANCH   1  30
TORSDOF 4
ENDMDL
MODEL 2
REMARK VINA RESULT:      -8.4      3.125     10.042
REMARK  Name = 
REMARK  5 active torsions:
REMARK  status: ('A' for Active; 'I' for Inactive)
REMARK    1  A    between atoms: C_1  and  O_2
REMARK    2  A    between atoms: O_2  and  C_3
REMARK    3  A    between atoms: C_8  and  N_9
REMARK    4  A    between atoms: C_13  and  C_15
REMARK    5  A    between atoms: C_18  and  N_19
REMARK                            x       y       z     vdW  Elec       q    Type
REMARK                         _______ _______ _______ _____ _____    ______ ____
ROOT
ATOM      1  N   UNL     1       2.559   6.805  18.528  0.00  0.00    +0.000 N 
ATOM      2  C   UNL     1       2.046   6.432  19.868  0.00  0.00    +0.000 C 
ATOM      3  C   UNL     1       1.912   7.806  20.879  0.00  0.00    +0.000 C 
ATOM      4  N   UNL     1       1.155   9.173  20.304  0.00  0.00    +0.000 N 
ATOM      5  C   UNL     1       0.552  10.451  21.289  0.00  0.00    +0.000 C 
ATOM      6  O   UNL     1       0.769  10.198  22.494  0.00  0.00    +0.000 OA
ATOM      7  C   UNL     1       1.687   9.336  18.910  0.00  0.00    +0.000 C 
ATOM      8  C   UNL     1       1.788   7.972  17.976  0.00  0.00    +0.000 C 
ENDROOT
BRANCH   5   9
ATOM      9  C   UNL     1      -0.828  11.651  20.991  0.00  0.00    +0.000 A 
ATOM     10  C   UNL     1      -0.402  11.761  19.671  0.00  0.00    +0.000 A 
ATOM     11  N   UNL     1      -1.017  12.375  18.645  0.00  0.00    +0.000 NA
ATOM     12  C   UNL     1      -2.294  12.449  18.859  0.00  0.00    +0.000 A 
ATOM     13  C   UNL     1      -2.514  13.084  20.114  0.00  0.00    +0.000 A 
ATOM     14  C   UNL     1      -2.706  14.448  20.715  0.00  0.00    +0.000 A 
ATOM     15  C   UNL     1      -3.971  14.861  21.161  0.00  0.00    +0.000 A 
ATOM     16  C   UNL     1      -4.894  13.904  20.952  0.00  0.00    +0.000 A 
ATOM     17  C   UNL     1      -4.267  12.539  20.895  0.00  0.00    +0.000 A 
ATOM     18  C   UNL     1      -2.555  12.091  20.943  0.00  0.00    +0.000 A 
BRANCH  12  19
ATOM     19  N   UNL     1      -3.059  11.232  18.543  0.00  0.00    +0.000 N 
ATOM     20  C   UNL     1      -2.537   9.888  18.028  0.00  0.00    +0.000 C 
ATOM     21  C   UNL     1      -2.416   9.819  16.491  0.00  0.00    +0.000 C 
ATOM     22  O   UNL     1      -3.649  10.214  15.868  0.00  0.00    +0.000 OA
ATOM     23  C   UNL     1      -3.994  11.544  16.295  0.00  0.00    +0.000 C 
ATOM     24  C   UNL     1      -4.263  11.603  17.803  0.00  0.00    +0.000 C 
ENDBRANCH  12  19
ENDBRANCH   5   9
BRANCH   1  30
ATOM     25  C   UNL     1       3.361   4.700  17.427  0.00  0.00    +0.000 A 
ATOM     26  C   UNL     1       4.313   3.937  16.685  0.00  0.00    +0.000 A 
ATOM     27  C   UNL     1       5.522   4.482  16.289  0.00  0.00    +0.000 A 
ATOM     28  C   UNL     1       5.748   5.818  16.594  0.00  0.00    +0.000 A 
ATOM     29  C   UNL     1       4.772   6.597  17.316  0.00  0.00    +0.000 A 
ATOM     30  C   UNL     1       3.534   6.071  17.791  0.00  0.00    +0.000 A 
BRANCH  25  32
ATOM     31  C   UNL     1       2.562   2.550  17.777  0.00  0.00    +0.000 C 
ATOM     32  O   UNL     1       2.276   3.934  17.786  0.00  0.00    +0.000 OA
ENDBRANCH  25  32
ENDBRANCH   1  30
TORSDOF 4
ENDMDL
MODEL 3
REMARK VINA RESULT:      -8.3      2.370      9.916
REMARK  Name = 
REMARK  5 active torsions:
REMARK  status: ('A' for Active; 'I' for Inactive)
REMARK    1  A    between atoms: C_1  and  O_2
REMARK    2  A    between atoms: O_2  and  C_3
REMARK    3  A    between atoms: C_8  and  N_9
REMARK    4  A    between atoms: C_13  and  C_15
REMARK    5  A    between atoms: C_18  and  N_19
REMARK                            x       y       z     vdW  Elec       q    Type
REMARK                         _______ _______ _______ _____ _____    ______ ____
ROOT
ATOM      1  N   UNL     1       3.514   6.009  17.723  0.00  0.00    +0.000 N 
ATOM      2  C   UNL     1       2.754   5.286  18.770  0.00  0.00    +0.000 C 
ATOM      3  C   UNL     1       2.465   6.292  20.125  0.00  0.00    +0.000 C 
ATOM      4  N   UNL     1       1.858   7.824  19.891  0.00  0.00    +0.000 N 
ATOM      5  C   UNL     1       1.112   8.783  21.111  0.00  0.00    +0.000 C 
ATOM      6  O   UNL     1       1.096   8.157  22.193  0.00  0.00    +0.000 OA
ATOM      7  C   UNL     1       2.643   8.363  18.730  0.00  0.00    +0.000 C 
ATOM      8  C   UNL     1       2.885   7.346  17.445  0.00  0.00    +0.000 C 
ENDROOT
BRANCH   5   9
ATOM      9  C   UNL     1      -0.162  10.122  20.977  0.00  0.00    +0.000 A 
ATOM     10  C   UNL     1       0.805  11.036  21.382  0.00  0.00    +0.000 A 
ATOM     11  N   UNL     1       0.730  12.378  21.396  0.00  0.00    +0.000 NA
ATOM     12  C   UNL     1      -0.148  12.793  20.535  0.00  0.00    +0.000 A 
ATOM     13  C   UNL     1      -1.391  12.153  20.801  0.00  0.00    +0.000 A 
ATOM     14  C   UNL     1      -2.645  12.327  21.611  0.00  0.00    +0.000 A 
ATOM     15  C   UNL     1      -3.850  12.693  20.993  0.00  0.00    +0.000 A 
ATOM     16  C   UNL     1      -3.683  12.860  19.668  0.00  0.00    +0.000 A 
ATOM     17  C   UNL     1      -2.516  12.063  19.156  0.00  0.00    +0.000 A 
ATOM     18  C   UNL     1      -1.341  11.094  20.058  0.00  0.00    +0.000 A 
BRANCH  12  19
ATOM     19  N   UNL     1       0.322  12.869  19.142  0.00  0.00    +0.000 N 
ATOM     20  C   UNL     1       1.636  12.353  18.553  0.00  0.00    +0.000 C 
ATOM     21  C   UNL     1       2.800  13.362  18.656  0.00  0.00    +0.000 C 
ATOM     22  O   UNL     1       2.411  14.637  18.121  0.00  0.00    +0.000 OA
ATOM     23  C   UNL     1       1.252  15.118  18.827  0.00  0.00    +0.000 C 
ATOM     24  C   UNL     1       0.041  14.202  18.615  0.00  0.00    +0.000 C 
ENDBRANCH  12  19
ENDBRANCH   5   9
BRANCH   1  30
ATOM     25  C   UNL     1       5.860   6.108  16.844  0.00  0.00    +0.000 A 
ATOM     26  C   UNL     1       6.962   5.585  16.102  0.00  0.00    +0.000 A 
ATOM     27  C   UNL     1       6.860   4.397  15.401  0.00  0.00    +0.000 A 
ATOM     28  C   UNL     1       5.660   3.704  15.494  0.00  0.00    +0.000 A 
ATOM     29  C   UNL     1       4.558   4.217  16.269  0.00  0.00    +0.000 A 
ATOM     30  C   UNL     1       4.592   5.460  16.969  0.00  0.00    +0.000 A 
BRANCH  25  32
ATOM     31  C   UNL     1       7.545   7.518  17.587  0.00  0.00    +0.000 C 
ATOM     32  O   UNL     1       6.159   7.337  17.385  0.00  0.00    +0.000 OA
ENDBRANCH  25  32
ENDBRANCH   1  30
TORSDOF 4
ENDMDL
MODEL 4
REMARK VINA RESULT:      -8.2      1.598      1.954
REMARK  Name = 
REMARK  5 active torsions:
REMARK  status: ('A' for Active; 'I' for Inactive)
REMARK    1  A    between atoms: C_1  and  O_2
REMARK    2  A    between atoms: O_2  and  C_3
REMARK    3  A    between atoms: C_8  and  N_9
REMARK    4  A    between atoms: C_13  and  C_15
REMARK    5  A    between atoms: C_18  and  N_19
REMARK                            x       y       z     vdW  Elec       q    Type
REMARK                         _______ _______ _______ _____ _____    ______ ____
ROOT
ATOM      1  N   UNL     1       0.037  12.564  20.890  0.00  0.00    +0.000 N 
ATOM      2  C   UNL     1      -0.811  11.351  20.824  0.00  0.00    +0.000 C 
ATOM      3  C   UNL     1      -0.509  10.466  19.390  0.00  0.00    +0.000 C 
ATOM      4  N   UNL     1       1.062  10.125  18.956  0.00  0.00    +0.000 N 
ATOM      5  C   UNL     1       1.529   8.911  17.829  0.00  0.00    +0.000 C 
ATOM      6  O   UNL     1       0.515   8.327  17.388  0.00  0.00    +0.000 OA
ATOM      7  C   UNL     1       1.803  11.409  19.198  0.00  0.00    +0.000 C 
ATOM      8  C   UNL     1       1.473  12.217  20.605  0.00  0.00    +0.000 C 
ENDROOT
BRANCH   5   9
ATOM      9  C   UNL     1       3.098   7.935  17.693  0.00  0.00    +0.000 A 
ATOM     10  C   UNL     1       2.724   7.237  18.837  0.00  0.00    +0.000 A 
ATOM     11  N   UNL     1       3.295   6.144  19.371  0.00  0.00    +0.000 NA
ATOM     12  C   UNL     1       3.943   5.481  18.464  0.00  0.00    +0.000 A 
ATOM     13  C   UNL     1       4.873   6.355  17.832  0.00  0.00    +0.000 A 
ATOM     14  C   UNL     1       6.287   6.846  17.962  0.00  0.00    +0.000 A 
ATOM     15  C   UNL     1       7.281   6.406  17.073  0.00  0.00    +0.000 A 
ATOM     16  C   UNL     1       6.779   5.531  16.181  0.00  0.00    +0.000 A 
ATOM     17  C   UNL     1       5.302   5.730  15.987  0.00  0.00    +0.000 A 
ATOM     18  C   UNL     1       4.200   6.827  16.834  0.00  0.00    +0.000 A 
BRANCH  12  19
ATOM     19  N   UNL     1       3.123   4.597  17.620  0.00  0.00    +0.000 N 
ATOM     20  C   UNL     1       1.610   4.371  17.669  0.00  0.00    +0.000 C 
ATOM     21  C   UNL     1       1.179   3.276  18.668  0.00  0.00    +0.000 C 
ATOM     22  O   UNL     1       1.917   2.064  18.438  0.00  0.00    +0.000 OA
ATOM     23  C   UNL     1       3.326   2.335  18.551  0.00  0.00    +0.000 C 
ATOM     24  C   UNL     1       3.803   3.313  17.470  0.00  0.00    +0.000 C 
ENDBRANCH  12  19
ENDBRANCH   5   9
BRANCH   1  30
ATOM     25  C   UNL     1      -0.573  14.950  20.421  0.00  0.00    +0.000 A 
ATOM     26  C   UNL     1      -1.019  16.248  20.814  0.00  0.00    +0.000 A 
ATOM     27  C   UNL     1      -1.289  16.548  22.138  0.00  0.00    +0.000 A 
ATOM     28  C   UNL     1      -1.164  15.518  23.061  0.00  0.00    +0.000 A 
ATOM     29  C   UNL     1      -0.744  14.199  22.659  0.00  0.00    +0.000 A 
ATOM     30  C   UNL     1      -0.404  13.850  21.318  0.00  0.00    +0.000 A 
BRANCH  25  32
ATOM     31  C   UNL     1       0.654  15.889  18.692  0.00  0.00    +0.000 C 
ATOM     32  O   UNL     1      -0.283  14.906  19.077  0.00  0.00    +0.000 OA
ENDBRANCH  25  32
ENDBRANCH   1  30
TORSDOF 4
ENDMDL
MODEL 5
REMARK VINA RESULT:      -8.1      2.260      2.953
REMARK  Name = 
REMARK  5 active torsions:
REMARK  status: ('A' for Active; 'I' for Inactive)
REMARK    1  A    between atoms: C_1  and  O_2
REMARK    2  A    between atoms: O_2  and  C_3
REMARK    3  A    between atoms: C_8  and  N_9
REMARK    4  A    between atoms: C_13  and  C_15
REMARK    5  A    between atoms: C_18  and  N_19
REMARK                            x       y       z     vdW  Elec       q    Type
REMARK                         _______ _______ _______ _____ _____    ______ ____
ROOT
ATOM      1  N   UNL     1      -0.608  10.924  21.515  0.00  0.00    +0.000 N 
ATOM      2  C   UNL     1      -1.301  10.202  20.422  0.00  0.00    +0.000 C 
ATOM      3  C   UNL     1      -0.271   9.999  19.070  0.00  0.00    +0.000 C 
ATOM      4  N   UNL     1       1.269   9.411  19.297  0.00  0.00    +0.000 N 
ATOM      5  C   UNL     1       2.260   8.744  18.056  0.00  0.00    +0.000 C 
ATOM      6  O   UNL     1       1.649   8.768  16.966  0.00  0.00    +0.000 OA
ATOM      7  C   UNL     1       1.777  10.148  20.503  0.00  0.00    +0.000 C 
ATOM      8  C   UNL     1       0.738  10.308  21.782  0.00  0.00    +0.000 C 
ENDROOT
BRANCH   5   9
ATOM      9  C   UNL     1       3.621   7.491  18.147  0.00  0.00    +0.000 A 
ATOM     10  C   UNL     1       2.941   6.877  19.195  0.00  0.00    +0.000 A 
ATOM     11  N   UNL     1       3.204   5.697  19.782  0.00  0.00    +0.000 NA
ATOM     12  C   UNL     1       3.859   4.922  18.972  0.00  0.00    +0.000 A 
ATOM     13  C   UNL     1       5.025   5.606  18.525  0.00  0.00    +0.000 A 
ATOM     14  C   UNL     1       6.465   5.823  18.896  0.00  0.00    +0.000 A 
ATOM     15  C   UNL     1       7.493   5.203  18.168  0.00  0.00    +0.000 A 
ATOM     16  C   UNL     1       6.991   4.437  17.181  0.00  0.00    +0.000 A 
ATOM     17  C   UNL     1       5.628   4.909  16.756  0.00  0.00    +0.000 A 
ATOM     18  C   UNL     1       4.625   6.195  17.445  0.00  0.00    +0.000 A 
BRANCH  12  19
ATOM     19  N   UNL     1       3.039   4.207  17.981  0.00  0.00    +0.000 N 
ATOM     20  C   UNL     1       1.522   4.261  17.785  0.00  0.00    +0.000 C 
ATOM     21  C   UNL     1       0.748   3.258  18.667  0.00  0.00    +0.000 C 
ATOM     22  O   UNL     1       1.283   1.933  18.514  0.00  0.00    +0.000 OA
ATOM     23  C   UNL     1       2.681   1.942  18.855  0.00  0.00    +0.000 C 
ATOM     24  C   UNL     1       3.492   2.821  17.896  0.00  0.00    +0.000 C 
ENDBRANCH  12  19
ENDBRANCH   5   9
BRANCH   1  30
ATOM     25  C   UNL     1      -0.575  13.232  22.494  0.00  0.00    +0.000 A 
ATOM     26  C   UNL     1      -1.130  14.287  23.280  0.00  0.00    +0.000 A 
ATOM     27  C   UNL     1      -2.317  14.122  23.973  0.00  0.00    +0.000 A 
ATOM     28  C   UNL     1      -2.975  12.908  23.827  0.00  0.00    +0.000 A 
ATOM     29  C   UNL     1      -2.431  11.855  23.007  0.00  0.00    +0.000 A 
ATOM     30  C   UNL     1      -1.187  11.953  22.313  0.00  0.00    +0.000 A 
BRANCH  25  32
ATOM     31  C   UNL     1       0.862  14.983  21.998  0.00  0.00    +0.000 C 
ATOM     32  O   UNL     1       0.646  13.588  21.970  0.00  0.00    +0.000 OA
ENDBRANCH  25  32
ENDBRANCH   1  30
TORSDOF 4
ENDMDL
MODEL 6
REMARK VINA RESULT:      -8.1      1.983      2.230
REMARK  Name = 
REMARK  5 active torsions:
REMARK  status: ('A' for Active; 'I' for Inactive)
REMARK    1  A    between atoms: C_1  and  O_2
REMARK    2  A    between atoms: O_2  and  C_3
REMARK    3  A    between atoms: C_8  and  N_9
REMARK    4  A    between atoms: C_13  and  C_15
REMARK    5  A    between atoms: C_18  and  N_19
REMARK                            x       y       z     vdW  Elec       q    Type
REMARK                         _______ _______ _______ _____ _____    ______ ____
ROOT
ATOM      1  N   UNL     1       0.017  12.522  20.844  0.00  0.00    +0.000 N 
ATOM      2  C   UNL     1      -0.825  11.304  20.782  0.00  0.00    +0.000 C 
ATOM      3  C   UNL     1      -0.514  10.414  19.353  0.00  0.00    +0.000 C 
ATOM      4  N   UNL     1       1.060  10.078  18.926  0.00  0.00    +0.000 N 
ATOM      5  C   UNL     1       1.536   8.861  17.806  0.00  0.00    +0.000 C 
ATOM      6  O   UNL     1       0.526   8.270  17.365  0.00  0.00    +0.000 OA
ATOM      7  C   UNL     1       1.794  11.367  19.163  0.00  0.00    +0.000 C 
ATOM      8  C   UNL     1       1.456  12.181  20.565  0.00  0.00    +0.000 C 
ENDROOT
BRANCH   5   9
ATOM      9  C   UNL     1       3.110   7.892  17.680  0.00  0.00    +0.000 A 
ATOM     10  C   UNL     1       2.737   7.201  18.828  0.00  0.00    +0.000 A 
ATOM     11  N   UNL     1       3.313   6.114  19.371  0.00  0.00    +0.000 NA
ATOM     12  C   UNL     1       3.966   5.447  18.471  0.00  0.00    +0.000 A 
ATOM     13  C   UNL     1       4.892   6.321  17.833  0.00  0.00    +0.000 A 
ATOM     14  C   UNL     1       6.304   6.821  17.961  0.00  0.00    +0.000 A 
ATOM     15  C   UNL     1       7.301   6.379  17.077  0.00  0.00    +0.000 A 
ATOM     16  C   UNL     1       6.806   5.495  16.191  0.00  0.00    +0.000 A 
ATOM     17  C   UNL     1       5.327   5.685  15.993  0.00  0.00    +0.000 A 
ATOM     18  C   UNL     1       4.218   6.783  16.830  0.00  0.00    +0.000 A 
BRANCH  12  19
ATOM     19  N   UNL     1       3.151   4.553  17.632  0.00  0.00    +0.000 N 
ATOM     20  C   UNL     1       1.637   4.336  17.667  0.00  0.00    +0.000 C 
ATOM     21  C   UNL     1       1.188   3.261  18.679  0.00  0.00    +0.000 C 
ATOM     22  O   UNL     1       1.922   2.042  18.479  0.00  0.00    +0.000 OA
ATOM     23  C   UNL     1       3.331   2.307  18.605  0.00  0.00    +0.000 C 
ATOM     24  C   UNL     1       3.826   3.263  17.513  0.00  0.00    +0.000 C 
ENDBRANCH  12  19
ENDBRANCH   5   9
BRANCH   1  30
ATOM     25  C   UNL     1      -1.093  14.030  22.512  0.00  0.00    +0.000 A 
ATOM     26  C   UNL     1      -1.550  15.304  22.966  0.00  0.00    +0.000 A 
ATOM     27  C   UNL     1      -1.412  16.439  22.186  0.00  0.00    +0.000 A 
ATOM     28  C   UNL     1      -0.760  16.299  20.968  0.00  0.00    +0.000 A 
ATOM     29  C   UNL     1      -0.270  15.017  20.524  0.00  0.00    +0.000 A 
ATOM     30  C   UNL     1      -0.432  13.808  21.264  0.00  0.00    +0.000 A 
BRANCH  25  32
ATOM     31  C   UNL     1      -2.805  12.830  23.517  0.00  0.00    +0.000 C 
ATOM     32  O   UNL     1      -1.411  13.035  23.407  0.00  0.00    +0.000 OA
ENDBRANCH  25  32
ENDBRANCH   1  30
TORSDOF 4
ENDMDL
MODEL 7
REMARK VINA RESULT:      -7.9      2.418     10.309
REMARK  Name = 
REMARK  5 active torsions:
REMARK  status: ('A' for Active; 'I' for Inactive)
REMARK    1  A    between atoms: C_1  and  O_2
REMARK    2  A    between atoms: O_2  and  C_3
REMARK    3  A    between atoms: C_8  and  N_9
REMARK    4  A    between atoms: C_13  and  C_15
REMARK    5  A    between atoms: C_18  and  N_19
REMARK                            x       y       z     vdW  Elec       q    Type
REMARK                         _______ _______ _______ _____ _____    ______ ____
ROOT
ATOM      1  N   UNL     1       2.965   6.294  18.196  0.00  0.00    +0.000 N 
ATOM      2  C   UNL     1       2.341   5.665  19.384  0.00  0.00    +0.000 C 
ATOM      3  C   UNL     1       2.142   6.801  20.649  0.00  0.00    +0.000 C 
ATOM      4  N   UNL     1       1.451   8.279  20.318  0.00  0.00    +0.000 N 
ATOM      5  C   UNL     1       0.787   9.340  21.500  0.00  0.00    +0.000 C 
ATOM      6  O   UNL     1       0.902   8.835  22.638  0.00  0.00    +0.000 OA
ATOM      7  C   UNL     1       2.096   8.714  19.034  0.00  0.00    +0.000 C 
ATOM      8  C   UNL     1       2.255   7.573  17.845  0.00  0.00    +0.000 C 
ENDROOT
BRANCH   5   9
ATOM      9  C   UNL     1      -0.550  10.615  21.357  0.00  0.00    +0.000 A 
ATOM     10  C   UNL     1       0.386  11.587  21.697  0.00  0.00    +0.000 A 
ATOM     11  N   UNL     1       0.251  12.923  21.663  0.00  0.00    +0.000 NA
ATOM     12  C   UNL     1      -0.670  13.266  20.815  0.00  0.00    +0.000 A 
ATOM     13  C   UNL     1      -1.874  12.582  21.143  0.00  0.00    +0.000 A 
ATOM     14  C   UNL     1      -3.110  12.732  21.986  0.00  0.00    +0.000 A 
ATOM     15  C   UNL     1      -4.349  13.020  21.393  0.00  0.00    +0.000 A 
ATOM     16  C   UNL     1      -4.229  13.143  20.058  0.00  0.00    +0.000 A 
ATOM     17  C   UNL     1      -3.042  12.379  19.539  0.00  0.00    +0.000 A 
ATOM     18  C   UNL     1      -1.798  11.498  20.440  0.00  0.00    +0.000 A 
BRANCH  12  19
ATOM     19  N   UNL     1      -0.246  13.308  19.406  0.00  0.00    +0.000 N 
ATOM     20  C   UNL     1       0.943  12.603  18.750  0.00  0.00    +0.000 C 
ATOM     21  C   UNL     1       2.260  13.404  18.830  0.00  0.00    +0.000 C 
ATOM     22  O   UNL     1       2.067  14.743  18.344  0.00  0.00    +0.000 OA
ATOM     23  C   UNL     1       1.030  15.383  19.109  0.00  0.00    +0.000 C 
ATOM     24  C   UNL     1      -0.323  14.685  18.925  0.00  0.00    +0.000 C 
ENDBRANCH  12  19
ENDBRANCH   5   9
BRANCH   1  30
ATOM     25  C   UNL     1       3.933   4.347  16.948  0.00  0.00    +0.000 A 
ATOM     26  C   UNL     1       4.935   3.725  16.143  0.00  0.00    +0.000 A 
ATOM     27  C   UNL     1       6.080   4.404  15.765  0.00  0.00    +0.000 A 
ATOM     28  C   UNL     1       6.189   5.733  16.152  0.00  0.00    +0.000 A 
ATOM     29  C   UNL     1       5.161   6.370  16.938  0.00  0.00    +0.000 A 
ATOM     30  C   UNL     1       3.987   5.702  17.398  0.00  0.00    +0.000 A 
BRANCH  25  32
ATOM     31  C   UNL     1       3.421   2.299  17.909  0.00  0.00    +0.000 C 
ATOM     32  O   UNL     1       2.932   3.462  17.274  0.00  0.00    +0.000 OA
ENDBRANCH  25  32
ENDBRANCH   1  30
TORSDOF 4
ENDMDL
MODEL 8
REMARK VINA RESULT:      -7.9      1.221      1.491
REMARK  Name = 
REMARK  5 active torsions:
REMARK  status: ('A' for Active; 'I' for Inactive)
REMARK    1  A    between atoms: C_1  and  O_2
REMARK    2  A    between atoms: O_2  and  C_3
REMARK    3  A    between atoms: C_8  and  N_9
REMARK    4  A    between atoms: C_13  and  C_15
REMARK    5  A    between atoms: C_18  and  N_19
REMARK                            x       y       z     vdW  Elec       q    Type
REMARK                         _______ _______ _______ _____ _____    ______ ____
ROOT
ATOM      1  N   UNL     1       1.646  13.497  19.130  0.00  0.00    +0.000 N 
ATOM      2  C   UNL     1       1.330  12.668  20.317  0.00  0.00    +0.000 C 
ATOM      3  C   UNL     1       0.983  11.053  19.864  0.00  0.00    +0.000 C 
ATOM      4  N   UNL     1       2.015  10.255  18.830  0.00  0.00    +0.000 N 
ATOM      5  C   UNL     1       2.070   8.547  18.620  0.00  0.00    +0.000 C 
ATOM      6  O   UNL     1       1.222   8.001  19.359  0.00  0.00    +0.000 OA
ATOM      7  C   UNL     1       2.331  11.265  17.764  0.00  0.00    +0.000 C 
ATOM      8  C   UNL     1       2.665  12.808  18.263  0.00  0.00    +0.000 C 
ENDROOT
BRANCH   5   9
ATOM      9  C   UNL     1       3.465   7.443  18.103  0.00  0.00    +0.000 A 
ATOM     10  C   UNL     1       3.237   6.677  19.242  0.00  0.00    +0.000 A 
ATOM     11  N   UNL     1       3.771   5.488  19.568  0.00  0.00    +0.000 NA
ATOM     12  C   UNL     1       4.158   4.856  18.503  0.00  0.00    +0.000 A 
ATOM     13  C   UNL     1       5.044   5.693  17.768  0.00  0.00    +0.000 A 
ATOM     14  C   UNL     1       6.504   6.032  17.652  0.00  0.00    +0.000 A 
ATOM     15  C   UNL     1       7.256   5.587  16.554  0.00  0.00    +0.000 A 
ATOM     16  C   UNL     1       6.500   4.854  15.715  0.00  0.00    +0.000 A 
ATOM     17  C   UNL     1       5.044   5.211  15.832  0.00  0.00    +0.000 A 
ATOM     18  C   UNL     1       4.252   6.323  16.961  0.00  0.00    +0.000 A 
BRANCH  12  19
ATOM     19  N   UNL     1       3.098   4.140  17.773  0.00  0.00    +0.000 N 
ATOM     20  C   UNL     1       1.582   4.251  17.949  0.00  0.00    +0.000 C 
ATOM     21  C   UNL     1       1.015   3.313  19.036  0.00  0.00    +0.000 C 
ATOM     22  O   UNL     1       1.455   1.962  18.818  0.00  0.00    +0.000 OA
ATOM     23  C   UNL     1       2.893   1.925  18.809  0.00  0.00    +0.000 C 
ATOM     24  C   UNL     1       3.473   2.734  17.643  0.00  0.00    +0.000 C 
ENDBRANCH  12  19
ENDBRANCH   5   9
BRANCH   1  30
ATOM     25  C   UNL     1      -0.189  15.205  19.077  0.00  0.00    +0.000 A 
ATOM     26  C   UNL     1      -0.689  16.527  18.873  0.00  0.00    +0.000 A 
ATOM     27  C   UNL     1       0.137  17.553  18.452  0.00  0.00    +0.000 A 
ATOM     28  C   UNL     1       1.485  17.259  18.289  0.00  0.00    +0.000 A 
ATOM     29  C   UNL     1       1.995  15.932  18.526  0.00  0.00    +0.000 A 
ATOM     30  C   UNL     1       1.179  14.826  18.912  0.00  0.00    +0.000 A 
BRANCH  25  32
ATOM     31  C   UNL     1      -1.756  14.604  20.678  0.00  0.00    +0.000 C 
ATOM     32  O   UNL     1      -1.200  14.333  19.408  0.00  0.00    +0.000 OA
ENDBRANCH  25  32
ENDBRANCH   1  30
TORSDOF 4
ENDMDL
MODEL 9
REMARK VINA RESULT:      -7.8      2.336     10.700
REMARK  Name = 
REMARK  5 active torsions:
REMARK  status: ('A' for Active; 'I' for Inactive)
REMARK    1  A    between atoms: C_1  and  O_2
REMARK    2  A    between atoms: O_2  and  C_3
REMARK    3  A    between atoms: C_8  and  N_9
REMARK    4  A    between atoms: C_13  and  C_15
REMARK    5  A    between atoms: C_18  and  N_19
REMARK                            x       y       z     vdW  Elec       q    Type
REMARK                         _______ _______ _______ _____ _____    ______ ____
ROOT
ATOM      1  N   UNL     1       2.484   6.791  19.031  0.00  0.00    +0.000 N 
ATOM      2  C   UNL     1       2.816   7.834  18.032  0.00  0.00    +0.000 C 
ATOM      3  C   UNL     1       1.526   8.944  17.850  0.00  0.00    +0.000 C 
ATOM      4  N   UNL     1       0.825   9.611  19.205  0.00  0.00    +0.000 N 
ATOM      5  C   UNL     1      -0.151  11.030  19.210  0.00  0.00    +0.000 C 
ATOM      6  O   UNL     1      -0.251  11.481  18.048  0.00  0.00    +0.000 OA
ATOM      7  C   UNL     1       0.673   8.457  20.153  0.00  0.00    +0.000 C 
ATOM      8  C   UNL     1       1.956   7.420  20.292  0.00  0.00    +0.000 C 
ENDROOT
BRANCH   5   9
ATOM      9  C   UNL     1      -0.455  12.276  20.547  0.00  0.00    +0.000 A 
ATOM     10  C   UNL     1       0.922  12.401  20.698  0.00  0.00    +0.000 A 
ATOM     11  N   UNL     1       1.603  13.301  21.428  0.00  0.00    +0.000 NA
ATOM     12  C   UNL     1       0.892  14.373  21.606  0.00  0.00    +0.000 A 
ATOM     13  C   UNL     1      -0.357  14.005  22.180  0.00  0.00    +0.000 A 
ATOM     14  C   UNL     1      -1.011  13.793  23.517  0.00  0.00    +0.000 A 
ATOM     15  C   UNL     1      -1.935  14.724  24.017  0.00  0.00    +0.000 A 
ATOM     16  C   UNL     1      -2.096  15.752  23.163  0.00  0.00    +0.000 A 
ATOM     17  C   UNL     1      -1.765  15.352  21.751  0.00  0.00    +0.000 A 
ATOM     18  C   UNL     1      -1.113  13.821  21.146  0.00  0.00    +0.000 A 
BRANCH  12  19
ATOM     19  N   UNL     1       0.898  15.327  20.485  0.00  0.00    +0.000 N 
ATOM     20  C   UNL     1       1.384  15.107  19.051  0.00  0.00    +0.000 C 
ATOM     21  C   UNL     1       2.892  15.374  18.859  0.00  0.00    +0.000 C 
ATOM     22  O   UNL     1       3.245  16.668  19.375  0.00  0.00    +0.000 OA
ATOM     23  C   UNL     1       2.885  16.741  20.766  0.00  0.00    +0.000 C 
ATOM     24  C   UNL     1       1.369  16.624  20.965  0.00  0.00    +0.000 C 
ENDBRANCH  12  19
ENDBRANCH   5   9
BRANCH   1  30
ATOM     25  C   UNL     1       4.027   4.827  19.252  0.00  0.00    +0.000 A 
ATOM     26  C   UNL     1       4.343   3.440  19.130  0.00  0.00    +0.000 A 
ATOM     27  C   UNL     1       3.438   2.538  18.601  0.00  0.00    +0.000 A 
ATOM     28  C   UNL     1       2.187   3.025  18.246  0.00  0.00    +0.000 A 
ATOM     29  C   UNL     1       1.857   4.421  18.399  0.00  0.00    +0.000 A 
ATOM     30  C   UNL     1       2.769   5.402  18.891  0.00  0.00    +0.000 A 
BRANCH  25  32
ATOM     31  C   UNL     1       6.234   5.437  18.882  0.00  0.00    +0.000 C 
ATOM     32  O   UNL     1       5.102   5.547  19.720  0.00  0.00    +0.000 OA
ENDBRANCH  25  32
ENDBRANCH   1  30
TORSDOF 4
ENDMDL
