MODEL 1
REMARK VINA RESULT:      -6.2      0.000      0.000
REMARK  Name = 
REMARK  5 active torsions:
REMARK  status: ('A' for Active; 'I' for Inactive)
REMARK    1  A    between atoms: C_1  and  C_2
REMARK    2  A    between atoms: C_2  and  C_3
REMARK    3  A    between atoms: C_2  and  C_4
REMARK    4  A    between atoms: C_10  and  N_11
REMARK    5  A    between atoms: N_22  and  C_23
REMARK                            x       y       z     vdW  Elec       q    Type
REMARK                         _______ _______ _______ _____ _____    ______ ____
ROOT
ATOM      1  C   UNL     1       1.171  12.330  20.086  0.00  0.00    +0.000 A 
ATOM      2  N   UNL     1       1.526  11.091  19.680  0.00  0.00    +0.000 NA
ATOM      3  C   UNL     1       1.054   9.986  20.314  0.00  0.00    +0.000 A 
ATOM      4  N   UNL     1       1.310   8.715  19.774  0.00  0.00    +0.000 N 
ATOM      5  C   UNL     1       1.780   8.786  18.383  0.00  0.00    +0.000 C 
ATOM      6  C   UNL     1       1.680   7.395  17.776  0.00  0.00    +0.000 C 
ATOM      7  C   UNL     1       2.525   6.350  18.539  0.00  0.00    +0.000 C 
ATOM      8  C   UNL     1       2.138   6.435  20.041  0.00  0.00    +0.000 C 
ATOM      9  C   UNL     1       2.160   7.860  20.609  0.00  0.00    +0.000 C 
ATOM     10  C   UNL     1       0.200  10.206  21.406  0.00  0.00    +0.000 A 
ATOM     11  C   UNL     1      -0.566   9.448  22.315  0.00  0.00    +0.000 A 
ATOM     12  N   UNL     1      -1.269  10.200  23.169  0.00  0.00    +0.000 NA
ATOM     13  N   UNL     1      -0.972  11.461  22.780  0.00  0.00    +0.000 N 
ATOM     14  C   UNL     1      -1.598  12.591  23.419  0.00  0.00    +0.000 C 
ATOM     15  C   UNL     1      -0.092  11.519  21.728  0.00  0.00    +0.000 A 
ATOM     16  N   UNL     1       0.351  12.625  21.110  0.00  0.00    +0.000 NA
ENDROOT
BRANCH   7  17
ATOM     17  N   UNL     1       4.014   6.392  18.342  0.00  0.00    +0.000 NA
ATOM     18  C   UNL     1       4.410   6.125  16.935  0.00  0.00    +0.000 C 
ATOM     19  C   UNL     1       5.920   6.131  16.646  0.00  0.00    +0.000 C 
ATOM     20  S   UNL     1       6.809   4.856  17.573  0.00  0.00    +0.000 S 
ATOM     21  C   UNL     1       6.179   5.318  19.207  0.00  0.00    +0.000 C 
ATOM     22  C   UNL     1       4.645   5.374  19.232  0.00  0.00    +0.000 C 
ENDBRANCH   7  17
BRANCH   1  24
ATOM     23  C   UNL     1       2.511  12.880  18.068  0.00  0.00    +0.000 C 
ATOM     24  C   UNL     1       1.647  13.456  19.191  0.00  0.00    +0.000 C 
ATOM     25  C   UNL     1       0.505  14.301  18.635  0.00  0.00    +0.000 C 
ENDBRANCH   1  24
TORSDOF 2
ENDMDL
MODEL 2
REMARK VINA RESULT:      -6.1      5.096      9.276
REMARK  Name = 
REMARK  5 active torsions:
REMARK  status: ('A' for Active; 'I' for Inactive)
REMARK    1  A    between atoms: C_1  and  C_2
REMARK    2  A    between atoms: C_2  and  C_3
REMARK    3  A    between atoms: C_2  and  C_4
REMARK    4  A    between atoms: C_10  and  N_11
REMARK    5  A    between atoms: N_22  and  C_23
REMARK                            x       y       z     vdW  Elec       q    Type
REMARK                         _______ _______ _______ _____ _____    ______ ____
ROOT
ATOM      1  C   UNL     1      -0.615  10.768  18.991  0.00  0.00    +0.000 A 
ATOM      2  N   UNL     1      -1.196  11.467  19.990  0.00  0.00    +0.000 NA
ATOM      3  C   UNL     1      -2.464  11.941  19.866  0.00  0.00    +0.000 A 
ATOM      4  N   UNL     1      -3.097  12.523  20.976  0.00  0.00    +0.000 N 
ATOM      5  C   UNL     1      -2.399  12.225  22.235  0.00  0.00    +0.000 C 
ATOM      6  C   UNL     1      -3.328  12.570  23.389  0.00  0.00    +0.000 C 
ATOM      7  C   UNL     1      -3.751  14.057  23.388  0.00  0.00    +0.000 C 
ATOM      8  C   UNL     1      -4.310  14.389  21.977  0.00  0.00    +0.000 C 
ATOM      9  C   UNL     1      -3.395  13.951  20.826  0.00  0.00    +0.000 C 
ATOM     10  C   UNL     1      -3.117  11.676  18.652  0.00  0.00    +0.000 A 
ATOM     11  C   UNL     1      -4.385  11.881  18.071  0.00  0.00    +0.000 A 
ATOM     12  N   UNL     1      -4.492  11.360  16.843  0.00  0.00    +0.000 NA
ATOM     13  N   UNL     1      -3.283  10.786  16.649  0.00  0.00    +0.000 N 
ATOM     14  C   UNL     1      -3.012  10.040  15.445  0.00  0.00    +0.000 C 
ATOM     15  C   UNL     1      -2.421  10.950  17.703  0.00  0.00    +0.000 A 
ATOM     16  N   UNL     1      -1.175  10.461  17.807  0.00  0.00    +0.000 NA
ENDROOT
BRANCH   7  17
ATOM     17  N   UNL     1      -2.728  15.062  23.835  0.00  0.00    +0.000 NA
ATOM     18  C   UNL     1      -2.409  14.945  25.281  0.00  0.00    +0.000 C 
ATOM     19  C   UNL     1      -1.382  15.949  25.830  0.00  0.00    +0.000 C 
ATOM     20  S   UNL     1      -1.936  17.665  25.669  0.00  0.00    +0.000 S 
ATOM     21  C   UNL     1      -2.304  17.593  23.897  0.00  0.00    +0.000 C 
ATOM     22  C   UNL     1      -3.250  16.434  23.557  0.00  0.00    +0.000 C 
ENDBRANCH   7  17
BRANCH   1  24
ATOM     23  C   UNL     1       0.598   9.270  20.558  0.00  0.00    +0.000 C 
ATOM     24  C   UNL     1       0.736  10.172  19.330  0.00  0.00    +0.000 C 
ATOM     25  C   UNL     1       1.369   9.423  18.161  0.00  0.00    +0.000 C 
ENDBRANCH   1  24
TORSDOF 2
ENDMDL
MODEL 3
REMARK VINA RESULT:      -5.8      7.026     10.456
REMARK  Name = 
REMARK  5 active torsions:
REMARK  status: ('A' for Active; 'I' for Inactive)
REMARK    1  A    between atoms: C_1  and  C_2
REMARK    2  A    between atoms: C_2  and  C_3
REMARK    3  A    between atoms: C_2  and  C_4
REMARK    4  A    between atoms: C_10  and  N_11
REMARK    5  A    between atoms: N_22  and  C_23
REMARK                            x       y       z     vdW  Elec       q    Type
REMARK                         _______ _______ _______ _____ _____    ______ ____
ROOT
ATOM      1  C   UNL     1       9.437  13.745  18.264  0.00  0.00    +0.000 A 
ATOM      2  N   UNL     1       8.137  14.092  18.389  0.00  0.00    +0.000 NA
ATOM      3  C   UNL     1       7.760  15.397  18.406  0.00  0.00    +0.000 A 
ATOM      4  N   UNL     1       6.395  15.724  18.376  0.00  0.00    +0.000 N 
ATOM      5  C   UNL     1       5.557  14.582  17.983  0.00  0.00    +0.000 C 
ATOM      6  C   UNL     1       4.175  15.105  17.626  0.00  0.00    +0.000 C 
ATOM      7  C   UNL     1       3.497  15.844  18.802  0.00  0.00    +0.000 C 
ATOM      8  C   UNL     1       4.490  16.922  19.318  0.00  0.00    +0.000 C 
ATOM      9  C   UNL     1       5.902  16.388  19.587  0.00  0.00    +0.000 C 
ATOM     10  C   UNL     1       8.788  16.348  18.300  0.00  0.00    +0.000 A 
ATOM     11  C   UNL     1       8.922  17.749  18.212  0.00  0.00    +0.000 A 
ATOM     12  N   UNL     1      10.191  18.149  18.073  0.00  0.00    +0.000 NA
ATOM     13  N   UNL     1      10.876  16.984  18.041  0.00  0.00    +0.000 N 
ATOM     14  C   UNL     1      12.301  16.979  17.827  0.00  0.00    +0.000 C 
ATOM     15  C   UNL     1      10.080  15.874  18.177  0.00  0.00    +0.000 A 
ATOM     16  N   UNL     1      10.476  14.592  18.145  0.00  0.00    +0.000 NA
ENDROOT
BRANCH   7  17
ATOM     17  N   UNL     1       2.952  15.003  19.921  0.00  0.00    +0.000 NA
ATOM     18  C   UNL     1       2.236  13.797  19.431  0.00  0.00    +0.000 C 
ATOM     19  C   UNL     1       1.630  12.886  20.511  0.00  0.00    +0.000 C 
ATOM     20  S   UNL     1       0.378  13.731  21.508  0.00  0.00    +0.000 S 
ATOM     21  C   UNL     1       1.408  15.148  21.966  0.00  0.00    +0.000 C 
ATOM     22  C   UNL     1       2.016  15.834  20.735  0.00  0.00    +0.000 C 
ENDBRANCH   7  17
BRANCH   1  24
ATOM     23  C   UNL     1      11.145  12.035  17.691  0.00  0.00    +0.000 C 
ATOM     24  C   UNL     1       9.690  12.261  18.104  0.00  0.00    +0.000 C 
ATOM     25  C   UNL     1       9.338  11.457  19.353  0.00  0.00    +0.000 C 
ENDBRANCH   1  24
TORSDOF 2
ENDMDL
MODEL 4
REMARK VINA RESULT:      -5.8      3.934      6.906
REMARK  Name = 
REMARK  5 active torsions:
REMARK  status: ('A' for Active; 'I' for Inactive)
REMARK    1  A    between atoms: C_1  and  C_2
REMARK    2  A    between atoms: C_2  and  C_3
REMARK    3  A    between atoms: C_2  and  C_4
REMARK    4  A    between atoms: C_10  and  N_11
REMARK    5  A    between atoms: N_22  and  C_23
REMARK                            x       y       z     vdW  Elec       q    Type
REMARK                         _______ _______ _______ _____ _____    ______ ____
ROOT
ATOM      1  C   UNL     1       0.508  10.067  20.546  0.00  0.00    +0.000 A 
ATOM      2  N   UNL     1       1.262  11.177  20.387  0.00  0.00    +0.000 NA
ATOM      3  C   UNL     1       0.926  12.125  19.473  0.00  0.00    +0.000 A 
ATOM      4  N   UNL     1       1.634  13.338  19.442  0.00  0.00    +0.000 N 
ATOM      5  C   UNL     1       2.439  13.544  20.654  0.00  0.00    +0.000 C 
ATOM      6  C   UNL     1       2.866  15.003  20.699  0.00  0.00    +0.000 C 
ATOM      7  C   UNL     1       3.700  15.418  19.465  0.00  0.00    +0.000 C 
ATOM      8  C   UNL     1       2.901  15.011  18.196  0.00  0.00    +0.000 C 
ATOM      9  C   UNL     1       2.404  13.559  18.214  0.00  0.00    +0.000 C 
ATOM     10  C   UNL     1      -0.225  11.880  18.708  0.00  0.00    +0.000 A 
ATOM     11  C   UNL     1      -0.997  12.533  17.725  0.00  0.00    +0.000 A 
ATOM     12  N   UNL     1      -2.076  11.835  17.352  0.00  0.00    +0.000 NA
ATOM     13  N   UNL     1      -2.010  10.731  18.132  0.00  0.00    +0.000 N 
ATOM     14  C   UNL     1      -3.053   9.739  18.083  0.00  0.00    +0.000 C 
ATOM     15  C   UNL     1      -0.916  10.709  18.960  0.00  0.00    +0.000 A 
ATOM     16  N   UNL     1      -0.612   9.764  19.865  0.00  0.00    +0.000 NA
ENDROOT
BRANCH   7  17
ATOM     17  N   UNL     1       5.124  14.943  19.407  0.00  0.00    +0.000 NA
ATOM     18  C   UNL     1       6.010  15.681  20.343  0.00  0.00    +0.000 C 
ATOM     19  C   UNL     1       7.491  15.270  20.336  0.00  0.00    +0.000 C 
ATOM     20  S   UNL     1       8.278  15.540  18.728  0.00  0.00    +0.000 S 
ATOM     21  C   UNL     1       7.060  14.622  17.752  0.00  0.00    +0.000 C 
ATOM     22  C   UNL     1       5.630  15.115  18.012  0.00  0.00    +0.000 C 
ENDBRANCH   7  17
BRANCH   1  24
ATOM     23  C   UNL     1      -0.090   9.340  22.844  0.00  0.00    +0.000 C 
ATOM     24  C   UNL     1       0.915   9.179  21.703  0.00  0.00    +0.000 C 
ATOM     25  C   UNL     1       1.071   7.714  21.305  0.00  0.00    +0.000 C 
ENDBRANCH   1  24
TORSDOF 2
ENDMDL
MODEL 5
REMARK VINA RESULT:      -5.8      5.460      7.420
REMARK  Name = 
REMARK  5 active torsions:
REMARK  status: ('A' for Active; 'I' for Inactive)
REMARK    1  A    between atoms: C_1  and  C_2
REMARK    2  A    between atoms: C_2  and  C_3
REMARK    3  A    between atoms: C_2  and  C_4
REMARK    4  A    between atoms: C_10  and  N_11
REMARK    5  A    between atoms: N_22  and  C_23
REMARK                            x       y       z     vdW  Elec       q    Type
REMARK                         _______ _______ _______ _____ _____    ______ ____
ROOT
ATOM      1  C   UNL     1      -3.630  11.122  17.962  0.00  0.00    +0.000 A 
ATOM      2  N   UNL     1      -2.582  11.720  18.570  0.00  0.00    +0.000 NA
ATOM      3  C   UNL     1      -2.759  12.475  19.686  0.00  0.00    +0.000 A 
ATOM      4  N   UNL     1      -1.638  12.950  20.386  0.00  0.00    +0.000 N 
ATOM      5  C   UNL     1      -0.401  12.263  19.988  0.00  0.00    +0.000 C 
ATOM      6  C   UNL     1       0.668  12.569  21.026  0.00  0.00    +0.000 C 
ATOM      7  C   UNL     1       0.954  14.082  21.158  0.00  0.00    +0.000 C 
ATOM      8  C   UNL     1      -0.404  14.801  21.389  0.00  0.00    +0.000 C 
ATOM      9  C   UNL     1      -1.493  14.410  20.382  0.00  0.00    +0.000 C 
ATOM     10  C   UNL     1      -4.077  12.606  20.152  0.00  0.00    +0.000 A 
ATOM     11  C   UNL     1      -4.757  13.196  21.238  0.00  0.00    +0.000 A 
ATOM     12  N   UNL     1      -6.075  12.965  21.222  0.00  0.00    +0.000 NA
ATOM     13  N   UNL     1      -6.236  12.189  20.125  0.00  0.00    +0.000 N 
ATOM     14  C   UNL     1      -7.531  11.656  19.790  0.00  0.00    +0.000 C 
ATOM     15  C   UNL     1      -5.067  11.948  19.447  0.00  0.00    +0.000 A 
ATOM     16  N   UNL     1      -4.916  11.186  18.352  0.00  0.00    +0.000 NA
ENDROOT
BRANCH   7  17
ATOM     17  N   UNL     1       1.752  14.728  20.062  0.00  0.00    +0.000 NA
ATOM     18  C   UNL     1       3.116  14.154  19.934  0.00  0.00    +0.000 C 
ATOM     19  C   UNL     1       4.009  14.771  18.846  0.00  0.00    +0.000 C 
ATOM     20  S   UNL     1       4.329  16.531  19.126  0.00  0.00    +0.000 S 
ATOM     21  C   UNL     1       2.595  17.027  19.289  0.00  0.00    +0.000 C 
ATOM     22  C   UNL     1       1.859  16.191  20.345  0.00  0.00    +0.000 C 
ENDBRANCH   7  17
BRANCH   1  24
ATOM     23  C   UNL     1      -3.603  10.853  15.494  0.00  0.00    +0.000 C 
ATOM     24  C   UNL     1      -3.262  10.188  16.828  0.00  0.00    +0.000 C 
ATOM     25  C   UNL     1      -1.803   9.745  16.869  0.00  0.00    +0.000 C 
ENDBRANCH   1  24
TORSDOF 2
ENDMDL
MODEL 6
REMARK VINA RESULT:      -5.7      6.748      9.770
REMARK  Name = 
REMARK  5 active torsions:
REMARK  status: ('A' for Active; 'I' for Inactive)
REMARK    1  A    between atoms: C_1  and  C_2
REMARK    2  A    between atoms: C_2  and  C_3
REMARK    3  A    between atoms: C_2  and  C_4
REMARK    4  A    between atoms: C_10  and  N_11
REMARK    5  A    between atoms: N_22  and  C_23
REMARK                            x       y       z     vdW  Elec       q    Type
REMARK                         _______ _______ _______ _____ _____    ______ ____
ROOT
ATOM      1  C   UNL     1       9.578  13.750  18.315  0.00  0.00    +0.000 A 
ATOM      2  N   UNL     1       8.245  13.958  18.387  0.00  0.00    +0.000 NA
ATOM      3  C   UNL     1       7.742  15.070  18.983  0.00  0.00    +0.000 A 
ATOM      4  N   UNL     1       6.366  15.337  18.902  0.00  0.00    +0.000 N 
ATOM      5  C   UNL     1       5.701  14.526  17.872  0.00  0.00    +0.000 C 
ATOM      6  C   UNL     1       4.329  15.127  17.605  0.00  0.00    +0.000 C 
ATOM      7  C   UNL     1       3.439  15.161  18.868  0.00  0.00    +0.000 C 
ATOM      8  C   UNL     1       4.248  15.858  19.997  0.00  0.00    +0.000 C 
ATOM      9  C   UNL     1       5.662  15.293  20.188  0.00  0.00    +0.000 C 
ATOM     10  C   UNL     1       8.675  15.969  19.523  0.00  0.00    +0.000 A 
ATOM     11  C   UNL     1       8.681  17.228  20.158  0.00  0.00    +0.000 A 
ATOM     12  N   UNL     1       9.911  17.673  20.436  0.00  0.00    +0.000 NA
ATOM     13  N   UNL     1      10.707  16.696  19.944  0.00  0.00    +0.000 N 
ATOM     14  C   UNL     1      12.141  16.832  19.984  0.00  0.00    +0.000 C 
ATOM     15  C   UNL     1      10.014  15.651  19.389  0.00  0.00    +0.000 A 
ATOM     16  N   UNL     1      10.535  14.566  18.794  0.00  0.00    +0.000 NA
ENDROOT
BRANCH   7  17
ATOM     17  N   UNL     1       2.844  13.860  19.326  0.00  0.00    +0.000 NA
ATOM     18  C   UNL     1       2.395  13.009  18.194  0.00  0.00    +0.000 C 
ATOM     19  C   UNL     1       1.756  11.663  18.573  0.00  0.00    +0.000 C 
ATOM     20  S   UNL     1       0.252  11.863  19.560  0.00  0.00    +0.000 S 
ATOM     21  C   UNL     1       0.982  12.929  20.828  0.00  0.00    +0.000 C 
ATOM     22  C   UNL     1       1.680  14.151  20.214  0.00  0.00    +0.000 C 
ENDBRANCH   7  17
BRANCH   1  24
ATOM     23  C   UNL     1      11.464  12.696  17.089  0.00  0.00    +0.000 C 
ATOM     24  C   UNL     1       9.994  12.552  17.487  0.00  0.00    +0.000 C 
ATOM     25  C   UNL     1       9.739  11.223  18.192  0.00  0.00    +0.000 C 
ENDBRANCH   1  24
TORSDOF 2
ENDMDL
MODEL 7
REMARK VINA RESULT:      -5.7      5.437      7.377
REMARK  Name = 
REMARK  5 active torsions:
REMARK  status: ('A' for Active; 'I' for Inactive)
REMARK    1  A    between atoms: C_1  and  C_2
REMARK    2  A    between atoms: C_2  and  C_3
REMARK    3  A    between atoms: C_2  and  C_4
REMARK    4  A    between atoms: C_10  and  N_11
REMARK    5  A    between atoms: N_22  and  C_23
REMARK                            x       y       z     vdW  Elec       q    Type
REMARK                         _______ _______ _______ _____ _____    ______ ____
ROOT
ATOM      1  C   UNL     1      -5.139  12.408  19.630  0.00  0.00    +0.000 A 
ATOM      2  N   UNL     1      -3.813  12.590  19.815  0.00  0.00    +0.000 NA
ATOM      3  C   UNL     1      -3.301  12.778  21.059  0.00  0.00    +0.000 A 
ATOM      4  N   UNL     1      -1.908  12.804  21.238  0.00  0.00    +0.000 N 
ATOM      5  C   UNL     1      -1.187  12.276  20.071  0.00  0.00    +0.000 C 
ATOM      6  C   UNL     1       0.252  12.003  20.483  0.00  0.00    +0.000 C 
ATOM      7  C   UNL     1       0.976  13.271  20.990  0.00  0.00    +0.000 C 
ATOM      8  C   UNL     1       0.090  13.911  22.095  0.00  0.00    +0.000 C 
ATOM      9  C   UNL     1      -1.377  14.095  21.687  0.00  0.00    +0.000 C 
ATOM     10  C   UNL     1      -4.219  12.785  22.122  0.00  0.00    +0.000 A 
ATOM     11  C   UNL     1      -4.202  12.876  23.529  0.00  0.00    +0.000 A 
ATOM     12  N   UNL     1      -5.418  12.776  24.078  0.00  0.00    +0.000 NA
ATOM     13  N   UNL     1      -6.222  12.588  23.007  0.00  0.00    +0.000 N 
ATOM     14  C   UNL     1      -7.634  12.361  23.183  0.00  0.00    +0.000 C 
ATOM     15  C   UNL     1      -5.551  12.589  21.810  0.00  0.00    +0.000 A 
ATOM     16  N   UNL     1      -6.080  12.388  20.591  0.00  0.00    +0.000 NA
ENDROOT
BRANCH   7  17
ATOM     17  N   UNL     1       1.401  14.278  19.959  0.00  0.00    +0.000 NA
ATOM     18  C   UNL     1       2.495  13.776  19.089  0.00  0.00    +0.000 C 
ATOM     19  C   UNL     1       3.005  14.751  18.015  0.00  0.00    +0.000 C 
ATOM     20  S   UNL     1       3.706  16.261  18.726  0.00  0.00    +0.000 S 
ATOM     21  C   UNL     1       2.275  16.683  19.752  0.00  0.00    +0.000 C 
ATOM     22  C   UNL     1       1.858  15.516  20.658  0.00  0.00    +0.000 C 
ENDBRANCH   7  17
BRANCH   1  24
ATOM     23  C   UNL     1      -4.383  11.346  17.516  0.00  0.00    +0.000 C 
ATOM     24  C   UNL     1      -5.544  12.056  18.213  0.00  0.00    +0.000 C 
ATOM     25  C   UNL     1      -6.823  11.226  18.146  0.00  0.00    +0.000 C 
ENDBRANCH   1  24
TORSDOF 2
ENDMDL
MODEL 8
REMARK VINA RESULT:      -5.6      5.961     10.236
REMARK  Name = 
REMARK  5 active torsions:
REMARK  status: ('A' for Active; 'I' for Inactive)
REMARK    1  A    between atoms: C_1  and  C_2
REMARK    2  A    between atoms: C_2  and  C_3
REMARK    3  A    between atoms: C_2  and  C_4
REMARK    4  A    between atoms: C_10  and  N_11
REMARK    5  A    between atoms: N_22  and  C_23
REMARK                            x       y       z     vdW  Elec       q    Type
REMARK                         _______ _______ _______ _____ _____    ______ ____
ROOT
ATOM      1  C   UNL     1      -1.312  11.469  19.322  0.00  0.00    +0.000 A 
ATOM      2  N   UNL     1      -2.205  12.118  20.100  0.00  0.00    +0.000 NA
ATOM      3  C   UNL     1      -3.484  12.314  19.681  0.00  0.00    +0.000 A 
ATOM      4  N   UNL     1      -4.430  12.847  20.572  0.00  0.00    +0.000 N 
ATOM      5  C   UNL     1      -3.968  12.804  21.967  0.00  0.00    +0.000 C 
ATOM      6  C   UNL     1      -5.165  13.049  22.873  0.00  0.00    +0.000 C 
ATOM      7  C   UNL     1      -5.839  14.415  22.609  0.00  0.00    +0.000 C 
ATOM      8  C   UNL     1      -6.142  14.507  21.088  0.00  0.00    +0.000 C 
ATOM      9  C   UNL     1      -4.943  14.168  20.194  0.00  0.00    +0.000 C 
ATOM     10  C   UNL     1      -3.809  11.821  18.408  0.00  0.00    +0.000 A 
ATOM     11  C   UNL     1      -4.944  11.716  17.577  0.00  0.00    +0.000 A 
ATOM     12  N   UNL     1      -4.696  11.083  16.425  0.00  0.00    +0.000 NA
ATOM     13  N   UNL     1      -3.390  10.751  16.534  0.00  0.00    +0.000 N 
ATOM     14  C   UNL     1      -2.743   9.977  15.504  0.00  0.00    +0.000 C 
ATOM     15  C   UNL     1      -2.811  11.174  17.704  0.00  0.00    +0.000 A 
ATOM     16  N   UNL     1      -1.547  10.957  18.100  0.00  0.00    +0.000 NA
ENDROOT
BRANCH   7  17
ATOM     17  N   UNL     1      -5.132  15.639  23.115  0.00  0.00    +0.000 NA
ATOM     18  C   UNL     1      -4.455  15.410  24.417  0.00  0.00    +0.000 C 
ATOM     19  C   UNL     1      -3.719  16.619  25.018  0.00  0.00    +0.000 C 
ATOM     20  S   UNL     1      -4.833  18.003  25.371  0.00  0.00    +0.000 S 
ATOM     21  C   UNL     1      -5.569  18.096  23.719  0.00  0.00    +0.000 C 
ATOM     22  C   UNL     1      -6.129  16.741  23.267  0.00  0.00    +0.000 C 
ENDBRANCH   7  17
BRANCH   1  24
ATOM     23  C   UNL     1      -0.094  11.430  21.486  0.00  0.00    +0.000 C 
ATOM     24  C   UNL     1       0.023  11.188  19.981  0.00  0.00    +0.000 C 
ATOM     25  C   UNL     1       0.553   9.789  19.683  0.00  0.00    +0.000 C 
ENDBRANCH   1  24
TORSDOF 2
ENDMDL
MODEL 9
REMARK VINA RESULT:      -5.6      5.653      9.837
REMARK  Name = 
REMARK  5 active torsions:
REMARK  status: ('A' for Active; 'I' for Inactive)
REMARK    1  A    between atoms: C_1  and  C_2
REMARK    2  A    between atoms: C_2  and  C_3
REMARK    3  A    between atoms: C_2  and  C_4
REMARK    4  A    between atoms: C_10  and  N_11
REMARK    5  A    between atoms: N_22  and  C_23
REMARK                            x       y       z     vdW  Elec       q    Type
REMARK                         _______ _______ _______ _____ _____    ______ ____
ROOT
ATOM      1  C   UNL     1      -0.988  11.372  19.040  0.00  0.00    +0.000 A 
ATOM      2  N   UNL     1      -1.751  12.029  19.941  0.00  0.00    +0.000 NA
ATOM      3  C   UNL     1      -3.069  12.260  19.703  0.00  0.00    +0.000 A 
ATOM      4  N   UNL     1      -3.872  12.801  20.720  0.00  0.00    +0.000 N 
ATOM      5  C   UNL     1      -3.227  12.724  22.039  0.00  0.00    +0.000 C 
ATOM      6  C   UNL     1      -4.283  12.983  23.102  0.00  0.00    +0.000 C 
ATOM      7  C   UNL     1      -4.953  14.367  22.950  0.00  0.00    +0.000 C 
ATOM      8  C   UNL     1      -5.458  14.491  21.486  0.00  0.00    +0.000 C 
ATOM      9  C   UNL     1      -4.399  14.139  20.433  0.00  0.00    +0.000 C 
ATOM     10  C   UNL     1      -3.577  11.796  18.479  0.00  0.00    +0.000 A 
ATOM     11  C   UNL     1      -4.816  11.730  17.809  0.00  0.00    +0.000 A 
ATOM     12  N   UNL     1      -4.743  11.110  16.626  0.00  0.00    +0.000 NA
ATOM     13  N   UNL     1      -3.442  10.746  16.552  0.00  0.00    +0.000 N 
ATOM     14  C   UNL     1      -2.960   9.975  15.434  0.00  0.00    +0.000 C 
ATOM     15  C   UNL     1      -2.700  11.137  17.638  0.00  0.00    +0.000 A 
ATOM     16  N   UNL     1      -1.399  10.885  17.856  0.00  0.00    +0.000 NA
ENDROOT
BRANCH   7  17
ATOM     17  N   UNL     1      -4.154  15.567  23.371  0.00  0.00    +0.000 NA
ATOM     18  C   UNL     1      -3.598  15.431  24.741  0.00  0.00    +0.000 C 
ATOM     19  C   UNL     1      -2.779  16.624  25.260  0.00  0.00    +0.000 C 
ATOM     20  S   UNL     1      -3.757  18.144  25.363  0.00  0.00    +0.000 S 
ATOM     21  C   UNL     1      -4.362  18.110  23.656  0.00  0.00    +0.000 C 
ATOM     22  C   UNL     1      -5.033  16.773  23.315  0.00  0.00    +0.000 C 
ENDBRANCH   7  17
BRANCH   1  24
ATOM     23  C   UNL     1       1.047  10.033  18.557  0.00  0.00    +0.000 C 
ATOM     24  C   UNL     1       0.417  11.051  19.508  0.00  0.00    +0.000 C 
ATOM     25  C   UNL     1       1.295  12.290  19.655  0.00  0.00    +0.000 C 
ENDBRANCH   1  24
TORSDOF 2
ENDMDL
