MODEL 1
REMARK VINA RESULT:      -7.8      0.000      0.000
REMARK  Name = 
REMARK  7 active torsions:
REMARK  status: ('A' for Active; 'I' for Inactive)
REMARK    1  A    between atoms: C_1  and  C_2
REMARK    2  A    between atoms: C_2  and  C_4
REMARK    3  A    between atoms: C_5  and  C_6
REMARK    4  A    between atoms: N_7  and  C_8
REMARK    5  A    between atoms: C_12  and  O_13
REMARK    6  A    between atoms: O_13  and  C_14
REMARK    7  A    between atoms: C_14  and  C_15
REMARK                            x       y       z     vdW  Elec       q    Type
REMARK                         _______ _______ _______ _____ _____    ______ ____
ROOT
ATOM      1  C   UNL     1       3.565   3.693  19.477  0.00  0.00    +0.000 A 
ATOM      2  C   UNL     1       2.585   4.216  20.332  0.00  0.00    +0.000 A 
ATOM      3  C   UNL     1       1.777   3.621  21.441  0.00  0.00    +0.000 C 
ATOM      4  N   UNL     1       2.406   5.546  19.989  0.00  0.00    +0.000 N 
ATOM      5  C   UNL     1       1.505   6.490  20.624  0.00  0.00    +0.000 C 
ATOM      6  C   UNL     1       3.213   5.895  18.930  0.00  0.00    +0.000 A 
ATOM      7  C   UNL     1       3.357   7.118  18.258  0.00  0.00    +0.000 A 
ATOM      8  C   UNL     1       4.257   7.193  17.191  0.00  0.00    +0.000 A 
ATOM      9  C   UNL     1       4.992   6.081  16.796  0.00  0.00    +0.000 A 
ATOM     10  C   UNL     1       4.859   4.876  17.500  0.00  0.00    +0.000 A 
ATOM     11  C   UNL     1       3.947   4.765  18.581  0.00  0.00    +0.000 A 
ENDROOT
BRANCH   1  13
ATOM     12  C   UNL     1       3.690   1.335  18.401  0.00  0.00    +0.000 C 
ATOM     13  C   UNL     1       4.140   2.336  19.430  0.00  0.00    +0.000 C 
ATOM     14  O   UNL     1       4.999   1.981  20.243  0.00  0.00    +0.000 OA
ENDBRANCH   1  13
BRANCH   9  15
ATOM     15  O   UNL     1       5.903   6.072  15.768  0.00  0.00    +0.000 OA
BRANCH  15  16
ATOM     16  C   UNL     1       6.627   4.846  15.616  0.00  0.00    +0.000 C 
BRANCH  16  17
ATOM     17  C   UNL     1       6.794   4.578  14.169  0.00  0.00    +0.000 A 
ATOM     18  N   UNL     1       7.499   5.272  13.297  0.00  0.00    +0.000 NA
ATOM     19  N   UNL     1       7.371   4.616  12.097  0.00  0.00    +0.000 NA
ATOM     20  N   UNL     1       6.607   3.540  12.221  0.00  0.00    +0.000 NA
ATOM     21  N   UNL     1       6.247   3.517  13.512  0.00  0.00    +0.000 N 
ATOM     22  H   UNL     1       5.656   2.774  13.868  0.00  0.00    +0.000 HD
ENDBRANCH  16  17
ENDBRANCH  15  16
ENDBRANCH   9  15
TORSDOF 4
ENDMDL
MODEL 2
REMARK VINA RESULT:      -7.6      1.600      2.086
REMARK  Name = 
REMARK  7 active torsions:
REMARK  status: ('A' for Active; 'I' for Inactive)
REMARK    1  A    between atoms: C_1  and  C_2
REMARK    2  A    between atoms: C_2  and  C_4
REMARK    3  A    between atoms: C_5  and  C_6
REMARK    4  A    between atoms: N_7  and  C_8
REMARK    5  A    between atoms: C_12  and  O_13
REMARK    6  A    between atoms: O_13  and  C_14
REMARK    7  A    between atoms: C_14  and  C_15
REMARK                            x       y       z     vdW  Elec       q    Type
REMARK                         _______ _______ _______ _____ _____    ______ ____
ROOT
ATOM      1  C   UNL     1       3.373   3.987  18.855  0.00  0.00    +0.000 A 
ATOM      2  C   UNL     1       2.667   5.097  19.338  0.00  0.00    +0.000 A 
ATOM      3  C   UNL     1       1.676   5.272  20.445  0.00  0.00    +0.000 C 
ATOM      4  N   UNL     1       3.032   6.185  18.564  0.00  0.00    +0.000 N 
ATOM      5  C   UNL     1       2.567   7.552  18.719  0.00  0.00    +0.000 C 
ATOM      6  C   UNL     1       3.924   5.817  17.583  0.00  0.00    +0.000 A 
ATOM      7  C   UNL     1       4.547   6.580  16.583  0.00  0.00    +0.000 A 
ATOM      8  C   UNL     1       5.417   5.938  15.697  0.00  0.00    +0.000 A 
ATOM      9  C   UNL     1       5.659   4.572  15.796  0.00  0.00    +0.000 A 
ATOM     10  C   UNL     1       5.053   3.832  16.821  0.00  0.00    +0.000 A 
ATOM     11  C   UNL     1       4.157   4.452  17.730  0.00  0.00    +0.000 A 
ENDROOT
BRANCH   1  13
ATOM     12  C   UNL     1       4.371   2.112  20.346  0.00  0.00    +0.000 C 
ATOM     13  C   UNL     1       3.367   2.591  19.334  0.00  0.00    +0.000 C 
ATOM     14  O   UNL     1       2.544   1.776  18.906  0.00  0.00    +0.000 OA
ENDBRANCH   1  13
BRANCH   9  15
ATOM     15  O   UNL     1       6.506   3.869  14.975  0.00  0.00    +0.000 OA
BRANCH  15  16
ATOM     16  C   UNL     1       6.670   4.422  13.664  0.00  0.00    +0.000 C 
BRANCH  16  17
ATOM     17  C   UNL     1       5.973   3.546  12.695  0.00  0.00    +0.000 A 
ATOM     18  N   UNL     1       4.745   3.674  12.231  0.00  0.00    +0.000 NA
ATOM     19  N   UNL     1       4.565   2.644  11.342  0.00  0.00    +0.000 NA
ATOM     20  N   UNL     1       5.656   1.895  11.253  0.00  0.00    +0.000 NA
ATOM     21  N   UNL     1       6.533   2.457  12.097  0.00  0.00    +0.000 N 
ATOM     22  H   UNL     1       7.462   2.068  12.207  0.00  0.00    +0.000 HD
ENDBRANCH  16  17
ENDBRANCH  15  16
ENDBRANCH   9  15
TORSDOF 4
ENDMDL
MODEL 3
REMARK VINA RESULT:      -7.4      1.048      1.265
REMARK  Name = 
REMARK  7 active torsions:
REMARK  status: ('A' for Active; 'I' for Inactive)
REMARK    1  A    between atoms: C_1  and  C_2
REMARK    2  A    between atoms: C_2  and  C_4
REMARK    3  A    between atoms: C_5  and  C_6
REMARK    4  A    between atoms: N_7  and  C_8
REMARK    5  A    between atoms: C_12  and  O_13
REMARK    6  A    between atoms: O_13  and  C_14
REMARK    7  A    between atoms: C_14  and  C_15
REMARK                            x       y       z     vdW  Elec       q    Type
REMARK                         _______ _______ _______ _____ _____    ______ ____
ROOT
ATOM      1  C   UNL     1       3.745   4.036  19.047  0.00  0.00    +0.000 A 
ATOM      2  C   UNL     1       2.879   4.794  19.847  0.00  0.00    +0.000 A 
ATOM      3  C   UNL     1       2.052   4.467  21.049  0.00  0.00    +0.000 C 
ATOM      4  N   UNL     1       2.857   6.078  19.327  0.00  0.00    +0.000 N 
ATOM      5  C   UNL     1       2.113   7.210  19.848  0.00  0.00    +0.000 C 
ATOM      6  C   UNL     1       3.653   6.171  18.208  0.00  0.00    +0.000 A 
ATOM      7  C   UNL     1       3.923   7.263  17.369  0.00  0.00    +0.000 A 
ATOM      8  C   UNL     1       4.777   7.073  16.278  0.00  0.00    +0.000 A 
ATOM      9  C   UNL     1       5.345   5.830  16.023  0.00  0.00    +0.000 A 
ATOM     10  C   UNL     1       5.090   4.759  16.890  0.00  0.00    +0.000 A 
ATOM     11  C   UNL     1       4.220   4.917  18.001  0.00  0.00    +0.000 A 
ENDROOT
BRANCH   1  13
ATOM     12  C   UNL     1       3.495   1.554  18.331  0.00  0.00    +0.000 C 
ATOM     13  C   UNL     1       4.139   2.620  19.174  0.00  0.00    +0.000 C 
ATOM     14  O   UNL     1       5.002   2.271  19.986  0.00  0.00    +0.000 OA
ENDBRANCH   1  13
BRANCH   9  15
ATOM     15  O   UNL     1       6.200   5.563  14.982  0.00  0.00    +0.000 OA
BRANCH  15  16
ATOM     16  C   UNL     1       6.551   4.182  14.831  0.00  0.00    +0.000 C 
BRANCH  16  17
ATOM     17  C   UNL     1       6.004   3.700  13.541  0.00  0.00    +0.000 A 
ATOM     18  N   UNL     1       4.816   3.948  13.026  0.00  0.00    +0.000 NA
ATOM     19  N   UNL     1       4.789   3.310  11.810  0.00  0.00    +0.000 NA
ATOM     20  N   UNL     1       5.933   2.684  11.574  0.00  0.00    +0.000 NA
ATOM     21  N   UNL     1       6.690   2.926  12.654  0.00  0.00    +0.000 N 
ATOM     22  H   UNL     1       7.632   2.556  12.715  0.00  0.00    +0.000 HD
ENDBRANCH  16  17
ENDBRANCH  15  16
ENDBRANCH   9  15
TORSDOF 4
ENDMDL
MODEL 4
REMARK VINA RESULT:      -7.3      2.558      2.995
REMARK  Name = 
REMARK  7 active torsions:
REMARK  status: ('A' for Active; 'I' for Inactive)
REMARK    1  A    between atoms: C_1  and  C_2
REMARK    2  A    between atoms: C_2  and  C_4
REMARK    3  A    between atoms: C_5  and  C_6
REMARK    4  A    between atoms: N_7  and  C_8
REMARK    5  A    between atoms: C_12  and  O_13
REMARK    6  A    between atoms: O_13  and  C_14
REMARK    7  A    between atoms: C_14  and  C_15
REMARK                            x       y       z     vdW  Elec       q    Type
REMARK                         _______ _______ _______ _____ _____    ______ ____
ROOT
ATOM      1  C   UNL     1       3.404   3.599  19.585  0.00  0.00    +0.000 A 
ATOM      2  C   UNL     1       2.452   4.042  20.513  0.00  0.00    +0.000 A 
ATOM      3  C   UNL     1       1.743   3.371  21.646  0.00  0.00    +0.000 C 
ATOM      4  N   UNL     1       2.184   5.370  20.225  0.00  0.00    +0.000 N 
ATOM      5  C   UNL     1       1.274   6.244  20.943  0.00  0.00    +0.000 C 
ATOM      6  C   UNL     1       2.906   5.794  19.133  0.00  0.00    +0.000 A 
ATOM      7  C   UNL     1       2.946   7.043  18.496  0.00  0.00    +0.000 A 
ATOM      8  C   UNL     1       3.776   7.199  17.382  0.00  0.00    +0.000 A 
ATOM      9  C   UNL     1       4.543   6.141  16.908  0.00  0.00    +0.000 A 
ATOM     10  C   UNL     1       4.515   4.909  17.577  0.00  0.00    +0.000 A 
ATOM     11  C   UNL     1       3.676   4.716  18.705  0.00  0.00    +0.000 A 
ENDROOT
BRANCH   1  13
ATOM     12  C   UNL     1       3.648   1.320  18.369  0.00  0.00    +0.000 C 
ATOM     13  C   UNL     1       4.046   2.276  19.459  0.00  0.00    +0.000 C 
ATOM     14  O   UNL     1       4.919   1.915  20.254  0.00  0.00    +0.000 OA
ENDBRANCH   1  13
BRANCH   9  15
ATOM     15  O   UNL     1       5.390   6.213  15.829  0.00  0.00    +0.000 OA
BRANCH  15  16
ATOM     16  C   UNL     1       6.710   5.711  16.066  0.00  0.00    +0.000 C 
BRANCH  16  17
ATOM     17  C   UNL     1       7.349   6.550  17.106  0.00  0.00    +0.000 A 
ATOM     18  N   UNL     1       7.804   6.167  18.283  0.00  0.00    +0.000 NA
ATOM     19  N   UNL     1       8.332   7.290  18.870  0.00  0.00    +0.000 NA
ATOM     20  N   UNL     1       8.211   8.345  18.076  0.00  0.00    +0.000 NA
ATOM     21  N   UNL     1       7.597   7.883  16.977  0.00  0.00    +0.000 N 
ATOM     22  H   UNL     1       7.393   8.505  16.203  0.00  0.00    +0.000 HD
ENDBRANCH  16  17
ENDBRANCH  15  16
ENDBRANCH   9  15
TORSDOF 4
ENDMDL
MODEL 5
REMARK VINA RESULT:      -7.3      3.543      7.410
REMARK  Name = 
REMARK  7 active torsions:
REMARK  status: ('A' for Active; 'I' for Inactive)
REMARK    1  A    between atoms: C_1  and  C_2
REMARK    2  A    between atoms: C_2  and  C_4
REMARK    3  A    between atoms: C_5  and  C_6
REMARK    4  A    between atoms: N_7  and  C_8
REMARK    5  A    between atoms: C_12  and  O_13
REMARK    6  A    between atoms: O_13  and  C_14
REMARK    7  A    between atoms: C_14  and  C_15
REMARK                            x       y       z     vdW  Elec       q    Type
REMARK                         _______ _______ _______ _____ _____    ______ ____
ROOT
ATOM      1  C   UNL     1       2.237   3.665  19.066  0.00  0.00    +0.000 A 
ATOM      2  C   UNL     1       3.141   3.119  18.145  0.00  0.00    +0.000 A 
ATOM      3  C   UNL     1       3.500   1.714  17.779  0.00  0.00    +0.000 C 
ATOM      4  N   UNL     1       3.773   4.177  17.513  0.00  0.00    +0.000 N 
ATOM      5  C   UNL     1       4.774   4.085  16.465  0.00  0.00    +0.000 C 
ATOM      6  C   UNL     1       3.332   5.382  18.007  0.00  0.00    +0.000 A 
ATOM      7  C   UNL     1       3.695   6.695  17.669  0.00  0.00    +0.000 A 
ATOM      8  C   UNL     1       3.085   7.754  18.348  0.00  0.00    +0.000 A 
ATOM      9  C   UNL     1       2.144   7.517  19.343  0.00  0.00    +0.000 A 
ATOM     10  C   UNL     1       1.769   6.200  19.645  0.00  0.00    +0.000 A 
ATOM     11  C   UNL     1       2.376   5.104  18.980  0.00  0.00    +0.000 A 
ENDROOT
BRANCH   1  13
ATOM     12  C   UNL     1       1.592   2.873  21.451  0.00  0.00    +0.000 C 
ATOM     13  C   UNL     1       1.302   2.981  19.980  0.00  0.00    +0.000 C 
ATOM     14  O   UNL     1       0.261   2.469  19.558  0.00  0.00    +0.000 OA
ENDBRANCH   1  13
BRANCH   9  15
ATOM     15  O   UNL     1       1.492   8.499  20.049  0.00  0.00    +0.000 OA
BRANCH  15  16
ATOM     16  C   UNL     1       1.267   8.197  21.431  0.00  0.00    +0.000 C 
BRANCH  16  17
ATOM     17  C   UNL     1       0.577   9.350  22.055  0.00  0.00    +0.000 A 
ATOM     18  N   UNL     1       0.750  10.630  21.792  0.00  0.00    +0.000 NA
ATOM     19  N   UNL     1      -0.132  11.306  22.599  0.00  0.00    +0.000 NA
ATOM     20  N   UNL     1      -0.838  10.465  23.343  0.00  0.00    +0.000 NA
ATOM     21  N   UNL     1      -0.394   9.246  23.005  0.00  0.00    +0.000 N 
ATOM     22  H   UNL     1      -0.787   8.418  23.436  0.00  0.00    +0.000 HD
ENDBRANCH  16  17
ENDBRANCH  15  16
ENDBRANCH   9  15
TORSDOF 4
ENDMDL
MODEL 6
REMARK VINA RESULT:      -7.2      0.735      1.118
REMARK  Name = 
REMARK  7 active torsions:
REMARK  status: ('A' for Active; 'I' for Inactive)
REMARK    1  A    between atoms: C_1  and  C_2
REMARK    2  A    between atoms: C_2  and  C_4
REMARK    3  A    between atoms: C_5  and  C_6
REMARK    4  A    between atoms: N_7  and  C_8
REMARK    5  A    between atoms: C_12  and  O_13
REMARK    6  A    between atoms: O_13  and  C_14
REMARK    7  A    between atoms: C_14  and  C_15
REMARK                            x       y       z     vdW  Elec       q    Type
REMARK                         _______ _______ _______ _____ _____    ______ ____
ROOT
ATOM      1  C   UNL     1       3.240   3.659  19.186  0.00  0.00    +0.000 A 
ATOM      2  C   UNL     1       2.328   4.132  20.138  0.00  0.00    +0.000 A 
ATOM      3  C   UNL     1       1.535   3.459  21.212  0.00  0.00    +0.000 C 
ATOM      4  N   UNL     1       2.210   5.499  19.951  0.00  0.00    +0.000 N 
ATOM      5  C   UNL     1       1.390   6.411  20.728  0.00  0.00    +0.000 C 
ATOM      6  C   UNL     1       2.990   5.923  18.899  0.00  0.00    +0.000 A 
ATOM      7  C   UNL     1       3.174   7.205  18.359  0.00  0.00    +0.000 A 
ATOM      8  C   UNL     1       4.032   7.352  17.265  0.00  0.00    +0.000 A 
ATOM      9  C   UNL     1       4.686   6.255  16.716  0.00  0.00    +0.000 A 
ATOM     10  C   UNL     1       4.515   4.987  17.290  0.00  0.00    +0.000 A 
ATOM     11  C   UNL     1       3.644   4.803  18.395  0.00  0.00    +0.000 A 
ENDROOT
BRANCH   1  13
ATOM     12  C   UNL     1       4.650   1.620  19.954  0.00  0.00    +0.000 C 
ATOM     13  C   UNL     1       3.737   2.287  18.963  0.00  0.00    +0.000 C 
ATOM     14  O   UNL     1       3.424   1.655  17.950  0.00  0.00    +0.000 OA
ENDBRANCH   1  13
BRANCH   9  15
ATOM     15  O   UNL     1       5.551   6.315  15.652  0.00  0.00    +0.000 OA
BRANCH  15  16
ATOM     16  C   UNL     1       6.597   5.337  15.670  0.00  0.00    +0.000 C 
BRANCH  16  17
ATOM     17  C   UNL     1       6.745   4.784  14.304  0.00  0.00    +0.000 A 
ATOM     18  N   UNL     1       6.103   3.761  13.774  0.00  0.00    +0.000 NA
ATOM     19  N   UNL     1       6.558   3.655  12.483  0.00  0.00    +0.000 NA
ATOM     20  N   UNL     1       7.458   4.591  12.216  0.00  0.00    +0.000 NA
ATOM     21  N   UNL     1       7.576   5.294  13.351  0.00  0.00    +0.000 N 
ATOM     22  H   UNL     1       8.209   6.084  13.404  0.00  0.00    +0.000 HD
ENDBRANCH  16  17
ENDBRANCH  15  16
ENDBRANCH   9  15
TORSDOF 4
ENDMDL
MODEL 7
REMARK VINA RESULT:      -7.1      1.447      1.939
REMARK  Name = 
REMARK  7 active torsions:
REMARK  status: ('A' for Active; 'I' for Inactive)
REMARK    1  A    between atoms: C_1  and  C_2
REMARK    2  A    between atoms: C_2  and  C_4
REMARK    3  A    between atoms: C_5  and  C_6
REMARK    4  A    between atoms: N_7  and  C_8
REMARK    5  A    between atoms: C_12  and  O_13
REMARK    6  A    between atoms: O_13  and  C_14
REMARK    7  A    between atoms: C_14  and  C_15
REMARK                            x       y       z     vdW  Elec       q    Type
REMARK                         _______ _______ _______ _____ _____    ______ ____
ROOT
ATOM      1  C   UNL     1       3.402   4.106  18.916  0.00  0.00    +0.000 A 
ATOM      2  C   UNL     1       2.689   5.223  19.370  0.00  0.00    +0.000 A 
ATOM      3  C   UNL     1       1.702   5.423  20.475  0.00  0.00    +0.000 C 
ATOM      4  N   UNL     1       3.038   6.291  18.560  0.00  0.00    +0.000 N 
ATOM      5  C   UNL     1       2.561   7.657  18.676  0.00  0.00    +0.000 C 
ATOM      6  C   UNL     1       3.929   5.901  17.586  0.00  0.00    +0.000 A 
ATOM      7  C   UNL     1       4.540   6.639  16.561  0.00  0.00    +0.000 A 
ATOM      8  C   UNL     1       5.412   5.979  15.690  0.00  0.00    +0.000 A 
ATOM      9  C   UNL     1       5.667   4.620  15.829  0.00  0.00    +0.000 A 
ATOM     10  C   UNL     1       5.074   3.906  16.879  0.00  0.00    +0.000 A 
ATOM     11  C   UNL     1       4.177   4.544  17.774  0.00  0.00    +0.000 A 
ENDROOT
BRANCH   1  13
ATOM     12  C   UNL     1       2.986   1.567  18.578  0.00  0.00    +0.000 C 
ATOM     13  C   UNL     1       3.413   2.725  19.437  0.00  0.00    +0.000 C 
ATOM     14  O   UNL     1       3.761   2.487  20.597  0.00  0.00    +0.000 OA
ENDBRANCH   1  13
BRANCH   9  15
ATOM     15  O   UNL     1       6.517   3.900  15.025  0.00  0.00    +0.000 OA
BRANCH  15  16
ATOM     16  C   UNL     1       6.740   4.464  13.727  0.00  0.00    +0.000 C 
BRANCH  16  17
ATOM     17  C   UNL     1       6.052   3.618  12.725  0.00  0.00    +0.000 A 
ATOM     18  N   UNL     1       6.550   2.599  12.052  0.00  0.00    +0.000 NA
ATOM     19  N   UNL     1       5.526   2.120  11.274  0.00  0.00    +0.000 NA
ATOM     20  N   UNL     1       4.417   2.822  11.461  0.00  0.00    +0.000 NA
ATOM     21  N   UNL     1       4.745   3.756  12.364  0.00  0.00    +0.000 N 
ATOM     22  H   UNL     1       4.056   4.426  12.686  0.00  0.00    +0.000 HD
ENDBRANCH  16  17
ENDBRANCH  15  16
ENDBRANCH   9  15
TORSDOF 4
ENDMDL
MODEL 8
REMARK VINA RESULT:      -7.0      3.334      7.263
REMARK  Name = 
REMARK  7 active torsions:
REMARK  status: ('A' for Active; 'I' for Inactive)
REMARK    1  A    between atoms: C_1  and  C_2
REMARK    2  A    between atoms: C_2  and  C_4
REMARK    3  A    between atoms: C_5  and  C_6
REMARK    4  A    between atoms: N_7  and  C_8
REMARK    5  A    between atoms: C_12  and  O_13
REMARK    6  A    between atoms: O_13  and  C_14
REMARK    7  A    between atoms: C_14  and  C_15
REMARK                            x       y       z     vdW  Elec       q    Type
REMARK                         _______ _______ _______ _____ _____    ______ ____
ROOT
ATOM      1  C   UNL     1       2.929   3.577  19.721  0.00  0.00    +0.000 A 
ATOM      2  C   UNL     1       3.686   2.961  18.715  0.00  0.00    +0.000 A 
ATOM      3  C   UNL     1       4.159   1.557  18.512  0.00  0.00    +0.000 C 
ATOM      4  N   UNL     1       4.009   3.936  17.786  0.00  0.00    +0.000 N 
ATOM      5  C   UNL     1       4.765   3.748  16.562  0.00  0.00    +0.000 C 
ATOM      6  C   UNL     1       3.512   5.162  18.166  0.00  0.00    +0.000 A 
ATOM      7  C   UNL     1       3.601   6.415  17.539  0.00  0.00    +0.000 A 
ATOM      8  C   UNL     1       3.002   7.516  18.159  0.00  0.00    +0.000 A 
ATOM      9  C   UNL     1       2.339   7.380  19.373  0.00  0.00    +0.000 A 
ATOM     10  C   UNL     1       2.233   6.115  19.968  0.00  0.00    +0.000 A 
ATOM     11  C   UNL     1       2.837   4.979  19.368  0.00  0.00    +0.000 A 
ENDROOT
BRANCH   1  13
ATOM     12  C   UNL     1       0.827   2.869  21.068  0.00  0.00    +0.000 C 
ATOM     13  C   UNL     1       2.320   2.990  20.929  0.00  0.00    +0.000 C 
ATOM     14  O   UNL     1       3.020   2.593  21.865  0.00  0.00    +0.000 OA
ENDBRANCH   1  13
BRANCH   9  15
ATOM     15  O   UNL     1       1.717   8.406  20.041  0.00  0.00    +0.000 OA
BRANCH  15  16
ATOM     16  C   UNL     1       1.123   8.037  21.292  0.00  0.00    +0.000 C 
BRANCH  16  17
ATOM     17  C   UNL     1       0.547   9.252  21.912  0.00  0.00    +0.000 A 
ATOM     18  N   UNL     1      -0.048   9.354  23.084  0.00  0.00    +0.000 NA
ATOM     19  N   UNL     1      -0.380  10.678  23.228  0.00  0.00    +0.000 NA
ATOM     20  N   UNL     1       0.002  11.383  22.172  0.00  0.00    +0.000 NA
ATOM     21  N   UNL     1       0.578  10.494  21.351  0.00  0.00    +0.000 N 
ATOM     22  H   UNL     1       0.966  10.790  20.463  0.00  0.00    +0.000 HD
ENDBRANCH  16  17
ENDBRANCH  15  16
ENDBRANCH   9  15
TORSDOF 4
ENDMDL
MODEL 9
REMARK VINA RESULT:      -6.9      2.556      2.906
REMARK  Name = 
REMARK  7 active torsions:
REMARK  status: ('A' for Active; 'I' for Inactive)
REMARK    1  A    between atoms: C_1  and  C_2
REMARK    2  A    between atoms: C_2  and  C_4
REMARK    3  A    between atoms: C_5  and  C_6
REMARK    4  A    between atoms: N_7  and  C_8
REMARK    5  A    between atoms: C_12  and  O_13
REMARK    6  A    between atoms: O_13  and  C_14
REMARK    7  A    between atoms: C_14  and  C_15
REMARK                            x       y       z     vdW  Elec       q    Type
REMARK                         _______ _______ _______ _____ _____    ______ ____
ROOT
ATOM      1  C   UNL     1       2.609   3.714  18.537  0.00  0.00    +0.000 A 
ATOM      2  C   UNL     1       1.832   4.313  19.537  0.00  0.00    +0.000 A 
ATOM      3  C   UNL     1       0.838   3.775  20.516  0.00  0.00    +0.000 C 
ATOM      4  N   UNL     1       2.115   5.669  19.521  0.00  0.00    +0.000 N 
ATOM      5  C   UNL     1       1.558   6.680  20.401  0.00  0.00    +0.000 C 
ATOM      6  C   UNL     1       3.024   5.971  18.533  0.00  0.00    +0.000 A 
ATOM      7  C   UNL     1       3.586   7.201  18.157  0.00  0.00    +0.000 A 
ATOM      8  C   UNL     1       4.493   7.224  17.093  0.00  0.00    +0.000 A 
ATOM      9  C   UNL     1       4.829   6.058  16.415  0.00  0.00    +0.000 A 
ATOM     10  C   UNL     1       4.282   4.834  16.826  0.00  0.00    +0.000 A 
ATOM     11  C   UNL     1       3.352   4.778  17.896  0.00  0.00    +0.000 A 
ENDROOT
BRANCH   1  13
ATOM     12  C   UNL     1       3.723   1.382  18.773  0.00  0.00    +0.000 C 
ATOM     13  C   UNL     1       2.703   2.294  18.148  0.00  0.00    +0.000 C 
ATOM     14  O   UNL     1       1.953   1.819  17.289  0.00  0.00    +0.000 OA
ENDBRANCH   1  13
BRANCH   9  15
ATOM     15  O   UNL     1       5.717   5.992  15.369  0.00  0.00    +0.000 OA
BRANCH  15  16
ATOM     16  C   UNL     1       6.842   5.132  15.588  0.00  0.00    +0.000 C 
BRANCH  16  17
ATOM     17  C   UNL     1       7.356   5.374  16.956  0.00  0.00    +0.000 A 
ATOM     18  N   UNL     1       7.714   6.525  17.491  0.00  0.00    +0.000 NA
ATOM     19  N   UNL     1       8.089   6.245  18.781  0.00  0.00    +0.000 NA
ATOM     20  N   UNL     1       7.966   4.950  19.043  0.00  0.00    +0.000 NA
ATOM     21  N   UNL     1       7.510   4.408  17.905  0.00  0.00    +0.000 N 
ATOM     22  H   UNL     1       7.323   3.413  17.848  0.00  0.00    +0.000 HD
ENDBRANCH  16  17
ENDBRANCH  15  16
ENDBRANCH   9  15
TORSDOF 4
ENDMDL
