MODEL 1
REMARK VINA RESULT:      -7.1      0.000      0.000
REMARK  Name = 
REMARK  3 active torsions:
REMARK  status: ('A' for Active; 'I' for Inactive)
REMARK    1  A    between atoms: C_1  and  O_2
REMARK    2  A    between atoms: O_2  and  C_3
REMARK    3  A    between atoms: C_12  and  C_14
REMARK                            x       y       z     vdW  Elec       q    Type
REMARK                         _______ _______ _______ _____ _____    ______ ____
ROOT
ATOM      1  C   UNL     1       0.393  10.521  21.341  0.00  0.00    +0.000 A 
ATOM      2  C   UNL     1       0.008  11.721  20.718  0.00  0.00    +0.000 A 
ATOM      3  C   UNL     1       0.226  11.914  19.362  0.00  0.00    +0.000 A 
ATOM      4  F   UNL     1      -0.156  13.069  18.799  0.00  0.00    +0.000 F 
ATOM      5  C   UNL     1       0.833  10.950  18.572  0.00  0.00    +0.000 A 
ATOM      6  C   UNL     1       1.221   9.756  19.193  0.00  0.00    +0.000 A 
ATOM      7  S   UNL     1       1.980   8.398  18.475  0.00  0.00    +0.000 S 
ATOM      8  C   UNL     1       1.964   7.583  19.970  0.00  0.00    +0.000 A 
ATOM      9  N   UNL     1       2.467   6.310  20.104  0.00  0.00    +0.000 N 
ATOM     10  C   UNL     1       2.835   5.460  19.073  0.00  0.00    +0.000 C 
ATOM     11  O   UNL     1       2.727   5.676  17.870  0.00  0.00    +0.000 OA
ATOM     12  N   UNL     1       1.483   8.261  20.982  0.00  0.00    +0.000 NA
ATOM     13  C   UNL     1       1.025   9.514  20.556  0.00  0.00    +0.000 A 
ATOM     14  H   UNL     1       2.456   5.946  21.048  0.00  0.00    +0.000 HD
ENDROOT
BRANCH  10  15
ATOM     15  C   UNL     1       3.439   4.141  19.605  0.00  0.00    +0.000 C 
ATOM     16  C   UNL     1       3.772   3.132  18.499  0.00  0.00    +0.000 C 
ATOM     17  C   UNL     1       2.530   2.425  17.961  0.00  0.00    +0.000 C 
ATOM     18  C   UNL     1       1.652   1.918  19.096  0.00  0.00    +0.000 C 
ATOM     19  C   UNL     1       1.414   3.001  20.138  0.00  0.00    +0.000 C 
ATOM     20  O   UNL     1       2.644   3.541  20.629  0.00  0.00    +0.000 OA
ENDBRANCH  10  15
BRANCH   1  22
ATOM     21  C   UNL     1      -1.087  10.530  23.201  0.00  0.00    +0.000 C 
ATOM     22  O   UNL     1       0.218  10.285  22.684  0.00  0.00    +0.000 OA
ENDBRANCH   1  22
TORSDOF 2
ENDMDL
MODEL 2
REMARK VINA RESULT:      -6.9      5.731      8.531
REMARK  Name = 
REMARK  3 active torsions:
REMARK  status: ('A' for Active; 'I' for Inactive)
REMARK    1  A    between atoms: C_1  and  O_2
REMARK    2  A    between atoms: O_2  and  C_3
REMARK    3  A    between atoms: C_12  and  C_14
REMARK                            x       y       z     vdW  Elec       q    Type
REMARK                         _______ _______ _______ _____ _____    ______ ____
ROOT
ATOM      1  C   UNL     1       6.303   3.697  12.913  0.00  0.00    +0.000 A 
ATOM      2  C   UNL     1       7.257   4.508  12.275  0.00  0.00    +0.000 A 
ATOM      3  C   UNL     1       7.969   5.459  12.992  0.00  0.00    +0.000 A 
ATOM      4  F   UNL     1       8.873   6.213  12.353  0.00  0.00    +0.000 F 
ATOM      5  C   UNL     1       7.770   5.653  14.350  0.00  0.00    +0.000 A 
ATOM      6  C   UNL     1       6.816   4.847  14.986  0.00  0.00    +0.000 A 
ATOM      7  S   UNL     1       6.366   4.860  16.639  0.00  0.00    +0.000 S 
ATOM      8  C   UNL     1       5.271   3.587  16.364  0.00  0.00    +0.000 A 
ATOM      9  N   UNL     1       4.511   3.055  17.379  0.00  0.00    +0.000 N 
ATOM     10  C   UNL     1       4.666   3.298  18.734  0.00  0.00    +0.000 C 
ATOM     11  O   UNL     1       5.536   3.984  19.261  0.00  0.00    +0.000 OA
ATOM     12  N   UNL     1       5.171   3.181  15.122  0.00  0.00    +0.000 NA
ATOM     13  C   UNL     1       6.072   3.879  14.308  0.00  0.00    +0.000 A 
ATOM     14  H   UNL     1       3.854   2.341  17.090  0.00  0.00    +0.000 HD
ENDROOT
BRANCH  10  15
ATOM     15  C   UNL     1       3.575   2.594  19.572  0.00  0.00    +0.000 C 
ATOM     16  C   UNL     1       2.323   2.231  18.763  0.00  0.00    +0.000 C 
ATOM     17  C   UNL     1       1.431   3.441  18.495  0.00  0.00    +0.000 C 
ATOM     18  C   UNL     1       1.206   4.249  19.766  0.00  0.00    +0.000 C 
ATOM     19  C   UNL     1       2.517   4.524  20.488  0.00  0.00    +0.000 C 
ATOM     20  O   UNL     1       3.234   3.315  20.756  0.00  0.00    +0.000 OA
ENDBRANCH  10  15
BRANCH   1  22
ATOM     21  C   UNL     1       4.440   3.243  11.508  0.00  0.00    +0.000 C 
ATOM     22  O   UNL     1       5.556   2.754  12.247  0.00  0.00    +0.000 OA
ENDBRANCH   1  22
TORSDOF 2
ENDMDL
MODEL 3
REMARK VINA RESULT:      -6.8      2.605      3.724
REMARK  Name = 
REMARK  3 active torsions:
REMARK  status: ('A' for Active; 'I' for Inactive)
REMARK    1  A    between atoms: C_1  and  O_2
REMARK    2  A    between atoms: O_2  and  C_3
REMARK    3  A    between atoms: C_12  and  C_14
REMARK                            x       y       z     vdW  Elec       q    Type
REMARK                         _______ _______ _______ _____ _____    ______ ____
ROOT
ATOM      1  C   UNL     1       0.078  10.932  19.971  0.00  0.00    +0.000 A 
ATOM      2  C   UNL     1      -0.576  11.249  21.174  0.00  0.00    +0.000 A 
ATOM      3  C   UNL     1      -0.527  10.381  22.255  0.00  0.00    +0.000 A 
ATOM      4  F   UNL     1      -1.160  10.715  23.387  0.00  0.00    +0.000 F 
ATOM      5  C   UNL     1       0.155   9.175  22.197  0.00  0.00    +0.000 A 
ATOM      6  C   UNL     1       0.805   8.857  20.997  0.00  0.00    +0.000 A 
ATOM      7  S   UNL     1       1.720   7.453  20.639  0.00  0.00    +0.000 S 
ATOM      8  C   UNL     1       2.052   8.052  19.081  0.00  0.00    +0.000 A 
ATOM      9  N   UNL     1       2.824   7.348  18.186  0.00  0.00    +0.000 N 
ATOM     10  C   UNL     1       3.589   6.227  18.466  0.00  0.00    +0.000 C 
ATOM     11  O   UNL     1       3.748   5.703  19.564  0.00  0.00    +0.000 OA
ATOM     12  N   UNL     1       1.491   9.197  18.780  0.00  0.00    +0.000 NA
ATOM     13  C   UNL     1       0.783   9.696  19.879  0.00  0.00    +0.000 A 
ATOM     14  H   UNL     1       2.909   7.773  17.271  0.00  0.00    +0.000 HD
ENDROOT
BRANCH  10  15
ATOM     15  C   UNL     1       4.255   5.655  17.194  0.00  0.00    +0.000 C 
ATOM     16  C   UNL     1       5.087   4.393  17.456  0.00  0.00    +0.000 C 
ATOM     17  C   UNL     1       6.434   4.706  18.102  0.00  0.00    +0.000 C 
ATOM     18  C   UNL     1       7.139   5.843  17.376  0.00  0.00    +0.000 C 
ATOM     19  C   UNL     1       6.205   7.025  17.155  0.00  0.00    +0.000 C 
ATOM     20  O   UNL     1       5.009   6.631  16.476  0.00  0.00    +0.000 OA
ENDBRANCH  10  15
BRANCH   1  22
ATOM     21  C   UNL     1      -1.247  12.076  18.362  0.00  0.00    +0.000 C 
ATOM     22  O   UNL     1       0.046  11.746  18.863  0.00  0.00    +0.000 OA
ENDBRANCH   1  22
TORSDOF 2
ENDMDL
MODEL 4
REMARK VINA RESULT:      -6.7      3.031      3.938
REMARK  Name = 
REMARK  3 active torsions:
REMARK  status: ('A' for Active; 'I' for Inactive)
REMARK    1  A    between atoms: C_1  and  O_2
REMARK    2  A    between atoms: O_2  and  C_3
REMARK    3  A    between atoms: C_12  and  C_14
REMARK                            x       y       z     vdW  Elec       q    Type
REMARK                         _______ _______ _______ _____ _____    ______ ____
ROOT
ATOM      1  C   UNL     1       0.209  10.685  19.692  0.00  0.00    +0.000 A 
ATOM      2  C   UNL     1      -0.497  10.733  20.906  0.00  0.00    +0.000 A 
ATOM      3  C   UNL     1      -0.378   9.708  21.834  0.00  0.00    +0.000 A 
ATOM      4  F   UNL     1      -1.063   9.788  22.983  0.00  0.00    +0.000 F 
ATOM      5  C   UNL     1       0.426   8.603  21.606  0.00  0.00    +0.000 A 
ATOM      6  C   UNL     1       1.127   8.552  20.394  0.00  0.00    +0.000 A 
ATOM      7  S   UNL     1       2.189   7.324  19.846  0.00  0.00    +0.000 S 
ATOM      8  C   UNL     1       2.487   8.200  18.418  0.00  0.00    +0.000 A 
ATOM      9  N   UNL     1       3.343   7.734  17.449  0.00  0.00    +0.000 N 
ATOM     10  C   UNL     1       4.215   6.663  17.570  0.00  0.00    +0.000 C 
ATOM     11  O   UNL     1       4.407   5.984  18.574  0.00  0.00    +0.000 OA
ATOM     12  N   UNL     1       1.816   9.318  18.286  0.00  0.00    +0.000 NA
ATOM     13  C   UNL     1       1.039   9.557  19.426  0.00  0.00    +0.000 A 
ATOM     14  H   UNL     1       3.401   8.309  16.618  0.00  0.00    +0.000 HD
ENDROOT
BRANCH  10  15
ATOM     15  C   UNL     1       4.960   6.376  16.247  0.00  0.00    +0.000 C 
ATOM     16  C   UNL     1       4.894   4.905  15.816  0.00  0.00    +0.000 C 
ATOM     17  C   UNL     1       5.842   4.019  16.620  0.00  0.00    +0.000 C 
ATOM     18  C   UNL     1       7.230   4.637  16.706  0.00  0.00    +0.000 C 
ATOM     19  C   UNL     1       7.161   6.101  17.120  0.00  0.00    +0.000 C 
ATOM     20  O   UNL     1       6.306   6.853  16.254  0.00  0.00    +0.000 OA
ENDBRANCH  10  15
BRANCH   1  22
ATOM     21  C   UNL     1      -1.206  12.007  18.312  0.00  0.00    +0.000 C 
ATOM     22  O   UNL     1       0.113  11.662  18.730  0.00  0.00    +0.000 OA
ENDBRANCH   1  22
TORSDOF 2
ENDMDL
MODEL 5
REMARK VINA RESULT:      -6.6      2.065      2.744
REMARK  Name = 
REMARK  3 active torsions:
REMARK  status: ('A' for Active; 'I' for Inactive)
REMARK    1  A    between atoms: C_1  and  O_2
REMARK    2  A    between atoms: O_2  and  C_3
REMARK    3  A    between atoms: C_12  and  C_14
REMARK                            x       y       z     vdW  Elec       q    Type
REMARK                         _______ _______ _______ _____ _____    ______ ____
ROOT
ATOM      1  C   UNL     1      -0.178   9.447  21.002  0.00  0.00    +0.000 A 
ATOM      2  C   UNL     1      -0.843  10.595  20.540  0.00  0.00    +0.000 A 
ATOM      3  C   UNL     1      -0.527  11.147  19.307  0.00  0.00    +0.000 A 
ATOM      4  F   UNL     1      -1.183  12.241  18.896  0.00  0.00    +0.000 F 
ATOM      5  C   UNL     1       0.450  10.602  18.489  0.00  0.00    +0.000 A 
ATOM      6  C   UNL     1       1.116   9.459  18.951  0.00  0.00    +0.000 A 
ATOM      7  S   UNL     1       2.353   8.575  18.161  0.00  0.00    +0.000 S 
ATOM      8  C   UNL     1       2.407   7.471  19.455  0.00  0.00    +0.000 A 
ATOM      9  N   UNL     1       3.268   6.398  19.454  0.00  0.00    +0.000 N 
ATOM     10  C   UNL     1       4.016   5.946  18.379  0.00  0.00    +0.000 C 
ATOM     11  O   UNL     1       3.999   6.391  17.235  0.00  0.00    +0.000 OA
ATOM     12  N   UNL     1       1.611   7.735  20.462  0.00  0.00    +0.000 NA
ATOM     13  C   UNL     1       0.836   8.867  20.185  0.00  0.00    +0.000 A 
ATOM     14  H   UNL     1       3.254   5.841  20.299  0.00  0.00    +0.000 HD
ENDROOT
BRANCH  10  15
ATOM     15  C   UNL     1       4.935   4.769  18.773  0.00  0.00    +0.000 C 
ATOM     16  C   UNL     1       6.302   5.215  19.308  0.00  0.00    +0.000 C 
ATOM     17  C   UNL     1       7.245   5.666  18.195  0.00  0.00    +0.000 C 
ATOM     18  C   UNL     1       7.261   4.664  17.049  0.00  0.00    +0.000 C 
ATOM     19  C   UNL     1       5.849   4.284  16.625  0.00  0.00    +0.000 C 
ATOM     20  O   UNL     1       5.078   3.804  17.730  0.00  0.00    +0.000 OA
ENDBRANCH  10  15
BRANCH   1  22
ATOM     21  C   UNL     1       0.018   9.587  23.367  0.00  0.00    +0.000 C 
ATOM     22  O   UNL     1      -0.439   8.870  22.223  0.00  0.00    +0.000 OA
ENDBRANCH   1  22
TORSDOF 2
ENDMDL
MODEL 6
REMARK VINA RESULT:      -6.5      1.991      2.710
REMARK  Name = 
REMARK  3 active torsions:
REMARK  status: ('A' for Active; 'I' for Inactive)
REMARK    1  A    between atoms: C_1  and  O_2
REMARK    2  A    between atoms: O_2  and  C_3
REMARK    3  A    between atoms: C_12  and  C_14
REMARK                            x       y       z     vdW  Elec       q    Type
REMARK                         _______ _______ _______ _____ _____    ______ ____
ROOT
ATOM      1  C   UNL     1       0.640  10.868  19.909  0.00  0.00    +0.000 A 
ATOM      2  C   UNL     1      -0.051  11.449  20.986  0.00  0.00    +0.000 A 
ATOM      3  C   UNL     1      -0.316  10.717  22.134  0.00  0.00    +0.000 A 
ATOM      4  F   UNL     1      -0.975  11.303  23.142  0.00  0.00    +0.000 F 
ATOM      5  C   UNL     1       0.077   9.394  22.266  0.00  0.00    +0.000 A 
ATOM      6  C   UNL     1       0.763   8.813  21.191  0.00  0.00    +0.000 A 
ATOM      7  S   UNL     1       1.369   7.214  21.074  0.00  0.00    +0.000 S 
ATOM      8  C   UNL     1       1.994   7.551  19.527  0.00  0.00    +0.000 A 
ATOM      9  N   UNL     1       2.677   6.603  18.802  0.00  0.00    +0.000 N 
ATOM     10  C   UNL     1       3.133   5.382  19.272  0.00  0.00    +0.000 C 
ATOM     11  O   UNL     1       3.051   4.961  20.422  0.00  0.00    +0.000 OA
ATOM     12  N   UNL     1       1.743   8.749  19.061  0.00  0.00    +0.000 NA
ATOM     13  C   UNL     1       1.052   9.507  20.013  0.00  0.00    +0.000 A 
ATOM     14  H   UNL     1       2.955   6.896  17.874  0.00  0.00    +0.000 HD
ENDROOT
BRANCH  10  15
ATOM     15  C   UNL     1       3.785   4.542  18.150  0.00  0.00    +0.000 C 
ATOM     16  C   UNL     1       2.768   3.802  17.272  0.00  0.00    +0.000 C 
ATOM     17  C   UNL     1       2.197   2.564  17.959  0.00  0.00    +0.000 C 
ATOM     18  C   UNL     1       3.303   1.718  18.573  0.00  0.00    +0.000 C 
ATOM     19  C   UNL     1       4.258   2.568  19.399  0.00  0.00    +0.000 C 
ATOM     20  O   UNL     1       4.791   3.654  18.636  0.00  0.00    +0.000 OA
ENDBRANCH  10  15
BRANCH   1  22
ATOM     21  C   UNL     1       1.923  12.544  18.815  0.00  0.00    +0.000 C 
ATOM     22  O   UNL     1       0.912  11.542  18.742  0.00  0.00    +0.000 OA
ENDBRANCH   1  22
TORSDOF 2
ENDMDL
MODEL 7
REMARK VINA RESULT:      -6.4      2.934      7.519
REMARK  Name = 
REMARK  3 active torsions:
REMARK  status: ('A' for Active; 'I' for Inactive)
REMARK    1  A    between atoms: C_1  and  O_2
REMARK    2  A    between atoms: O_2  and  C_3
REMARK    3  A    between atoms: C_12  and  C_14
REMARK                            x       y       z     vdW  Elec       q    Type
REMARK                         _______ _______ _______ _____ _____    ______ ____
ROOT
ATOM      1  C   UNL     1       2.772   4.664  20.195  0.00  0.00    +0.000 A 
ATOM      2  C   UNL     1       3.473   3.787  19.349  0.00  0.00    +0.000 A 
ATOM      3  C   UNL     1       3.862   4.189  18.080  0.00  0.00    +0.000 A 
ATOM      4  F   UNL     1       4.531   3.328  17.301  0.00  0.00    +0.000 F 
ATOM      5  C   UNL     1       3.575   5.454  17.592  0.00  0.00    +0.000 A 
ATOM      6  C   UNL     1       2.874   6.328  18.432  0.00  0.00    +0.000 A 
ATOM      7  S   UNL     1       2.389   7.938  18.103  0.00  0.00    +0.000 S 
ATOM      8  C   UNL     1       1.714   8.066  19.660  0.00  0.00    +0.000 A 
ATOM      9  N   UNL     1       1.107   9.223  20.091  0.00  0.00    +0.000 N 
ATOM     10  C   UNL     1       1.147  10.455  19.459  0.00  0.00    +0.000 C 
ATOM     11  O   UNL     1       1.768  10.737  18.439  0.00  0.00    +0.000 OA
ATOM     12  N   UNL     1       1.771   6.984  20.396  0.00  0.00    +0.000 NA
ATOM     13  C   UNL     1       2.458   5.970  19.718  0.00  0.00    +0.000 A 
ATOM     14  H   UNL     1       0.692   9.167  21.013  0.00  0.00    +0.000 HD
ENDROOT
BRANCH  10  15
ATOM     15  C   UNL     1       0.278  11.504  20.191  0.00  0.00    +0.000 C 
ATOM     16  C   UNL     1      -0.456  12.458  19.240  0.00  0.00    +0.000 C 
ATOM     17  C   UNL     1       0.466  13.528  18.661  0.00  0.00    +0.000 C 
ATOM     18  C   UNL     1       1.310  14.174  19.750  0.00  0.00    +0.000 C 
ATOM     19  C   UNL     1       1.966  13.127  20.638  0.00  0.00    +0.000 C 
ATOM     20  O   UNL     1       1.002  12.224  21.189  0.00  0.00    +0.000 OA
ENDBRANCH  10  15
BRANCH   1  22
ATOM     21  C   UNL     1       1.700   3.047  21.568  0.00  0.00    +0.000 C 
ATOM     22  O   UNL     1       2.347   4.311  21.454  0.00  0.00    +0.000 OA
ENDBRANCH   1  22
TORSDOF 2
ENDMDL
MODEL 8
REMARK VINA RESULT:      -6.1      2.170      3.162
REMARK  Name = 
REMARK  3 active torsions:
REMARK  status: ('A' for Active; 'I' for Inactive)
REMARK    1  A    between atoms: C_1  and  O_2
REMARK    2  A    between atoms: O_2  and  C_3
REMARK    3  A    between atoms: C_12  and  C_14
REMARK                            x       y       z     vdW  Elec       q    Type
REMARK                         _______ _______ _______ _____ _____    ______ ____
ROOT
ATOM      1  C   UNL     1       0.228  12.197  20.399  0.00  0.00    +0.000 A 
ATOM      2  C   UNL     1      -0.489  12.692  21.501  0.00  0.00    +0.000 A 
ATOM      3  C   UNL     1      -0.857  11.850  22.541  0.00  0.00    +0.000 A 
ATOM      4  F   UNL     1      -1.538  12.356  23.578  0.00  0.00    +0.000 F 
ATOM      5  C   UNL     1      -0.543  10.500  22.537  0.00  0.00    +0.000 A 
ATOM      6  C   UNL     1       0.168  10.005  21.436  0.00  0.00    +0.000 A 
ATOM      7  S   UNL     1       0.693   8.397  21.163  0.00  0.00    +0.000 S 
ATOM      8  C   UNL     1       1.420   8.869  19.698  0.00  0.00    +0.000 A 
ATOM      9  N   UNL     1       2.091   7.971  18.902  0.00  0.00    +0.000 N 
ATOM     10  C   UNL     1       2.453   6.679  19.247  0.00  0.00    +0.000 C 
ATOM     11  O   UNL     1       2.284   6.135  20.335  0.00  0.00    +0.000 OA
ATOM     12  N   UNL     1       1.260  10.126  19.363  0.00  0.00    +0.000 NA
ATOM     13  C   UNL     1       0.559  10.811  20.363  0.00  0.00    +0.000 A 
ATOM     14  H   UNL     1       2.434   8.350  18.029  0.00  0.00    +0.000 HD
ENDROOT
BRANCH  10  15
ATOM     15  C   UNL     1       3.120   5.935  18.068  0.00  0.00    +0.000 C 
ATOM     16  C   UNL     1       2.678   4.471  17.942  0.00  0.00    +0.000 C 
ATOM     17  C   UNL     1       3.346   3.569  18.976  0.00  0.00    +0.000 C 
ATOM     18  C   UNL     1       4.846   3.820  19.036  0.00  0.00    +0.000 C 
ATOM     19  C   UNL     1       5.156   5.307  19.137  0.00  0.00    +0.000 C 
ATOM     20  O   UNL     1       4.543   6.046  18.076  0.00  0.00    +0.000 OA
ENDBRANCH  10  15
BRANCH   1  22
ATOM     21  C   UNL     1      -0.428  13.307  18.402  0.00  0.00    +0.000 C 
ATOM     22  O   UNL     1       0.600  12.982  19.333  0.00  0.00    +0.000 OA
ENDBRANCH   1  22
TORSDOF 2
ENDMDL
MODEL 9
REMARK VINA RESULT:      -6.1      2.303      3.432
REMARK  Name = 
REMARK  3 active torsions:
REMARK  status: ('A' for Active; 'I' for Inactive)
REMARK    1  A    between atoms: C_1  and  O_2
REMARK    2  A    between atoms: O_2  and  C_3
REMARK    3  A    between atoms: C_12  and  C_14
REMARK                            x       y       z     vdW  Elec       q    Type
REMARK                         _______ _______ _______ _____ _____    ______ ____
ROOT
ATOM      1  C   UNL     1       0.503  11.761  19.717  0.00  0.00    +0.000 A 
ATOM      2  C   UNL     1      -0.118  12.320  20.847  0.00  0.00    +0.000 A 
ATOM      3  C   UNL     1      -0.311  11.565  21.994  0.00  0.00    +0.000 A 
ATOM      4  F   UNL     1      -0.904  12.130  23.054  0.00  0.00    +0.000 F 
ATOM      5  C   UNL     1       0.089  10.240  22.074  0.00  0.00    +0.000 A 
ATOM      6  C   UNL     1       0.704   9.680  20.947  0.00  0.00    +0.000 A 
ATOM      7  S   UNL     1       1.300   8.085  20.760  0.00  0.00    +0.000 S 
ATOM      8  C   UNL     1       1.826   8.452  19.184  0.00  0.00    +0.000 A 
ATOM      9  N   UNL     1       2.462   7.520  18.398  0.00  0.00    +0.000 N 
ATOM     10  C   UNL     1       2.945   6.289  18.813  0.00  0.00    +0.000 C 
ATOM     11  O   UNL     1       2.935   5.845  19.957  0.00  0.00    +0.000 OA
ATOM     12  N   UNL     1       1.547   9.660  18.758  0.00  0.00    +0.000 NA
ATOM     13  C   UNL     1       0.919  10.399  19.768  0.00  0.00    +0.000 A 
ATOM     14  H   UNL     1       2.680   7.831  17.460  0.00  0.00    +0.000 HD
ENDROOT
BRANCH  10  15
ATOM     15  C   UNL     1       3.524   5.473  17.636  0.00  0.00    +0.000 C 
ATOM     16  C   UNL     1       4.062   4.098  18.053  0.00  0.00    +0.000 C 
ATOM     17  C   UNL     1       5.419   4.188  18.745  0.00  0.00    +0.000 C 
ATOM     18  C   UNL     1       6.375   5.080  17.965  0.00  0.00    +0.000 C 
ATOM     19  C   UNL     1       5.719   6.401  17.591  0.00  0.00    +0.000 C 
ATOM     20  O   UNL     1       4.494   6.199  16.881  0.00  0.00    +0.000 OA
ENDBRANCH  10  15
BRANCH   1  22
ATOM     21  C   UNL     1       1.857  13.291  18.501  0.00  0.00    +0.000 C 
ATOM     22  O   UNL     1       0.701  12.459  18.548  0.00  0.00    +0.000 OA
ENDBRANCH   1  22
TORSDOF 2
ENDMDL
