MODEL 1
REMARK VINA RESULT:      -5.0      0.000      0.000
REMARK  Name = 
REMARK  5 active torsions:
REMARK  status: ('A' for Active; 'I' for Inactive)
REMARK    1  A    between atoms: C_1  and  C_2
REMARK    2  A    between atoms: CA_4  and  C_5
REMARK    3  A    between atoms: C_5  and  O_6
REMARK    4  A    between atoms: C_7  and  O_8
REMARK    5  A    between atoms: C_9  and  O_10
REMARK                            x       y       z     vdW  Elec       q    Type
REMARK                         _______ _______ _______ _____ _____    ______ ____
ROOT
ATOM      1  C   UNL     1       7.637   7.452  17.526  0.00  0.00    +0.000 C 
ATOM      2  C   UNL     1       6.282   6.745  17.516  0.00  0.00    +0.000 C 
ATOM      3  N   UNL     1       5.840   6.452  16.142  0.00  0.00    +0.000 NA
ATOM      4  CA  UNL     1       6.009   5.004  15.887  0.00  0.00    +0.000 C 
ATOM      5  C   UNL     1       6.596   4.380  17.164  0.00  0.00    +0.000 C 
ATOM      6  C   UNL     1       6.234   5.397  18.249  0.00  0.00    +0.000 C 
ATOM      7  H   UNL     1       6.320   7.018  15.443  0.00  0.00    +0.000 HD
ENDROOT
BRANCH   5   8
ATOM      8  O   UNL     1       8.013   4.172  17.134  0.00  0.00    +0.000 OA
ATOM      9  H   UNL     1       8.300   4.088  16.210  0.00  0.00    +0.000 HD
ENDBRANCH   5   8
BRANCH   6  10
ATOM     10  O   UNL     1       7.104   5.317  19.369  0.00  0.00    +0.000 OA
ATOM     11  H   UNL     1       7.060   4.391  19.682  0.00  0.00    +0.000 HD
ENDBRANCH   6  10
BRANCH   4  12
ATOM     12  C   UNL     1       6.809   4.728  14.606  0.00  0.00    +0.000 C 
BRANCH  12  13
ATOM     13  O   UNL     1       7.945   5.588  14.519  0.00  0.00    +0.000 OA
ATOM     14  H   UNL     1       8.143   5.909  15.415  0.00  0.00    +0.000 HD
ENDBRANCH  12  13
ENDBRANCH   4  12
TORSDOF 4
ENDMDL
MODEL 2
REMARK VINA RESULT:      -4.7      1.828      3.681
REMARK  Name = 
REMARK  5 active torsions:
REMARK  status: ('A' for Active; 'I' for Inactive)
REMARK    1  A    between atoms: C_1  and  C_2
REMARK    2  A    between atoms: CA_4  and  C_5
REMARK    3  A    between atoms: C_5  and  O_6
REMARK    4  A    between atoms: C_7  and  O_8
REMARK    5  A    between atoms: C_9  and  O_10
REMARK                            x       y       z     vdW  Elec       q    Type
REMARK                         _______ _______ _______ _____ _____    ______ ____
ROOT
ATOM      1  C   UNL     1       6.823   4.349  15.267  0.00  0.00    +0.000 C 
ATOM      2  C   UNL     1       5.745   4.576  16.327  0.00  0.00    +0.000 C 
ATOM      3  N   UNL     1       6.235   4.231  17.672  0.00  0.00    +0.000 NA
ATOM      4  CA  UNL     1       6.494   5.482  18.419  0.00  0.00    +0.000 C 
ATOM      5  C   UNL     1       6.159   6.653  17.480  0.00  0.00    +0.000 C 
ATOM      6  C   UNL     1       5.229   6.017  16.445  0.00  0.00    +0.000 C 
ATOM      7  H   UNL     1       7.055   3.626  17.652  0.00  0.00    +0.000 HD
ENDROOT
BRANCH   5   8
ATOM      8  O   UNL     1       7.290   7.245  16.831  0.00  0.00    +0.000 OA
ATOM      9  H   UNL     1       6.978   7.917  16.203  0.00  0.00    +0.000 HD
ENDBRANCH   5   8
BRANCH   6  10
ATOM     10  O   UNL     1       5.224   6.732  15.218  0.00  0.00    +0.000 OA
ATOM     11  H   UNL     1       6.095   7.173  15.156  0.00  0.00    +0.000 HD
ENDBRANCH   6  10
BRANCH   4  12
ATOM     12  C   UNL     1       7.906   5.519  19.020  0.00  0.00    +0.000 C 
BRANCH  12  13
ATOM     13  O   UNL     1       7.855   5.507  20.446  0.00  0.00    +0.000 OA
ATOM     14  H   UNL     1       8.482   6.175  20.771  0.00  0.00    +0.000 HD
ENDBRANCH  12  13
ENDBRANCH   4  12
TORSDOF 4
ENDMDL
MODEL 3
REMARK VINA RESULT:      -4.7      5.165      6.093
REMARK  Name = 
REMARK  5 active torsions:
REMARK  status: ('A' for Active; 'I' for Inactive)
REMARK    1  A    between atoms: C_1  and  C_2
REMARK    2  A    between atoms: CA_4  and  C_5
REMARK    3  A    between atoms: C_5  and  O_6
REMARK    4  A    between atoms: C_7  and  O_8
REMARK    5  A    between atoms: C_9  and  O_10
REMARK                            x       y       z     vdW  Elec       q    Type
REMARK                         _______ _______ _______ _____ _____    ______ ____
ROOT
ATOM      1  C   UNL     1       1.604   2.641  21.217  0.00  0.00    +0.000 C 
ATOM      2  C   UNL     1       1.493   3.725  20.146  0.00  0.00    +0.000 C 
ATOM      3  N   UNL     1       2.772   4.433  19.964  0.00  0.00    +0.000 NA
ATOM      4  CA  UNL     1       3.391   3.981  18.699  0.00  0.00    +0.000 C 
ATOM      5  C   UNL     1       2.450   2.934  18.078  0.00  0.00    +0.000 C 
ATOM      6  C   UNL     1       1.106   3.233  18.745  0.00  0.00    +0.000 C 
ATOM      7  H   UNL     1       3.404   4.318  20.756  0.00  0.00    +0.000 HD
ENDROOT
BRANCH   5   8
ATOM      8  O   UNL     1       2.828   1.573  18.316  0.00  0.00    +0.000 OA
ATOM      9  H   UNL     1       2.697   1.368  19.256  0.00  0.00    +0.000 HD
ENDBRANCH   5   8
BRANCH   6  10
ATOM     10  O   UNL     1       0.246   2.102  18.746  0.00  0.00    +0.000 OA
ATOM     11  H   UNL     1      -0.428   2.271  18.057  0.00  0.00    +0.000 HD
ENDBRANCH   6  10
BRANCH   4  12
ATOM     12  C   UNL     1       4.840   3.514  18.893  0.00  0.00    +0.000 C 
BRANCH  12  13
ATOM     13  O   UNL     1       4.909   2.442  19.833  0.00  0.00    +0.000 OA
ATOM     14  H   UNL     1       5.508   1.768  19.470  0.00  0.00    +0.000 HD
ENDBRANCH  12  13
ENDBRANCH   4  12
TORSDOF 4
ENDMDL
MODEL 4
REMARK VINA RESULT:      -4.6      1.925      3.093
REMARK  Name = 
REMARK  5 active torsions:
REMARK  status: ('A' for Active; 'I' for Inactive)
REMARK    1  A    between atoms: C_1  and  C_2
REMARK    2  A    between atoms: CA_4  and  C_5
REMARK    3  A    between atoms: C_5  and  O_6
REMARK    4  A    between atoms: C_7  and  O_8
REMARK    5  A    between atoms: C_9  and  O_10
REMARK                            x       y       z     vdW  Elec       q    Type
REMARK                         _______ _______ _______ _____ _____    ______ ____
ROOT
ATOM      1  C   UNL     1       6.499   4.161  15.435  0.00  0.00    +0.000 C 
ATOM      2  C   UNL     1       6.753   5.412  16.276  0.00  0.00    +0.000 C 
ATOM      3  N   UNL     1       5.501   6.138  16.548  0.00  0.00    +0.000 NA
ATOM      4  CA  UNL     1       5.114   5.906  17.957  0.00  0.00    +0.000 C 
ATOM      5  C   UNL     1       6.174   4.981  18.577  0.00  0.00    +0.000 C 
ATOM      6  C   UNL     1       7.381   5.164  17.654  0.00  0.00    +0.000 C 
ATOM      7  H   UNL     1       4.751   5.890  15.904  0.00  0.00    +0.000 HD
ENDROOT
BRANCH   5   8
ATOM      8  O   UNL     1       5.803   3.598  18.637  0.00  0.00    +0.000 OA
ATOM      9  H   UNL     1       6.498   3.105  19.102  0.00  0.00    +0.000 HD
ENDBRANCH   5   8
BRANCH   6  10
ATOM     10  O   UNL     1       8.262   4.051  17.697  0.00  0.00    +0.000 OA
ATOM     11  H   UNL     1       9.157   4.404  17.521  0.00  0.00    +0.000 HD
ENDBRANCH   6  10
BRANCH   4  12
ATOM     12  C   UNL     1       3.666   5.411  18.089  0.00  0.00    +0.000 C 
BRANCH  12  13
ATOM     13  O   UNL     1       3.428   4.298  17.228  0.00  0.00    +0.000 OA
ATOM     14  H   UNL     1       4.188   3.697  17.304  0.00  0.00    +0.000 HD
ENDBRANCH  12  13
ENDBRANCH   4  12
TORSDOF 4
ENDMDL
MODEL 5
REMARK VINA RESULT:      -4.6      2.241      3.549
REMARK  Name = 
REMARK  5 active torsions:
REMARK  status: ('A' for Active; 'I' for Inactive)
REMARK    1  A    between atoms: C_1  and  C_2
REMARK    2  A    between atoms: CA_4  and  C_5
REMARK    3  A    between atoms: C_5  and  O_6
REMARK    4  A    between atoms: C_7  and  O_8
REMARK    5  A    between atoms: C_9  and  O_10
REMARK                            x       y       z     vdW  Elec       q    Type
REMARK                         _______ _______ _______ _____ _____    ______ ____
ROOT
ATOM      1  C   UNL     1       7.736   5.952  18.837  0.00  0.00    +0.000 C 
ATOM      2  C   UNL     1       7.347   4.753  17.974  0.00  0.00    +0.000 C 
ATOM      3  N   UNL     1       6.237   3.995  18.576  0.00  0.00    +0.000 NA
ATOM      4  CA  UNL     1       5.000   4.279  17.816  0.00  0.00    +0.000 C 
ATOM      5  C   UNL     1       5.366   5.271  16.699  0.00  0.00    +0.000 C 
ATOM      6  C   UNL     1       6.878   5.087  16.551  0.00  0.00    +0.000 C 
ATOM      7  H   UNL     1       6.122   4.185  19.571  0.00  0.00    +0.000 HD
ENDROOT
BRANCH   5   8
ATOM      8  O   UNL     1       5.060   6.640  16.988  0.00  0.00    +0.000 OA
ATOM      9  H   UNL     1       5.847   7.182  16.815  0.00  0.00    +0.000 HD
ENDBRANCH   5   8
BRANCH   6  10
ATOM     10  O   UNL     1       7.504   6.232  15.991  0.00  0.00    +0.000 OA
ATOM     11  H   UNL     1       8.195   5.896  15.385  0.00  0.00    +0.000 HD
ENDBRANCH   6  10
BRANCH   4  12
ATOM     12  C   UNL     1       3.847   4.728  18.727  0.00  0.00    +0.000 C 
BRANCH  12  13
ATOM     13  O   UNL     1       4.312   5.630  19.730  0.00  0.00    +0.000 OA
ATOM     14  H   UNL     1       5.255   5.795  19.566  0.00  0.00    +0.000 HD
ENDBRANCH  12  13
ENDBRANCH   4  12
TORSDOF 4
ENDMDL
MODEL 6
REMARK VINA RESULT:      -4.6      3.799      4.669
REMARK  Name = 
REMARK  5 active torsions:
REMARK  status: ('A' for Active; 'I' for Inactive)
REMARK    1  A    between atoms: C_1  and  C_2
REMARK    2  A    between atoms: CA_4  and  C_5
REMARK    3  A    between atoms: C_5  and  O_6
REMARK    4  A    between atoms: C_7  and  O_8
REMARK    5  A    between atoms: C_9  and  O_10
REMARK                            x       y       z     vdW  Elec       q    Type
REMARK                         _______ _______ _______ _____ _____    ______ ____
ROOT
ATOM      1  C   UNL     1       4.639   3.987  16.482  0.00  0.00    +0.000 C 
ATOM      2  C   UNL     1       4.225   4.728  17.753  0.00  0.00    +0.000 C 
ATOM      3  N   UNL     1       2.811   4.480  18.081  0.00  0.00    +0.000 NA
ATOM      4  CA  UNL     1       2.745   3.550  19.229  0.00  0.00    +0.000 C 
ATOM      5  C   UNL     1       4.191   3.198  19.617  0.00  0.00    +0.000 C 
ATOM      6  C   UNL     1       5.003   4.350  19.021  0.00  0.00    +0.000 C 
ATOM      7  H   UNL     1       2.274   4.138  17.285  0.00  0.00    +0.000 HD
ENDROOT
BRANCH   5   8
ATOM      8  O   UNL     1       4.662   1.945  19.106  0.00  0.00    +0.000 OA
ATOM      9  H   UNL     1       4.847   1.350  19.851  0.00  0.00    +0.000 HD
ENDBRANCH   5   8
BRANCH   6  10
ATOM     10  O   UNL     1       6.355   3.986  18.783  0.00  0.00    +0.000 OA
ATOM     11  H   UNL     1       6.861   4.292  19.562  0.00  0.00    +0.000 HD
ENDBRANCH   6  10
BRANCH   4  12
ATOM     12  C   UNL     1       1.839   2.342  18.948  0.00  0.00    +0.000 C 
BRANCH  12  13
ATOM     13  O   UNL     1       2.225   1.684  17.742  0.00  0.00    +0.000 OA
ATOM     14  H   UNL     1       3.110   1.307  17.880  0.00  0.00    +0.000 HD
ENDBRANCH  12  13
ENDBRANCH   4  12
TORSDOF 4
ENDMDL
MODEL 7
REMARK VINA RESULT:      -4.6      1.759      3.332
REMARK  Name = 
REMARK  5 active torsions:
REMARK  status: ('A' for Active; 'I' for Inactive)
REMARK    1  A    between atoms: C_1  and  C_2
REMARK    2  A    between atoms: CA_4  and  C_5
REMARK    3  A    between atoms: C_5  and  O_6
REMARK    4  A    between atoms: C_7  and  O_8
REMARK    5  A    between atoms: C_9  and  O_10
REMARK                            x       y       z     vdW  Elec       q    Type
REMARK                         _______ _______ _______ _____ _____    ______ ____
ROOT
ATOM      1  C   UNL     1       5.236   4.094  15.749  0.00  0.00    +0.000 C 
ATOM      2  C   UNL     1       4.811   5.066  16.849  0.00  0.00    +0.000 C 
ATOM      3  N   UNL     1       5.470   4.750  18.128  0.00  0.00    +0.000 NA
ATOM      4  CA  UNL     1       6.530   5.752  18.377  0.00  0.00    +0.000 C 
ATOM      5  C   UNL     1       6.530   6.724  17.185  0.00  0.00    +0.000 C 
ATOM      6  C   UNL     1       5.134   6.544  16.586  0.00  0.00    +0.000 C 
ATOM      7  H   UNL     1       5.833   3.799  18.161  0.00  0.00    +0.000 HD
ENDROOT
BRANCH   5   8
ATOM      8  O   UNL     1       7.531   6.459  16.195  0.00  0.00    +0.000 OA
ATOM      9  H   UNL     1       7.573   5.501  16.037  0.00  0.00    +0.000 HD
ENDBRANCH   5   8
BRANCH   6  10
ATOM     10  O   UNL     1       5.087   6.910  15.215  0.00  0.00    +0.000 OA
ATOM     11  H   UNL     1       4.457   6.295  14.789  0.00  0.00    +0.000 HD
ENDBRANCH   6  10
BRANCH   4  12
ATOM     12  C   UNL     1       7.887   5.100  18.680  0.00  0.00    +0.000 C 
BRANCH  12  13
ATOM     13  O   UNL     1       8.197   4.095  17.717  0.00  0.00    +0.000 OA
ATOM     14  H   UNL     1       9.164   4.057  17.629  0.00  0.00    +0.000 HD
ENDBRANCH  12  13
ENDBRANCH   4  12
TORSDOF 4
ENDMDL
MODEL 8
REMARK VINA RESULT:      -4.6      4.967      6.140
REMARK  Name = 
REMARK  5 active torsions:
REMARK  status: ('A' for Active; 'I' for Inactive)
REMARK    1  A    between atoms: C_1  and  C_2
REMARK    2  A    between atoms: CA_4  and  C_5
REMARK    3  A    between atoms: C_5  and  O_6
REMARK    4  A    between atoms: C_7  and  O_8
REMARK    5  A    between atoms: C_9  and  O_10
REMARK                            x       y       z     vdW  Elec       q    Type
REMARK                         _______ _______ _______ _____ _____    ______ ____
ROOT
ATOM      1  C   UNL     1       2.417   4.824  17.861  0.00  0.00    +0.000 C 
ATOM      2  C   UNL     1       3.466   4.558  18.939  0.00  0.00    +0.000 C 
ATOM      3  N   UNL     1       2.861   4.528  20.281  0.00  0.00    +0.000 NA
ATOM      4  CA  UNL     1       2.792   3.123  20.740  0.00  0.00    +0.000 C 
ATOM      5  C   UNL     1       3.373   2.246  19.618  0.00  0.00    +0.000 C 
ATOM      6  C   UNL     1       4.223   3.229  18.810  0.00  0.00    +0.000 C 
ATOM      7  H   UNL     1       1.949   4.981  20.314  0.00  0.00    +0.000 HD
ENDROOT
BRANCH   5   8
ATOM      8  O   UNL     1       2.395   1.627  18.773  0.00  0.00    +0.000 OA
ATOM      9  H   UNL     1       1.555   2.108  18.858  0.00  0.00    +0.000 HD
ENDBRANCH   5   8
BRANCH   6  10
ATOM     10  O   UNL     1       4.411   2.798  17.470  0.00  0.00    +0.000 OA
ATOM     11  H   UNL     1       4.153   1.855  17.447  0.00  0.00    +0.000 HD
ENDBRANCH   6  10
BRANCH   4  12
ATOM     12  C   UNL     1       1.382   2.730  21.203  0.00  0.00    +0.000 C 
BRANCH  12  13
ATOM     13  O   UNL     1       0.395   3.190  20.281  0.00  0.00    +0.000 OA
ATOM     14  H   UNL     1      -0.461   2.818  20.552  0.00  0.00    +0.000 HD
ENDBRANCH  12  13
ENDBRANCH   4  12
TORSDOF 4
ENDMDL
MODEL 9
REMARK VINA RESULT:      -4.6      4.354      5.261
REMARK  Name = 
REMARK  5 active torsions:
REMARK  status: ('A' for Active; 'I' for Inactive)
REMARK    1  A    between atoms: C_1  and  C_2
REMARK    2  A    between atoms: CA_4  and  C_5
REMARK    3  A    between atoms: C_5  and  O_6
REMARK    4  A    between atoms: C_7  and  O_8
REMARK    5  A    between atoms: C_9  and  O_10
REMARK                            x       y       z     vdW  Elec       q    Type
REMARK                         _______ _______ _______ _____ _____    ______ ____
ROOT
ATOM      1  C   UNL     1       1.609   3.381  20.641  0.00  0.00    +0.000 C 
ATOM      2  C   UNL     1       1.679   3.850  19.189  0.00  0.00    +0.000 C 
ATOM      3  N   UNL     1       2.673   4.924  19.019  0.00  0.00    +0.000 NA
ATOM      4  CA  UNL     1       3.867   4.365  18.348  0.00  0.00    +0.000 C 
ATOM      5  C   UNL     1       3.598   2.870  18.105  0.00  0.00    +0.000 C 
ATOM      6  C   UNL     1       2.072   2.775  18.166  0.00  0.00    +0.000 C 
ATOM      7  H   UNL     1       2.913   5.383  19.897  0.00  0.00    +0.000 HD
ENDROOT
BRANCH   5   8
ATOM      8  O   UNL     1       4.187   1.990  19.069  0.00  0.00    +0.000 OA
ATOM      9  H   UNL     1       3.781   1.111  18.984  0.00  0.00    +0.000 HD
ENDBRANCH   5   8
BRANCH   6  10
ATOM     10  O   UNL     1       1.629   1.468  18.502  0.00  0.00    +0.000 OA
ATOM     11  H   UNL     1       1.451   1.480  19.464  0.00  0.00    +0.000 HD
ENDBRANCH   6  10
BRANCH   4  12
ATOM     12  C   UNL     1       5.163   4.672  19.113  0.00  0.00    +0.000 C 
BRANCH  12  13
ATOM     13  O   UNL     1       6.260   3.934  18.576  0.00  0.00    +0.000 OA
ATOM     14  H   UNL     1       6.978   3.953  19.232  0.00  0.00    +0.000 HD
ENDBRANCH  12  13
ENDBRANCH   4  12
TORSDOF 4
ENDMDL
