MODEL 1
REMARK VINA RESULT:      -7.9      0.000      0.000
REMARK  Name = 
REMARK  8 active torsions:
REMARK  status: ('A' for Active; 'I' for Inactive)
REMARK    1  A    between atoms: C_1  and  C_2
REMARK    2  A    between atoms: C_2  and  C_3
REMARK    3  A    between atoms: C_3  and  C_4
REMARK    4  A    between atoms: N_13  and  N_14
REMARK    5  A    between atoms: C_15  and  C_17
REMARK    6  A    between atoms: C_17  and  C_18
REMARK    7  A    between atoms: C_18  and  C_19
REMARK    8  A    between atoms: C_19  and  O_21
REMARK                            x       y       z     vdW  Elec       q    Type
REMARK                         _______ _______ _______ _____ _____    ______ ____
ROOT
ATOM      1  C   UNL     1       5.921   4.780  16.171  0.00  0.00    +0.000 A 
ATOM      2  N   UNL     1       5.354   3.627  16.372  0.00  0.00    +0.000 NA
ATOM      3  C   UNL     1       4.343   3.610  17.266  0.00  0.00    +0.000 A 
ATOM      4  S   UNL     1       3.576   2.140  17.655  0.00  0.00    +0.000 S 
ATOM      5  C   UNL     1       2.615   2.889  18.836  0.00  0.00    +0.000 A 
ATOM      6  C   UNL     1       2.836   4.260  18.921  0.00  0.00    +0.000 A 
ATOM      7  C   UNL     1       3.856   4.672  17.994  0.00  0.00    +0.000 A 
ATOM      8  C   UNL     1       4.484   5.967  17.767  0.00  0.00    +0.000 A 
ATOM      9  O   UNL     1       4.241   6.956  18.459  0.00  0.00    +0.000 OA
ATOM     10  N   UNL     1       5.490   5.964  16.772  0.00  0.00    +0.000 N 
ATOM     11  C   UNL     1       2.100   5.100  19.926  0.00  0.00    +0.000 C 
ATOM     12  C   UNL     1       0.865   4.372  20.490  0.00  0.00    +0.000 C 
ATOM     13  C   UNL     1       1.180   2.917  20.870  0.00  0.00    +0.000 C 
ATOM     14  C   UNL     1       1.639   2.106  19.650  0.00  0.00    +0.000 C 
ENDROOT
BRANCH  10  15
ATOM     15  N   UNL     1       6.294   7.157  16.747  0.00  0.00    +0.000 N 
ATOM     16  C   UNL     1       7.392   7.294  17.580  0.00  0.00    +0.000 C 
ATOM     17  O   UNL     1       7.738   6.508  18.455  0.00  0.00    +0.000 OA
ATOM     18  H   UNL     1       6.478   7.450  15.782  0.00  0.00    +0.000 HD
BRANCH  16  19
ATOM     19  C   UNL     1       8.124   8.615  17.374  0.00  0.00    +0.000 C 
BRANCH  19  20
ATOM     20  C   UNL     1       8.641   9.156  18.701  0.00  0.00    +0.000 C 
BRANCH  20  21
ATOM     21  C   UNL     1       9.155  10.567  18.514  0.00  0.00    +0.000 C 
ATOM     22  O   UNL     1       8.600  11.420  17.845  0.00  0.00    +0.000 OA
BRANCH  21  23
ATOM     23  O   UNL     1      10.286  10.805  19.213  0.00  0.00    +0.000 OA
ATOM     24  H   UNL     1      10.489  11.753  19.335  0.00  0.00    +0.000 HD
ENDBRANCH  21  23
ENDBRANCH  20  21
ENDBRANCH  19  20
ENDBRANCH  16  19
ENDBRANCH  10  15
BRANCH   1  25
ATOM     25  C   UNL     1       7.118   4.806  15.228  0.00  0.00    +0.000 C 
BRANCH  25  27
ATOM     26  C   UNL     1       7.761   5.153  12.824  0.00  0.00    +0.000 C 
ATOM     27  C   UNL     1       6.749   4.530  13.767  0.00  0.00    +0.000 C 
ENDBRANCH  25  27
ENDBRANCH   1  25
TORSDOF 7
ENDMDL
MODEL 2
REMARK VINA RESULT:      -7.5      5.278      8.088
REMARK  Name = 
REMARK  8 active torsions:
REMARK  status: ('A' for Active; 'I' for Inactive)
REMARK    1  A    between atoms: C_1  and  C_2
REMARK    2  A    between atoms: C_2  and  C_3
REMARK    3  A    between atoms: C_3  and  C_4
REMARK    4  A    between atoms: N_13  and  N_14
REMARK    5  A    between atoms: C_15  and  C_17
REMARK    6  A    between atoms: C_17  and  C_18
REMARK    7  A    between atoms: C_18  and  C_19
REMARK    8  A    between atoms: C_19  and  O_21
REMARK                            x       y       z     vdW  Elec       q    Type
REMARK                         _______ _______ _______ _____ _____    ______ ____
ROOT
ATOM      1  C   UNL     1       0.902   8.153  20.544  0.00  0.00    +0.000 A 
ATOM      2  N   UNL     1       1.508   7.019  20.734  0.00  0.00    +0.000 NA
ATOM      3  C   UNL     1       2.412   6.663  19.797  0.00  0.00    +0.000 A 
ATOM      4  S   UNL     1       3.213   5.164  19.914  0.00  0.00    +0.000 S 
ATOM      5  C   UNL     1       3.991   5.401  18.425  0.00  0.00    +0.000 A 
ATOM      6  C   UNL     1       3.685   6.629  17.845  0.00  0.00    +0.000 A 
ATOM      7  C   UNL     1       2.753   7.361  18.661  0.00  0.00    +0.000 A 
ATOM      8  C   UNL     1       2.082   8.636  18.447  0.00  0.00    +0.000 A 
ATOM      9  O   UNL     1       2.189   9.279  17.403  0.00  0.00    +0.000 OA
ATOM     10  N   UNL     1       1.196   9.014  19.484  0.00  0.00    +0.000 N 
ATOM     11  C   UNL     1       4.255   7.016  16.510  0.00  0.00    +0.000 C 
ATOM     12  C   UNL     1       5.458   6.137  16.122  0.00  0.00    +0.000 C 
ATOM     13  C   UNL     1       5.186   4.647  16.375  0.00  0.00    +0.000 C 
ATOM     14  C   UNL     1       4.913   4.372  17.861  0.00  0.00    +0.000 C 
ENDROOT
BRANCH  10  15
ATOM     15  N   UNL     1       0.333  10.114  19.147  0.00  0.00    +0.000 N 
ATOM     16  C   UNL     1       0.599  11.394  19.604  0.00  0.00    +0.000 C 
ATOM     17  O   UNL     1       1.490  11.714  20.382  0.00  0.00    +0.000 OA
ATOM     18  H   UNL     1       0.075  10.083  18.156  0.00  0.00    +0.000 HD
BRANCH  16  19
ATOM     19  C   UNL     1      -0.417  12.418  19.108  0.00  0.00    +0.000 C 
BRANCH  19  20
ATOM     20  C   UNL     1      -1.839  11.929  19.358  0.00  0.00    +0.000 C 
BRANCH  20  21
ATOM     21  C   UNL     1      -2.566  11.774  18.041  0.00  0.00    +0.000 C 
ATOM     22  O   UNL     1      -3.722  11.408  17.929  0.00  0.00    +0.000 OA
BRANCH  21  23
ATOM     23  O   UNL     1      -1.807  12.133  16.982  0.00  0.00    +0.000 OA
ATOM     24  H   UNL     1      -1.939  11.578  16.189  0.00  0.00    +0.000 HD
ENDBRANCH  21  23
ENDBRANCH  20  21
ENDBRANCH  19  20
ENDBRANCH  16  19
ENDBRANCH  10  15
BRANCH   1  25
ATOM     25  C   UNL     1      -0.181   8.536  21.545  0.00  0.00    +0.000 C 
BRANCH  25  27
ATOM     26  C   UNL     1      -0.660  10.474  23.071  0.00  0.00    +0.000 C 
ATOM     27  C   UNL     1       0.336   9.389  22.707  0.00  0.00    +0.000 C 
ENDBRANCH  25  27
ENDBRANCH   1  25
TORSDOF 7
ENDMDL
MODEL 3
REMARK VINA RESULT:      -7.4      3.975      6.550
REMARK  Name = 
REMARK  8 active torsions:
REMARK  status: ('A' for Active; 'I' for Inactive)
REMARK    1  A    between atoms: C_1  and  C_2
REMARK    2  A    between atoms: C_2  and  C_3
REMARK    3  A    between atoms: C_3  and  C_4
REMARK    4  A    between atoms: N_13  and  N_14
REMARK    5  A    between atoms: C_15  and  C_17
REMARK    6  A    between atoms: C_17  and  C_18
REMARK    7  A    between atoms: C_18  and  C_19
REMARK    8  A    between atoms: C_19  and  O_21
REMARK                            x       y       z     vdW  Elec       q    Type
REMARK                         _______ _______ _______ _____ _____    ______ ____
ROOT
ATOM      1  C   UNL     1       2.364   5.562  20.220  0.00  0.00    +0.000 A 
ATOM      2  N   UNL     1       1.604   6.272  21.000  0.00  0.00    +0.000 NA
ATOM      3  C   UNL     1       1.347   7.533  20.591  0.00  0.00    +0.000 A 
ATOM      4  S   UNL     1       0.418   8.572  21.570  0.00  0.00    +0.000 S 
ATOM      5  C   UNL     1       0.657   9.875  20.510  0.00  0.00    +0.000 A 
ATOM      6  C   UNL     1       1.406   9.529  19.390  0.00  0.00    +0.000 A 
ATOM      7  C   UNL     1       1.807   8.149  19.449  0.00  0.00    +0.000 A 
ATOM      8  C   UNL     1       2.653   7.354  18.569  0.00  0.00    +0.000 A 
ATOM      9  O   UNL     1       3.244   7.833  17.602  0.00  0.00    +0.000 OA
ATOM     10  N   UNL     1       2.843   6.016  18.990  0.00  0.00    +0.000 N 
ATOM     11  C   UNL     1       1.748  10.552  18.344  0.00  0.00    +0.000 C 
ATOM     12  C   UNL     1       0.864  11.808  18.456  0.00  0.00    +0.000 C 
ATOM     13  C   UNL     1       0.733  12.290  19.909  0.00  0.00    +0.000 C 
ATOM     14  C   UNL     1       0.080  11.221  20.797  0.00  0.00    +0.000 C 
ENDROOT
BRANCH  10  15
ATOM     15  N   UNL     1       3.890   5.323  18.288  0.00  0.00    +0.000 N 
ATOM     16  C   UNL     1       3.596   4.335  17.363  0.00  0.00    +0.000 C 
ATOM     17  O   UNL     1       2.482   3.889  17.112  0.00  0.00    +0.000 OA
ATOM     18  H   UNL     1       4.608   5.980  17.965  0.00  0.00    +0.000 HD
BRANCH  16  19
ATOM     19  C   UNL     1       4.844   3.751  16.710  0.00  0.00    +0.000 C 
BRANCH  19  20
ATOM     20  C   UNL     1       5.304   4.626  15.551  0.00  0.00    +0.000 C 
BRANCH  20  21
ATOM     21  C   UNL     1       6.355   5.602  16.031  0.00  0.00    +0.000 C 
ATOM     22  O   UNL     1       7.540   5.344  16.137  0.00  0.00    +0.000 OA
BRANCH  21  23
ATOM     23  O   UNL     1       5.846   6.826  16.294  0.00  0.00    +0.000 OA
ATOM     24  H   UNL     1       6.382   7.357  16.915  0.00  0.00    +0.000 HD
ENDBRANCH  21  23
ENDBRANCH  20  21
ENDBRANCH  19  20
ENDBRANCH  16  19
ENDBRANCH  10  15
BRANCH   1  25
ATOM     25  C   UNL     1       2.735   4.164  20.703  0.00  0.00    +0.000 C 
BRANCH  25  27
ATOM     26  C   UNL     1       0.740   2.906  19.839  0.00  0.00    +0.000 C 
ATOM     27  C   UNL     1       1.523   3.305  21.075  0.00  0.00    +0.000 C 
ENDBRANCH  25  27
ENDBRANCH   1  25
TORSDOF 7
ENDMDL
MODEL 4
REMARK VINA RESULT:      -7.4      4.342      6.861
REMARK  Name = 
REMARK  8 active torsions:
REMARK  status: ('A' for Active; 'I' for Inactive)
REMARK    1  A    between atoms: C_1  and  C_2
REMARK    2  A    between atoms: C_2  and  C_3
REMARK    3  A    between atoms: C_3  and  C_4
REMARK    4  A    between atoms: N_13  and  N_14
REMARK    5  A    between atoms: C_15  and  C_17
REMARK    6  A    between atoms: C_17  and  C_18
REMARK    7  A    between atoms: C_18  and  C_19
REMARK    8  A    between atoms: C_19  and  O_21
REMARK                            x       y       z     vdW  Elec       q    Type
REMARK                         _______ _______ _______ _____ _____    ______ ____
ROOT
ATOM      1  C   UNL     1       1.971   6.055  20.430  0.00  0.00    +0.000 A 
ATOM      2  N   UNL     1       1.210   6.763  21.211  0.00  0.00    +0.000 NA
ATOM      3  C   UNL     1       0.972   8.032  20.818  0.00  0.00    +0.000 A 
ATOM      4  S   UNL     1       0.043   9.068  21.801  0.00  0.00    +0.000 S 
ATOM      5  C   UNL     1       0.310  10.384  20.763  0.00  0.00    +0.000 A 
ATOM      6  C   UNL     1       1.068  10.045  19.647  0.00  0.00    +0.000 A 
ATOM      7  C   UNL     1       1.453   8.660  19.691  0.00  0.00    +0.000 A 
ATOM      8  C   UNL     1       2.301   7.868  18.809  0.00  0.00    +0.000 A 
ATOM      9  O   UNL     1       2.909   8.354  17.856  0.00  0.00    +0.000 OA
ATOM     10  N   UNL     1       2.470   6.522  19.213  0.00  0.00    +0.000 N 
ATOM     11  C   UNL     1       1.435  11.079  18.620  0.00  0.00    +0.000 C 
ATOM     12  C   UNL     1       0.564  12.343  18.741  0.00  0.00    +0.000 C 
ATOM     13  C   UNL     1       0.421  12.806  20.199  0.00  0.00    +0.000 C 
ATOM     14  C   UNL     1      -0.255  11.732  21.063  0.00  0.00    +0.000 C 
ENDROOT
BRANCH  10  15
ATOM     15  N   UNL     1       3.518   5.827  18.513  0.00  0.00    +0.000 N 
ATOM     16  C   UNL     1       3.224   4.834  17.594  0.00  0.00    +0.000 C 
ATOM     17  O   UNL     1       2.111   4.383  17.347  0.00  0.00    +0.000 OA
ATOM     18  H   UNL     1       4.233   6.484  18.185  0.00  0.00    +0.000 HD
BRANCH  16  19
ATOM     19  C   UNL     1       4.472   4.248  16.943  0.00  0.00    +0.000 C 
BRANCH  19  20
ATOM     20  C   UNL     1       5.584   5.288  16.881  0.00  0.00    +0.000 C 
BRANCH  20  21
ATOM     21  C   UNL     1       6.857   4.713  17.464  0.00  0.00    +0.000 C 
ATOM     22  O   UNL     1       7.019   4.451  18.642  0.00  0.00    +0.000 OA
BRANCH  21  23
ATOM     23  O   UNL     1       7.797   4.473  16.524  0.00  0.00    +0.000 OA
ATOM     24  H   UNL     1       8.602   5.019  16.616  0.00  0.00    +0.000 HD
ENDBRANCH  21  23
ENDBRANCH  20  21
ENDBRANCH  19  20
ENDBRANCH  16  19
ENDBRANCH  10  15
BRANCH   1  25
ATOM     25  C   UNL     1       2.321   4.647  20.897  0.00  0.00    +0.000 C 
BRANCH  25  27
ATOM     26  C   UNL     1       1.739   2.313  20.169  0.00  0.00    +0.000 C 
ATOM     27  C   UNL     1       1.193   3.634  20.677  0.00  0.00    +0.000 C 
ENDBRANCH  25  27
ENDBRANCH   1  25
TORSDOF 7
ENDMDL
MODEL 5
REMARK VINA RESULT:      -7.3      4.088      6.715
REMARK  Name = 
REMARK  8 active torsions:
REMARK  status: ('A' for Active; 'I' for Inactive)
REMARK    1  A    between atoms: C_1  and  C_2
REMARK    2  A    between atoms: C_2  and  C_3
REMARK    3  A    between atoms: C_3  and  C_4
REMARK    4  A    between atoms: N_13  and  N_14
REMARK    5  A    between atoms: C_15  and  C_17
REMARK    6  A    between atoms: C_17  and  C_18
REMARK    7  A    between atoms: C_18  and  C_19
REMARK    8  A    between atoms: C_19  and  O_21
REMARK                            x       y       z     vdW  Elec       q    Type
REMARK                         _______ _______ _______ _____ _____    ______ ____
ROOT
ATOM      1  C   UNL     1       3.521   6.753  17.770  0.00  0.00    +0.000 A 
ATOM      2  N   UNL     1       3.252   7.996  17.502  0.00  0.00    +0.000 NA
ATOM      3  C   UNL     1       2.451   8.634  18.381  0.00  0.00    +0.000 A 
ATOM      4  S   UNL     1       1.981  10.245  18.089  0.00  0.00    +0.000 S 
ATOM      5  C   UNL     1       0.970  10.256  19.451  0.00  0.00    +0.000 A 
ATOM      6  C   UNL     1       1.007   9.059  20.160  0.00  0.00    +0.000 A 
ATOM      7  C   UNL     1       1.881   8.112  19.519  0.00  0.00    +0.000 A 
ATOM      8  C   UNL     1       2.184   6.721  19.828  0.00  0.00    +0.000 A 
ATOM      9  O   UNL     1       1.621   6.100  20.729  0.00  0.00    +0.000 OA
ATOM     10  N   UNL     1       3.084   6.104  18.927  0.00  0.00    +0.000 N 
ATOM     11  C   UNL     1       0.160   8.860  21.385  0.00  0.00    +0.000 C 
ATOM     12  C   UNL     1      -0.366  10.196  21.943  0.00  0.00    +0.000 C 
ATOM     13  C   UNL     1      -0.920  11.103  20.833  0.00  0.00    +0.000 C 
ATOM     14  C   UNL     1       0.167  11.462  19.810  0.00  0.00    +0.000 C 
ENDROOT
BRANCH  10  15
ATOM     15  N   UNL     1       3.162   4.674  19.062  0.00  0.00    +0.000 N 
ATOM     16  C   UNL     1       4.321   4.062  19.511  0.00  0.00    +0.000 C 
ATOM     17  O   UNL     1       5.389   4.618  19.743  0.00  0.00    +0.000 OA
ATOM     18  H   UNL     1       2.313   4.304  19.500  0.00  0.00    +0.000 HD
BRANCH  16  19
ATOM     19  C   UNL     1       4.184   2.547  19.613  0.00  0.00    +0.000 C 
BRANCH  19  20
ATOM     20  C   UNL     1       2.716   2.143  19.672  0.00  0.00    +0.000 C 
BRANCH  20  21
ATOM     21  C   UNL     1       2.111   2.600  20.981  0.00  0.00    +0.000 C 
ATOM     22  O   UNL     1       2.652   2.491  22.067  0.00  0.00    +0.000 OA
BRANCH  21  23
ATOM     23  O   UNL     1       0.908   3.193  20.819  0.00  0.00    +0.000 OA
ATOM     24  H   UNL     1       0.310   2.723  20.206  0.00  0.00    +0.000 HD
ENDBRANCH  21  23
ENDBRANCH  20  21
ENDBRANCH  19  20
ENDBRANCH  16  19
ENDBRANCH  10  15
BRANCH   1  25
ATOM     25  C   UNL     1       4.355   5.989  16.748  0.00  0.00    +0.000 C 
BRANCH  25  27
ATOM     26  C   UNL     1       6.734   5.301  16.319  0.00  0.00    +0.000 C 
ATOM     27  C   UNL     1       5.815   6.451  16.685  0.00  0.00    +0.000 C 
ENDBRANCH  25  27
ENDBRANCH   1  25
TORSDOF 7
ENDMDL
MODEL 6
REMARK VINA RESULT:      -7.3      3.966      6.420
REMARK  Name = 
REMARK  8 active torsions:
REMARK  status: ('A' for Active; 'I' for Inactive)
REMARK    1  A    between atoms: C_1  and  C_2
REMARK    2  A    between atoms: C_2  and  C_3
REMARK    3  A    between atoms: C_3  and  C_4
REMARK    4  A    between atoms: N_13  and  N_14
REMARK    5  A    between atoms: C_15  and  C_17
REMARK    6  A    between atoms: C_17  and  C_18
REMARK    7  A    between atoms: C_18  and  C_19
REMARK    8  A    between atoms: C_19  and  O_21
REMARK                            x       y       z     vdW  Elec       q    Type
REMARK                         _______ _______ _______ _____ _____    ______ ____
ROOT
ATOM      1  C   UNL     1       2.169   5.510  20.023  0.00  0.00    +0.000 A 
ATOM      2  N   UNL     1       1.530   6.272  20.860  0.00  0.00    +0.000 NA
ATOM      3  C   UNL     1       1.386   7.564  20.497  0.00  0.00    +0.000 A 
ATOM      4  S   UNL     1       0.625   8.664  21.552  0.00  0.00    +0.000 S 
ATOM      5  C   UNL     1       0.945   9.967  20.513  0.00  0.00    +0.000 A 
ATOM      6  C   UNL     1       1.593   9.579  19.345  0.00  0.00    +0.000 A 
ATOM      7  C   UNL     1       1.850   8.163  19.348  0.00  0.00    +0.000 A 
ATOM      8  C   UNL     1       2.560   7.312  18.404  0.00  0.00    +0.000 A 
ATOM      9  O   UNL     1       3.147   7.755  17.417  0.00  0.00    +0.000 OA
ATOM     10  N   UNL     1       2.629   5.949  18.780  0.00  0.00    +0.000 N 
ATOM     11  C   UNL     1       1.987  10.592  18.307  0.00  0.00    +0.000 C 
ATOM     12  C   UNL     1       1.248  11.929  18.499  0.00  0.00    +0.000 C 
ATOM     13  C   UNL     1       1.245  12.378  19.968  0.00  0.00    +0.000 C 
ATOM     14  C   UNL     1       0.529  11.357  20.864  0.00  0.00    +0.000 C 
ENDROOT
BRANCH  10  15
ATOM     15  N   UNL     1       3.559   5.172  18.005  0.00  0.00    +0.000 N 
ATOM     16  C   UNL     1       4.869   5.003  18.422  0.00  0.00    +0.000 C 
ATOM     17  O   UNL     1       5.393   5.538  19.392  0.00  0.00    +0.000 OA
ATOM     18  H   UNL     1       3.123   4.305  17.676  0.00  0.00    +0.000 HD
BRANCH  16  19
ATOM     19  C   UNL     1       5.678   4.122  17.477  0.00  0.00    +0.000 C 
BRANCH  19  20
ATOM     20  C   UNL     1       5.302   4.403  16.027  0.00  0.00    +0.000 C 
BRANCH  20  21
ATOM     21  C   UNL     1       6.030   5.635  15.538  0.00  0.00    +0.000 C 
ATOM     22  O   UNL     1       7.200   5.658  15.202  0.00  0.00    +0.000 OA
BRANCH  21  23
ATOM     23  O   UNL     1       5.227   6.719  15.467  0.00  0.00    +0.000 OA
ATOM     24  H   UNL     1       4.274   6.516  15.535  0.00  0.00    +0.000 HD
ENDBRANCH  21  23
ENDBRANCH  20  21
ENDBRANCH  19  20
ENDBRANCH  16  19
ENDBRANCH  10  15
BRANCH   1  25
ATOM     25  C   UNL     1       2.415   4.068  20.450  0.00  0.00    +0.000 C 
BRANCH  25  27
ATOM     26  C   UNL     1       0.927   2.611  19.045  0.00  0.00    +0.000 C 
ATOM     27  C   UNL     1       1.153   3.200  20.424  0.00  0.00    +0.000 C 
ENDBRANCH  25  27
ENDBRANCH   1  25
TORSDOF 7
ENDMDL
MODEL 7
REMARK VINA RESULT:      -7.3      4.428      7.026
REMARK  Name = 
REMARK  8 active torsions:
REMARK  status: ('A' for Active; 'I' for Inactive)
REMARK    1  A    between atoms: C_1  and  C_2
REMARK    2  A    between atoms: C_2  and  C_3
REMARK    3  A    between atoms: C_3  and  C_4
REMARK    4  A    between atoms: N_13  and  N_14
REMARK    5  A    between atoms: C_15  and  C_17
REMARK    6  A    between atoms: C_17  and  C_18
REMARK    7  A    between atoms: C_18  and  C_19
REMARK    8  A    between atoms: C_19  and  O_21
REMARK                            x       y       z     vdW  Elec       q    Type
REMARK                         _______ _______ _______ _____ _____    ______ ____
ROOT
ATOM      1  C   UNL     1       2.061   6.085  20.376  0.00  0.00    +0.000 A 
ATOM      2  N   UNL     1       1.342   6.798  21.191  0.00  0.00    +0.000 NA
ATOM      3  C   UNL     1       1.083   8.065  20.803  0.00  0.00    +0.000 A 
ATOM      4  S   UNL     1       0.207   9.106  21.828  0.00  0.00    +0.000 S 
ATOM      5  C   UNL     1       0.418  10.416  20.769  0.00  0.00    +0.000 A 
ATOM      6  C   UNL     1       1.116  10.070  19.616  0.00  0.00    +0.000 A 
ATOM      7  C   UNL     1       1.504   8.685  19.648  0.00  0.00    +0.000 A 
ATOM      8  C   UNL     1       2.304   7.888  18.728  0.00  0.00    +0.000 A 
ATOM      9  O   UNL     1       2.860   8.368  17.741  0.00  0.00    +0.000 OA
ATOM     10  N   UNL     1       2.495   6.545  19.130  0.00  0.00    +0.000 N 
ATOM     11  C   UNL     1       1.428  11.098  18.565  0.00  0.00    +0.000 C 
ATOM     12  C   UNL     1       0.564  12.363  18.724  0.00  0.00    +0.000 C 
ATOM     13  C   UNL     1       0.498  12.834  20.184  0.00  0.00    +0.000 C 
ATOM     14  C   UNL     1      -0.131  11.766  21.090  0.00  0.00    +0.000 C 
ENDROOT
BRANCH  10  15
ATOM     15  N   UNL     1       3.504   5.845  18.380  0.00  0.00    +0.000 N 
ATOM     16  C   UNL     1       3.168   4.802  17.533  0.00  0.00    +0.000 C 
ATOM     17  O   UNL     1       2.054   4.312  17.397  0.00  0.00    +0.000 OA
ATOM     18  H   UNL     1       4.171   6.505  17.967  0.00  0.00    +0.000 HD
BRANCH  16  19
ATOM     19  C   UNL     1       4.378   4.220  16.811  0.00  0.00    +0.000 C 
BRANCH  19  20
ATOM     20  C   UNL     1       5.353   5.324  16.419  0.00  0.00    +0.000 C 
BRANCH  20  21
ATOM     21  C   UNL     1       6.394   4.774  15.468  0.00  0.00    +0.000 C 
ATOM     22  O   UNL     1       6.305   3.706  14.890  0.00  0.00    +0.000 OA
BRANCH  21  23
ATOM     23  O   UNL     1       7.430   5.622  15.285  0.00  0.00    +0.000 OA
ATOM     24  H   UNL     1       7.991   5.745  16.076  0.00  0.00    +0.000 HD
ENDBRANCH  21  23
ENDBRANCH  20  21
ENDBRANCH  19  20
ENDBRANCH  16  19
ENDBRANCH  10  15
BRANCH   1  25
ATOM     25  C   UNL     1       2.435   4.680  20.832  0.00  0.00    +0.000 C 
BRANCH  25  27
ATOM     26  C   UNL     1       1.503   2.521  21.718  0.00  0.00    +0.000 C 
ATOM     27  C   UNL     1       1.267   3.691  20.781  0.00  0.00    +0.000 C 
ENDBRANCH  25  27
ENDBRANCH   1  25
TORSDOF 7
ENDMDL
MODEL 8
REMARK VINA RESULT:      -7.3      4.173      7.006
REMARK  Name = 
REMARK  8 active torsions:
REMARK  status: ('A' for Active; 'I' for Inactive)
REMARK    1  A    between atoms: C_1  and  C_2
REMARK    2  A    between atoms: C_2  and  C_3
REMARK    3  A    between atoms: C_3  and  C_4
REMARK    4  A    between atoms: N_13  and  N_14
REMARK    5  A    between atoms: C_15  and  C_17
REMARK    6  A    between atoms: C_17  and  C_18
REMARK    7  A    between atoms: C_18  and  C_19
REMARK    8  A    between atoms: C_19  and  O_21
REMARK                            x       y       z     vdW  Elec       q    Type
REMARK                         _______ _______ _______ _____ _____    ______ ____
ROOT
ATOM      1  C   UNL     1       3.576   6.930  17.794  0.00  0.00    +0.000 A 
ATOM      2  N   UNL     1       3.247   8.150  17.486  0.00  0.00    +0.000 NA
ATOM      3  C   UNL     1       2.414   8.776  18.344  0.00  0.00    +0.000 A 
ATOM      4  S   UNL     1       1.866  10.352  18.000  0.00  0.00    +0.000 S 
ATOM      5  C   UNL     1       0.852  10.356  19.361  0.00  0.00    +0.000 A 
ATOM      6  C   UNL     1       0.947   9.186  20.108  0.00  0.00    +0.000 A 
ATOM      7  C   UNL     1       1.867   8.263  19.498  0.00  0.00    +0.000 A 
ATOM      8  C   UNL     1       2.238   6.899  19.852  0.00  0.00    +0.000 A 
ATOM      9  O   UNL     1       1.704   6.280  20.772  0.00  0.00    +0.000 OA
ATOM     10  N   UNL     1       3.169   6.298  18.972  0.00  0.00    +0.000 N 
ATOM     11  C   UNL     1       0.108   8.985  21.338  0.00  0.00    +0.000 C 
ATOM     12  C   UNL     1      -0.485  10.310  21.852  0.00  0.00    +0.000 C 
ATOM     13  C   UNL     1      -1.080  11.153  20.714  0.00  0.00    +0.000 C 
ATOM     14  C   UNL     1      -0.010  11.532  19.680  0.00  0.00    +0.000 C 
ENDROOT
BRANCH  10  15
ATOM     15  N   UNL     1       3.317   4.879  19.153  0.00  0.00    +0.000 N 
ATOM     16  C   UNL     1       2.512   3.985  18.468  0.00  0.00    +0.000 C 
ATOM     17  O   UNL     1       1.568   4.273  17.740  0.00  0.00    +0.000 OA
ATOM     18  H   UNL     1       4.307   4.614  19.154  0.00  0.00    +0.000 HD
BRANCH  16  19
ATOM     19  C   UNL     1       2.852   2.531  18.778  0.00  0.00    +0.000 C 
BRANCH  19  20
ATOM     20  C   UNL     1       1.723   1.870  19.560  0.00  0.00    +0.000 C 
BRANCH  20  21
ATOM     21  C   UNL     1       1.445   2.658  20.822  0.00  0.00    +0.000 C 
ATOM     22  O   UNL     1       1.975   2.447  21.898  0.00  0.00    +0.000 OA
BRANCH  21  23
ATOM     23  O   UNL     1       0.567   3.664  20.623  0.00  0.00    +0.000 OA
ATOM     24  H   UNL     1      -0.209   3.642  21.217  0.00  0.00    +0.000 HD
ENDBRANCH  21  23
ENDBRANCH  20  21
ENDBRANCH  19  20
ENDBRANCH  16  19
ENDBRANCH  10  15
BRANCH   1  25
ATOM     25  C   UNL     1       4.449   6.177  16.799  0.00  0.00    +0.000 C 
BRANCH  25  27
ATOM     26  C   UNL     1       6.780   5.486  16.162  0.00  0.00    +0.000 C 
ATOM     27  C   UNL     1       5.944   6.478  16.948  0.00  0.00    +0.000 C 
ENDBRANCH  25  27
ENDBRANCH   1  25
TORSDOF 7
ENDMDL
MODEL 9
REMARK VINA RESULT:      -7.3      4.070      6.633
REMARK  Name = 
REMARK  8 active torsions:
REMARK  status: ('A' for Active; 'I' for Inactive)
REMARK    1  A    between atoms: C_1  and  C_2
REMARK    2  A    between atoms: C_2  and  C_3
REMARK    3  A    between atoms: C_3  and  C_4
REMARK    4  A    between atoms: N_13  and  N_14
REMARK    5  A    between atoms: C_15  and  C_17
REMARK    6  A    between atoms: C_17  and  C_18
REMARK    7  A    between atoms: C_18  and  C_19
REMARK    8  A    between atoms: C_19  and  O_21
REMARK                            x       y       z     vdW  Elec       q    Type
REMARK                         _______ _______ _______ _____ _____    ______ ____
ROOT
ATOM      1  C   UNL     1       3.374   6.434  17.991  0.00  0.00    +0.000 A 
ATOM      2  N   UNL     1       3.166   7.666  17.633  0.00  0.00    +0.000 NA
ATOM      3  C   UNL     1       2.387   8.401  18.455  0.00  0.00    +0.000 A 
ATOM      4  S   UNL     1       1.996  10.007  18.044  0.00  0.00    +0.000 S 
ATOM      5  C   UNL     1       0.973  10.160  19.390  0.00  0.00    +0.000 A 
ATOM      6  C   UNL     1       0.948   9.016  20.181  0.00  0.00    +0.000 A 
ATOM      7  C   UNL     1       1.782   7.987  19.620  0.00  0.00    +0.000 A 
ATOM      8  C   UNL     1       2.018   6.609  20.029  0.00  0.00    +0.000 A 
ATOM      9  O   UNL     1       1.419   6.080  20.964  0.00  0.00    +0.000 OA
ATOM     10  N   UNL     1       2.897   5.889  19.185  0.00  0.00    +0.000 N 
ATOM     11  C   UNL     1       0.082   8.943  21.407  0.00  0.00    +0.000 C 
ATOM     12  C   UNL     1      -0.388  10.337  21.862  0.00  0.00    +0.000 C 
ATOM     13  C   UNL     1      -0.888  11.188  20.685  0.00  0.00    +0.000 C 
ATOM     14  C   UNL     1       0.224  11.424  19.652  0.00  0.00    +0.000 C 
ENDROOT
BRANCH  10  15
ATOM     15  N   UNL     1       2.907   4.470  19.422  0.00  0.00    +0.000 N 
ATOM     16  C   UNL     1       2.059   3.625  18.726  0.00  0.00    +0.000 C 
ATOM     17  O   UNL     1       1.182   3.967  17.941  0.00  0.00    +0.000 OA
ATOM     18  H   UNL     1       3.868   4.119  19.484  0.00  0.00    +0.000 HD
BRANCH  16  19
ATOM     19  C   UNL     1       2.251   2.160  19.102  0.00  0.00    +0.000 C 
BRANCH  19  20
ATOM     20  C   UNL     1       3.659   1.695  18.753  0.00  0.00    +0.000 C 
BRANCH  20  21
ATOM     21  C   UNL     1       4.648   2.269  19.744  0.00  0.00    +0.000 C 
ATOM     22  O   UNL     1       4.693   1.973  20.924  0.00  0.00    +0.000 OA
BRANCH  21  23
ATOM     23  O   UNL     1       5.523   3.124  19.170  0.00  0.00    +0.000 OA
ATOM     24  H   UNL     1       5.144   3.998  18.954  0.00  0.00    +0.000 HD
ENDBRANCH  21  23
ENDBRANCH  20  21
ENDBRANCH  19  20
ENDBRANCH  16  19
ENDBRANCH  10  15
BRANCH   1  25
ATOM     25  C   UNL     1       4.182   5.562  17.036  0.00  0.00    +0.000 C 
BRANCH  25  27
ATOM     26  C   UNL     1       6.554   6.389  17.019  0.00  0.00    +0.000 C 
ATOM     27  C   UNL     1       5.245   6.339  16.254  0.00  0.00    +0.000 C 
ENDBRANCH  25  27
ENDBRANCH   1  25
TORSDOF 7
ENDMDL
