MODEL 1
REMARK VINA RESULT:      -7.3      0.000      0.000
REMARK  Name = 
REMARK  5 active torsions:
REMARK  status: ('A' for Active; 'I' for Inactive)
REMARK    1  A    between atoms: C_1  and  C_2
REMARK    2  A    between atoms: C_2  and  N_3
REMARK    3  A    between atoms: C_8  and  C_9
REMARK    4  A    between atoms: C_12  and  C_13
REMARK    5  A    between atoms: C_17  and  C_18
REMARK                            x       y       z     vdW  Elec       q    Type
REMARK                         _______ _______ _______ _____ _____    ______ ____
ROOT
ATOM      1  C   UNL     1       4.407   4.996  18.807  0.00  0.00    +0.000 C 
ATOM      2  O   UNL     1       4.394   6.095  19.353  0.00  0.00    +0.000 OA
ATOM      3  N   UNL     1       3.567   3.961  19.243  0.00  0.00    +0.000 N 
ATOM      4  C   UNL     1       2.420   4.192  20.166  0.00  0.00    +0.000 C 
ATOM      5  C   UNL     1       1.942   5.626  20.389  0.00  0.00    +0.000 C 
ATOM      6  C   UNL     1       1.226   3.339  19.670  0.00  0.00    +0.000 C 
ATOM      7  O   UNL     1       1.567   1.945  19.604  0.00  0.00    +0.000 OA
ATOM      8  C   UNL     1       2.657   1.725  18.699  0.00  0.00    +0.000 C 
ATOM      9  C   UNL     1       3.909   2.519  19.113  0.00  0.00    +0.000 C 
ATOM     10  C   UNL     1       4.508   1.962  20.413  0.00  0.00    +0.000 C 
ENDROOT
BRANCH   1  16
ATOM     11  N   UNL     1       6.651   4.914  17.616  0.00  0.00    +0.000 N 
ATOM     12  C   UNL     1       7.153   4.569  16.383  0.00  0.00    +0.000 A 
ATOM     13  C   UNL     1       6.085   4.360  15.557  0.00  0.00    +0.000 A 
ATOM     14 BR   UNL     1       6.130   3.964  13.730  0.00  0.00    +0.000 Br
ATOM     15  C   UNL     1       4.910   4.531  16.307  0.00  0.00    +0.000 A 
ATOM     16  C   UNL     1       5.265   4.769  17.635  0.00  0.00    +0.000 A 
BRANCH  11  18
ATOM     17  C   UNL     1       7.893   6.893  18.366  0.00  0.00    +0.000 C 
ATOM     18  C   UNL     1       7.486   5.461  18.678  0.00  0.00    +0.000 C 
ENDBRANCH  11  18
ENDBRANCH   1  16
TORSDOF 2
ENDMDL
MODEL 2
REMARK VINA RESULT:      -6.6      1.487      2.576
REMARK  Name = 
REMARK  5 active torsions:
REMARK  status: ('A' for Active; 'I' for Inactive)
REMARK    1  A    between atoms: C_1  and  C_2
REMARK    2  A    between atoms: C_2  and  N_3
REMARK    3  A    between atoms: C_8  and  C_9
REMARK    4  A    between atoms: C_12  and  C_13
REMARK    5  A    between atoms: C_17  and  C_18
REMARK                            x       y       z     vdW  Elec       q    Type
REMARK                         _______ _______ _______ _____ _____    ______ ____
ROOT
ATOM      1  C   UNL     1       4.157   3.222  18.596  0.00  0.00    +0.000 C 
ATOM      2  O   UNL     1       4.252   2.062  18.987  0.00  0.00    +0.000 OA
ATOM      3  N   UNL     1       3.166   4.076  19.100  0.00  0.00    +0.000 N 
ATOM      4  C   UNL     1       2.372   3.756  20.320  0.00  0.00    +0.000 C 
ATOM      5  C   UNL     1       2.864   2.634  21.234  0.00  0.00    +0.000 C 
ATOM      6  C   UNL     1       2.230   5.052  21.154  0.00  0.00    +0.000 C 
ATOM      7  O   UNL     1       1.610   6.102  20.393  0.00  0.00    +0.000 OA
ATOM      8  C   UNL     1       2.388   6.422  19.232  0.00  0.00    +0.000 C 
ATOM      9  C   UNL     1       2.576   5.196  18.319  0.00  0.00    +0.000 C 
ATOM     10  C   UNL     1       1.248   4.791  17.664  0.00  0.00    +0.000 C 
ENDROOT
BRANCH   1  16
ATOM     11  N   UNL     1       6.203   4.588  17.959  0.00  0.00    +0.000 N 
ATOM     12  C   UNL     1       6.958   4.855  16.841  0.00  0.00    +0.000 A 
ATOM     13  C   UNL     1       6.290   4.335  15.769  0.00  0.00    +0.000 A 
ATOM     14 BR   UNL     1       6.767   4.470  13.966  0.00  0.00    +0.000 Br
ATOM     15  C   UNL     1       5.133   3.695  16.243  0.00  0.00    +0.000 A 
ATOM     16  C   UNL     1       5.134   3.755  17.635  0.00  0.00    +0.000 A 
BRANCH  11  18
ATOM     17  C   UNL     1       7.824   5.897  19.256  0.00  0.00    +0.000 C 
ATOM     18  C   UNL     1       6.466   5.211  19.250  0.00  0.00    +0.000 C 
ENDBRANCH  11  18
ENDBRANCH   1  16
TORSDOF 2
ENDMDL
MODEL 3
REMARK VINA RESULT:      -6.6      2.951      5.753
REMARK  Name = 
REMARK  5 active torsions:
REMARK  status: ('A' for Active; 'I' for Inactive)
REMARK    1  A    between atoms: C_1  and  C_2
REMARK    2  A    between atoms: C_2  and  N_3
REMARK    3  A    between atoms: C_8  and  C_9
REMARK    4  A    between atoms: C_12  and  C_13
REMARK    5  A    between atoms: C_17  and  C_18
REMARK                            x       y       z     vdW  Elec       q    Type
REMARK                         _______ _______ _______ _____ _____    ______ ____
ROOT
ATOM      1  C   UNL     1       3.965   5.150  17.783  0.00  0.00    +0.000 C 
ATOM      2  O   UNL     1       3.427   4.081  17.510  0.00  0.00    +0.000 OA
ATOM      3  N   UNL     1       5.306   5.390  17.453  0.00  0.00    +0.000 N 
ATOM      4  C   UNL     1       6.070   4.523  16.511  0.00  0.00    +0.000 C 
ATOM      5  C   UNL     1       5.294   3.545  15.631  0.00  0.00    +0.000 C 
ATOM      6  C   UNL     1       6.926   5.440  15.603  0.00  0.00    +0.000 C 
ATOM      7  O   UNL     1       7.809   6.270  16.375  0.00  0.00    +0.000 OA
ATOM      8  C   UNL     1       7.068   7.117  17.265  0.00  0.00    +0.000 C 
ATOM      9  C   UNL     1       6.190   6.300  18.230  0.00  0.00    +0.000 C 
ATOM     10  C   UNL     1       7.055   5.524  19.235  0.00  0.00    +0.000 C 
ENDROOT
BRANCH   1  16
ATOM     11  N   UNL     1       2.608   6.167  19.676  0.00  0.00    +0.000 N 
ATOM     12  C   UNL     1       1.996   7.362  19.981  0.00  0.00    +0.000 A 
ATOM     13  C   UNL     1       2.031   8.133  18.854  0.00  0.00    +0.000 A 
ATOM     14 BR   UNL     1       1.268   9.823  18.618  0.00  0.00    +0.000 Br
ATOM     15  C   UNL     1       2.718   7.421  17.857  0.00  0.00    +0.000 A 
ATOM     16  C   UNL     1       3.182   6.227  18.407  0.00  0.00    +0.000 A 
BRANCH  11  18
ATOM     17  C   UNL     1       1.172   4.326  20.431  0.00  0.00    +0.000 C 
ATOM     18  C   UNL     1       2.530   5.002  20.546  0.00  0.00    +0.000 C 
ENDBRANCH  11  18
ENDBRANCH   1  16
TORSDOF 2
ENDMDL
MODEL 4
REMARK VINA RESULT:      -6.5      2.188      3.309
REMARK  Name = 
REMARK  5 active torsions:
REMARK  status: ('A' for Active; 'I' for Inactive)
REMARK    1  A    between atoms: C_1  and  C_2
REMARK    2  A    between atoms: C_2  and  N_3
REMARK    3  A    between atoms: C_8  and  C_9
REMARK    4  A    between atoms: C_12  and  C_13
REMARK    5  A    between atoms: C_17  and  C_18
REMARK                            x       y       z     vdW  Elec       q    Type
REMARK                         _______ _______ _______ _____ _____    ______ ____
ROOT
ATOM      1  C   UNL     1       4.814   3.782  18.902  0.00  0.00    +0.000 C 
ATOM      2  O   UNL     1       5.279   2.668  19.125  0.00  0.00    +0.000 OA
ATOM      3  N   UNL     1       3.531   4.133  19.348  0.00  0.00    +0.000 N 
ATOM      4  C   UNL     1       2.780   3.326  20.352  0.00  0.00    +0.000 C 
ATOM      5  C   UNL     1       3.542   2.276  21.159  0.00  0.00    +0.000 C 
ATOM      6  C   UNL     1       2.088   4.304  21.332  0.00  0.00    +0.000 C 
ATOM      7  O   UNL     1       1.217   5.215  20.641  0.00  0.00    +0.000 OA
ATOM      8  C   UNL     1       1.948   6.004  19.693  0.00  0.00    +0.000 C 
ATOM      9  C   UNL     1       2.665   5.123  18.653  0.00  0.00    +0.000 C 
ATOM     10  C   UNL     1       1.653   4.434  17.725  0.00  0.00    +0.000 C 
ENDROOT
BRANCH   1  16
ATOM     11  N   UNL     1       5.923   4.794  16.852  0.00  0.00    +0.000 N 
ATOM     12  C   UNL     1       6.656   5.910  16.521  0.00  0.00    +0.000 A 
ATOM     13  C   UNL     1       6.977   6.544  17.688  0.00  0.00    +0.000 A 
ATOM     14 BR   UNL     1       8.049   8.062  17.892  0.00  0.00    +0.000 Br
ATOM     15  C   UNL     1       6.390   5.833  18.747  0.00  0.00    +0.000 A 
ATOM     16  C   UNL     1       5.629   4.793  18.215  0.00  0.00    +0.000 A 
BRANCH  11  18
ATOM     17  C   UNL     1       6.132   4.105  14.506  0.00  0.00    +0.000 C 
ATOM     18  C   UNL     1       5.627   3.737  15.894  0.00  0.00    +0.000 C 
ENDBRANCH  11  18
ENDBRANCH   1  16
TORSDOF 2
ENDMDL
MODEL 5
REMARK VINA RESULT:      -6.3      2.751      5.787
REMARK  Name = 
REMARK  5 active torsions:
REMARK  status: ('A' for Active; 'I' for Inactive)
REMARK    1  A    between atoms: C_1  and  C_2
REMARK    2  A    between atoms: C_2  and  N_3
REMARK    3  A    between atoms: C_8  and  C_9
REMARK    4  A    between atoms: C_12  and  C_13
REMARK    5  A    between atoms: C_17  and  C_18
REMARK                            x       y       z     vdW  Elec       q    Type
REMARK                         _______ _______ _______ _____ _____    ______ ____
ROOT
ATOM      1  C   UNL     1       4.530   4.287  17.993  0.00  0.00    +0.000 C 
ATOM      2  O   UNL     1       4.238   3.164  17.592  0.00  0.00    +0.000 OA
ATOM      3  N   UNL     1       5.681   4.944  17.533  0.00  0.00    +0.000 N 
ATOM      4  C   UNL     1       6.448   4.481  16.341  0.00  0.00    +0.000 C 
ATOM      5  C   UNL     1       5.794   3.468  15.403  0.00  0.00    +0.000 C 
ATOM      6  C   UNL     1       6.858   5.729  15.522  0.00  0.00    +0.000 C 
ATOM      7  O   UNL     1       7.631   6.647  16.312  0.00  0.00    +0.000 OA
ATOM      8  C   UNL     1       6.881   7.106  17.445  0.00  0.00    +0.000 C 
ATOM      9  C   UNL     1       6.435   5.937  18.342  0.00  0.00    +0.000 C 
ATOM     10  C   UNL     1       7.640   5.294  19.045  0.00  0.00    +0.000 C 
ENDROOT
BRANCH   1  16
ATOM     11  N   UNL     1       2.981   4.407  20.004  0.00  0.00    +0.000 N 
ATOM     12  C   UNL     1       2.266   5.353  20.701  0.00  0.00    +0.000 A 
ATOM     13  C   UNL     1       2.318   6.511  19.978  0.00  0.00    +0.000 A 
ATOM     14 BR   UNL     1       1.450   8.123  20.362  0.00  0.00    +0.000 Br
ATOM     15  C   UNL     1       3.118   6.286  18.846  0.00  0.00    +0.000 A 
ATOM     16  C   UNL     1       3.632   4.992  18.919  0.00  0.00    +0.000 A 
BRANCH  11  18
ATOM     17  C   UNL     1       2.081   2.746  21.570  0.00  0.00    +0.000 C 
ATOM     18  C   UNL     1       2.932   2.988  20.332  0.00  0.00    +0.000 C 
ENDBRANCH  11  18
ENDBRANCH   1  16
TORSDOF 2
ENDMDL
MODEL 6
REMARK VINA RESULT:      -5.9      2.794      3.878
REMARK  Name = 
REMARK  5 active torsions:
REMARK  status: ('A' for Active; 'I' for Inactive)
REMARK    1  A    between atoms: C_1  and  C_2
REMARK    2  A    between atoms: C_2  and  N_3
REMARK    3  A    between atoms: C_8  and  C_9
REMARK    4  A    between atoms: C_12  and  C_13
REMARK    5  A    between atoms: C_17  and  C_18
REMARK                            x       y       z     vdW  Elec       q    Type
REMARK                         _______ _______ _______ _____ _____    ______ ____
ROOT
ATOM      1  C   UNL     1       3.015   4.169  17.916  0.00  0.00    +0.000 C 
ATOM      2  O   UNL     1       3.229   3.475  16.926  0.00  0.00    +0.000 OA
ATOM      3  N   UNL     1       2.766   3.588  19.168  0.00  0.00    +0.000 N 
ATOM      4  C   UNL     1       3.034   2.149  19.454  0.00  0.00    +0.000 C 
ATOM      5  C   UNL     1       3.901   1.362  18.472  0.00  0.00    +0.000 C 
ATOM      6  C   UNL     1       3.663   2.050  20.865  0.00  0.00    +0.000 C 
ATOM      7  O   UNL     1       2.807   2.627  21.864  0.00  0.00    +0.000 OA
ATOM      8  C   UNL     1       2.569   4.016  21.597  0.00  0.00    +0.000 C 
ATOM      9  C   UNL     1       1.925   4.226  20.215  0.00  0.00    +0.000 C 
ATOM     10  C   UNL     1       0.487   3.687  20.191  0.00  0.00    +0.000 C 
ENDROOT
BRANCH   1  16
ATOM     11  N   UNL     1       4.231   6.365  17.518  0.00  0.00    +0.000 N 
ATOM     12  C   UNL     1       3.938   7.707  17.438  0.00  0.00    +0.000 A 
ATOM     13  C   UNL     1       2.642   7.862  17.841  0.00  0.00    +0.000 A 
ATOM     14 BR   UNL     1       1.706   9.468  18.043  0.00  0.00    +0.000 Br
ATOM     15  C   UNL     1       2.116   6.591  18.125  0.00  0.00    +0.000 A 
ATOM     16  C   UNL     1       3.081   5.634  17.813  0.00  0.00    +0.000 A 
BRANCH  11  18
ATOM     17  C   UNL     1       5.962   5.579  15.966  0.00  0.00    +0.000 C 
ATOM     18  C   UNL     1       5.590   5.851  17.417  0.00  0.00    +0.000 C 
ENDBRANCH  11  18
ENDBRANCH   1  16
TORSDOF 2
ENDMDL
MODEL 7
REMARK VINA RESULT:      -5.8      2.634      5.350
REMARK  Name = 
REMARK  5 active torsions:
REMARK  status: ('A' for Active; 'I' for Inactive)
REMARK    1  A    between atoms: C_1  and  C_2
REMARK    2  A    between atoms: C_2  and  N_3
REMARK    3  A    between atoms: C_8  and  C_9
REMARK    4  A    between atoms: C_12  and  C_13
REMARK    5  A    between atoms: C_17  and  C_18
REMARK                            x       y       z     vdW  Elec       q    Type
REMARK                         _______ _______ _______ _____ _____    ______ ____
ROOT
ATOM      1  C   UNL     1       5.034   5.244  18.770  0.00  0.00    +0.000 C 
ATOM      2  O   UNL     1       5.649   5.584  19.777  0.00  0.00    +0.000 OA
ATOM      3  N   UNL     1       5.648   5.254  17.509  0.00  0.00    +0.000 N 
ATOM      4  C   UNL     1       7.123   5.380  17.334  0.00  0.00    +0.000 C 
ATOM      5  C   UNL     1       8.021   5.165  18.552  0.00  0.00    +0.000 C 
ATOM      6  C   UNL     1       7.558   4.403  16.215  0.00  0.00    +0.000 C 
ATOM      7  O   UNL     1       6.865   4.671  14.984  0.00  0.00    +0.000 OA
ATOM      8  C   UNL     1       5.448   4.528  15.153  0.00  0.00    +0.000 C 
ATOM      9  C   UNL     1       4.906   5.474  16.240  0.00  0.00    +0.000 C 
ATOM     10  C   UNL     1       4.988   6.938  15.783  0.00  0.00    +0.000 C 
ENDROOT
BRANCH   1  16
ATOM     11  N   UNL     1       2.535   5.554  19.110  0.00  0.00    +0.000 N 
ATOM     12  C   UNL     1       1.390   4.792  19.103  0.00  0.00    +0.000 A 
ATOM     13  C   UNL     1       1.777   3.483  19.039  0.00  0.00    +0.000 A 
ATOM     14 BR   UNL     1       0.674   1.974  19.101  0.00  0.00    +0.000 Br
ATOM     15  C   UNL     1       3.179   3.445  18.955  0.00  0.00    +0.000 A 
ATOM     16  C   UNL     1       3.653   4.753  18.885  0.00  0.00    +0.000 A 
BRANCH  11  18
ATOM     17  C   UNL     1       2.317   7.814  18.177  0.00  0.00    +0.000 C 
ATOM     18  C   UNL     1       2.528   6.976  19.430  0.00  0.00    +0.000 C 
ENDBRANCH  11  18
ENDBRANCH   1  16
TORSDOF 2
ENDMDL
MODEL 8
REMARK VINA RESULT:      -5.8      1.607      2.078
REMARK  Name = 
REMARK  5 active torsions:
REMARK  status: ('A' for Active; 'I' for Inactive)
REMARK    1  A    between atoms: C_1  and  C_2
REMARK    2  A    between atoms: C_2  and  N_3
REMARK    3  A    between atoms: C_8  and  C_9
REMARK    4  A    between atoms: C_12  and  C_13
REMARK    5  A    between atoms: C_17  and  C_18
REMARK                            x       y       z     vdW  Elec       q    Type
REMARK                         _______ _______ _______ _____ _____    ______ ____
ROOT
ATOM      1  C   UNL     1       4.265   4.659  18.963  0.00  0.00    +0.000 C 
ATOM      2  O   UNL     1       4.716   5.221  19.957  0.00  0.00    +0.000 OA
ATOM      3  N   UNL     1       3.236   3.712  19.071  0.00  0.00    +0.000 N 
ATOM      4  C   UNL     1       2.429   3.540  20.312  0.00  0.00    +0.000 C 
ATOM      5  C   UNL     1       2.495   4.631  21.380  0.00  0.00    +0.000 C 
ATOM      6  C   UNL     1       0.951   3.336  19.898  0.00  0.00    +0.000 C 
ATOM      7  O   UNL     1       0.801   2.208  19.022  0.00  0.00    +0.000 OA
ATOM      8  C   UNL     1       1.562   2.387  17.820  0.00  0.00    +0.000 C 
ATOM      9  C   UNL     1       3.060   2.583  18.120  0.00  0.00    +0.000 C 
ATOM     10  C   UNL     1       3.686   1.287  18.658  0.00  0.00    +0.000 C 
ENDROOT
BRANCH   1  16
ATOM     11  N   UNL     1       4.616   6.279  17.037  0.00  0.00    +0.000 N 
ATOM     12  C   UNL     1       5.239   6.305  15.811  0.00  0.00    +0.000 A 
ATOM     13  C   UNL     1       5.639   5.029  15.534  0.00  0.00    +0.000 A 
ATOM     14 BR   UNL     1       6.452   4.413  13.966  0.00  0.00    +0.000 Br
ATOM     15  C   UNL     1       5.300   4.217  16.629  0.00  0.00    +0.000 A 
ATOM     16  C   UNL     1       4.757   5.024  17.627  0.00  0.00    +0.000 A 
BRANCH  11  18
ATOM     17  C   UNL     1       2.394   6.983  17.807  0.00  0.00    +0.000 C 
ATOM     18  C   UNL     1       3.834   7.400  17.543  0.00  0.00    +0.000 C 
ENDBRANCH  11  18
ENDBRANCH   1  16
TORSDOF 2
ENDMDL
MODEL 9
REMARK VINA RESULT:      -5.7      2.541      3.403
REMARK  Name = 
REMARK  5 active torsions:
REMARK  status: ('A' for Active; 'I' for Inactive)
REMARK    1  A    between atoms: C_1  and  C_2
REMARK    2  A    between atoms: C_2  and  N_3
REMARK    3  A    between atoms: C_8  and  C_9
REMARK    4  A    between atoms: C_12  and  C_13
REMARK    5  A    between atoms: C_17  and  C_18
REMARK                            x       y       z     vdW  Elec       q    Type
REMARK                         _______ _______ _______ _____ _____    ______ ____
ROOT
ATOM      1  C   UNL     1       4.176   4.227  18.809  0.00  0.00    +0.000 C 
ATOM      2  O   UNL     1       5.281   3.706  18.686  0.00  0.00    +0.000 OA
ATOM      3  N   UNL     1       3.145   3.580  19.506  0.00  0.00    +0.000 N 
ATOM      4  C   UNL     1       3.384   2.395  20.379  0.00  0.00    +0.000 C 
ATOM      5  C   UNL     1       4.820   2.072  20.789  0.00  0.00    +0.000 C 
ATOM      6  C   UNL     1       2.525   2.561  21.656  0.00  0.00    +0.000 C 
ATOM      7  O   UNL     1       1.130   2.698  21.338  0.00  0.00    +0.000 OA
ATOM      8  C   UNL     1       0.902   3.850  20.516  0.00  0.00    +0.000 C 
ATOM      9  C   UNL     1       1.702   3.779  19.203  0.00  0.00    +0.000 C 
ATOM     10  C   UNL     1       1.159   2.671  18.289  0.00  0.00    +0.000 C 
ENDROOT
BRANCH   1  16
ATOM     11  N   UNL     1       4.761   6.237  17.369  0.00  0.00    +0.000 N 
ATOM     12  C   UNL     1       4.224   7.458  17.034  0.00  0.00    +0.000 A 
ATOM     13  C   UNL     1       3.145   7.661  17.847  0.00  0.00    +0.000 A 
ATOM     14 BR   UNL     1       2.067   9.187  17.935  0.00  0.00    +0.000 Br
ATOM     15  C   UNL     1       2.989   6.526  18.659  0.00  0.00    +0.000 A 
ATOM     16  C   UNL     1       3.938   5.578  18.280  0.00  0.00    +0.000 A 
BRANCH  11  18
ATOM     17  C   UNL     1       7.182   6.590  17.569  0.00  0.00    +0.000 C 
ATOM     18  C   UNL     1       6.068   5.800  16.897  0.00  0.00    +0.000 C 
ENDBRANCH  11  18
ENDBRANCH   1  16
TORSDOF 2
ENDMDL
