MODEL 1
REMARK VINA RESULT:      -8.6      0.000      0.000
REMARK  Name = 
REMARK  6 active torsions:
REMARK  status: ('A' for Active; 'I' for Inactive)
REMARK    1  A    between atoms: C_1  and  C_2
REMARK    2  A    between atoms: C_2  and  C_4
REMARK    3  A    between atoms: C_9  and  N_10
REMARK    4  A    between atoms: N_10  and  C_11
REMARK    5  A    between atoms: C_12  and  C_13
REMARK    6  A    between atoms: N_17  and  C_18
REMARK                            x       y       z     vdW  Elec       q    Type
REMARK                         _______ _______ _______ _____ _____    ______ ____
ROOT
ATOM      1  N   UNL     1       4.178   3.023  17.631  0.00  0.00    +0.000 N 
ATOM      2  H   UNL     1       4.499   2.473  18.440  0.00  0.00    +0.000 HD
ENDROOT
BRANCH   1   8
ATOM      3  C   UNL     1       6.172   4.488  17.419  0.00  0.00    +0.000 A 
ATOM      4  C   UNL     1       7.128   5.139  16.616  0.00  0.00    +0.000 A 
ATOM      5  C   UNL     1       7.084   4.934  15.257  0.00  0.00    +0.000 A 
ATOM      6  C   UNL     1       6.158   4.101  14.687  0.00  0.00    +0.000 A 
ATOM      7  C   UNL     1       5.223   3.429  15.445  0.00  0.00    +0.000 A 
ATOM      8  C   UNL     1       5.203   3.609  16.845  0.00  0.00    +0.000 A 
ATOM      9  O   UNL     1       6.278   4.040  13.334  0.00  0.00    +0.000 OA
ATOM     10  C   UNL     1       7.360   4.969  13.116  0.00  0.00    +0.000 C 
ATOM     11  O   UNL     1       7.905   5.506  14.340  0.00  0.00    +0.000 OA
BRANCH   3  13
ATOM     12  C   UNL     1       7.194   5.752  19.416  0.00  0.00    +0.000 C 
ATOM     13  C   UNL     1       6.199   4.746  18.887  0.00  0.00    +0.000 C 
ATOM     14  O   UNL     1       5.437   4.136  19.633  0.00  0.00    +0.000 OA
ENDBRANCH   3  13
ENDBRANCH   1   8
BRANCH   1  15
ATOM     15  C   UNL     1       2.825   3.081  17.403  0.00  0.00    +0.000 C 
ATOM     16  C   UNL     1       1.775   3.243  18.219  0.00  0.00    +0.000 C 
BRANCH  16  17
ATOM     17  C   UNL     1       1.863   3.421  19.619  0.00  0.00    +0.000 A 
ATOM     18  N   UNL     1       1.838   2.537  20.599  0.00  0.00    +0.000 NA
ATOM     19  N   UNL     1       2.283   3.183  21.720  0.00  0.00    +0.000 NA
ATOM     20  N   UNL     1       2.583   4.445  21.455  0.00  0.00    +0.000 NA
ATOM     21  N   UNL     1       2.190   4.657  20.175  0.00  0.00    +0.000 N 
BRANCH  21  22
ATOM     22  C   UNL     1       2.108   5.978  19.658  0.00  0.00    +0.000 A 
ATOM     23  C   UNL     1       2.668   6.262  18.401  0.00  0.00    +0.000 A 
ATOM     24  C   UNL     1       2.647   7.569  17.902  0.00  0.00    +0.000 A 
ATOM     25  C   UNL     1       2.102   8.596  18.669  0.00  0.00    +0.000 A 
ATOM     26 CL   UNL     1       2.127  10.211  18.078  0.00  0.00    +0.000 Cl
ATOM     27  C   UNL     1       1.554   8.325  19.922  0.00  0.00    +0.000 A 
ATOM     28  C   UNL     1       1.546   7.016  20.416  0.00  0.00    +0.000 A 
ENDBRANCH  21  22
ENDBRANCH  16  17
ENDBRANCH   1  15
TORSDOF 5
ENDMDL
MODEL 2
REMARK VINA RESULT:      -8.5      0.508      1.056
REMARK  Name = 
REMARK  6 active torsions:
REMARK  status: ('A' for Active; 'I' for Inactive)
REMARK    1  A    between atoms: C_1  and  C_2
REMARK    2  A    between atoms: C_2  and  C_4
REMARK    3  A    between atoms: C_9  and  N_10
REMARK    4  A    between atoms: N_10  and  C_11
REMARK    5  A    between atoms: C_12  and  C_13
REMARK    6  A    between atoms: N_17  and  C_18
REMARK                            x       y       z     vdW  Elec       q    Type
REMARK                         _______ _______ _______ _____ _____    ______ ____
ROOT
ATOM      1  N   UNL     1       4.137   3.559  17.563  0.00  0.00    +0.000 N 
ATOM      2  H   UNL     1       4.410   3.098  18.442  0.00  0.00    +0.000 HD
ENDROOT
BRANCH   1   8
ATOM      3  C   UNL     1       6.231   4.857  17.252  0.00  0.00    +0.000 A 
ATOM      4  C   UNL     1       7.239   5.364  16.409  0.00  0.00    +0.000 A 
ATOM      5  C   UNL     1       7.194   5.038  15.074  0.00  0.00    +0.000 A 
ATOM      6  C   UNL     1       6.218   4.222  14.567  0.00  0.00    +0.000 A 
ATOM      7  C   UNL     1       5.230   3.689  15.367  0.00  0.00    +0.000 A 
ATOM      8  C   UNL     1       5.208   3.999  16.745  0.00  0.00    +0.000 A 
ATOM      9  O   UNL     1       6.348   4.029  13.227  0.00  0.00    +0.000 OA
ATOM     10  C   UNL     1       7.495   4.856  12.944  0.00  0.00    +0.000 C 
ATOM     11  O   UNL     1       8.064   5.465  14.123  0.00  0.00    +0.000 OA
BRANCH   3  13
ATOM     12  C   UNL     1       7.599   5.562  19.317  0.00  0.00    +0.000 C 
ATOM     13  C   UNL     1       6.260   5.247  18.691  0.00  0.00    +0.000 C 
ATOM     14  O   UNL     1       5.218   5.289  19.339  0.00  0.00    +0.000 OA
ENDBRANCH   3  13
ENDBRANCH   1   8
BRANCH   1  15
ATOM     15  C   UNL     1       2.794   3.651  17.287  0.00  0.00    +0.000 C 
ATOM     16  C   UNL     1       1.712   3.742  18.073  0.00  0.00    +0.000 C 
BRANCH  16  17
ATOM     17  C   UNL     1       1.744   3.783  19.486  0.00  0.00    +0.000 A 
ATOM     18  N   UNL     1       1.687   2.808  20.374  0.00  0.00    +0.000 NA
ATOM     19  N   UNL     1       2.084   3.345  21.569  0.00  0.00    +0.000 NA
ATOM     20  N   UNL     1       2.383   4.628  21.440  0.00  0.00    +0.000 NA
ATOM     21  N   UNL     1       2.040   4.961  20.171  0.00  0.00    +0.000 N 
BRANCH  21  22
ATOM     22  C   UNL     1       1.967   6.326  19.782  0.00  0.00    +0.000 A 
ATOM     23  C   UNL     1       1.477   7.277  20.691  0.00  0.00    +0.000 A 
ATOM     24  C   UNL     1       1.345   8.615  20.306  0.00  0.00    +0.000 A 
ATOM     25  C   UNL     1       1.666   8.997  19.005  0.00  0.00    +0.000 A 
ATOM     26 CL   UNL     1       1.450  10.632  18.515  0.00  0.00    +0.000 Cl
ATOM     27  C   UNL     1       2.142   8.058  18.092  0.00  0.00    +0.000 A 
ATOM     28  C   UNL     1       2.304   6.724  18.479  0.00  0.00    +0.000 A 
ENDBRANCH  21  22
ENDBRANCH  16  17
ENDBRANCH   1  15
TORSDOF 5
ENDMDL
MODEL 3
REMARK VINA RESULT:      -8.3      3.549      4.913
REMARK  Name = 
REMARK  6 active torsions:
REMARK  status: ('A' for Active; 'I' for Inactive)
REMARK    1  A    between atoms: C_1  and  C_2
REMARK    2  A    between atoms: C_2  and  C_4
REMARK    3  A    between atoms: C_9  and  N_10
REMARK    4  A    between atoms: N_10  and  C_11
REMARK    5  A    between atoms: C_12  and  C_13
REMARK    6  A    between atoms: N_17  and  C_18
REMARK                            x       y       z     vdW  Elec       q    Type
REMARK                         _______ _______ _______ _____ _____    ______ ____
ROOT
ATOM      1  N   UNL     1       3.085   7.307  18.349  0.00  0.00    +0.000 N 
ATOM      2  H   UNL     1       3.131   7.172  19.368  0.00  0.00    +0.000 HD
ENDROOT
BRANCH   1   8
ATOM      3  C   UNL     1       3.518   4.927  17.788  0.00  0.00    +0.000 A 
ATOM      4  C   UNL     1       4.245   3.953  17.076  0.00  0.00    +0.000 A 
ATOM      5  C   UNL     1       5.204   4.379  16.188  0.00  0.00    +0.000 A 
ATOM      6  C   UNL     1       5.440   5.711  15.970  0.00  0.00    +0.000 A 
ATOM      7  C   UNL     1       4.732   6.690  16.633  0.00  0.00    +0.000 A 
ATOM      8  C   UNL     1       3.743   6.320  17.571  0.00  0.00    +0.000 A 
ATOM      9  O   UNL     1       6.430   5.921  15.062  0.00  0.00    +0.000 OA
ATOM     10  C   UNL     1       6.820   4.564  14.768  0.00  0.00    +0.000 C 
ATOM     11  O   UNL     1       6.013   3.578  15.448  0.00  0.00    +0.000 OA
BRANCH   3  13
ATOM     12  C   UNL     1       1.325   3.667  18.273  0.00  0.00    +0.000 C 
ATOM     13  C   UNL     1       2.508   4.459  18.780  0.00  0.00    +0.000 C 
ATOM     14  O   UNL     1       2.641   4.733  19.970  0.00  0.00    +0.000 OA
ENDBRANCH   3  13
ENDBRANCH   1   8
BRANCH   1  15
ATOM     15  C   UNL     1       2.371   8.385  17.885  0.00  0.00    +0.000 C 
ATOM     16  C   UNL     1       1.545   9.251  18.486  0.00  0.00    +0.000 C 
BRANCH  16  17
ATOM     17  C   UNL     1       1.226   9.235  19.864  0.00  0.00    +0.000 A 
ATOM     18  N   UNL     1       1.214   8.239  20.730  0.00  0.00    +0.000 NA
ATOM     19  N   UNL     1       1.158   8.804  21.976  0.00  0.00    +0.000 NA
ATOM     20  N   UNL     1       1.134  10.126  21.898  0.00  0.00    +0.000 NA
ATOM     21  N   UNL     1       1.030  10.416  20.578  0.00  0.00    +0.000 N 
BRANCH  21  22
ATOM     22  C   UNL     1       0.699  11.732  20.156  0.00  0.00    +0.000 A 
ATOM     23  C   UNL     1      -0.616  12.017  19.753  0.00  0.00    +0.000 A 
ATOM     24  C   UNL     1      -0.947  13.291  19.280  0.00  0.00    +0.000 A 
ATOM     25  C   UNL     1       0.040  14.269  19.175  0.00  0.00    +0.000 A 
ATOM     26 CL   UNL     1      -0.355  15.818  18.541  0.00  0.00    +0.000 Cl
ATOM     27  C   UNL     1       1.350  13.993  19.562  0.00  0.00    +0.000 A 
ATOM     28  C   UNL     1       1.682  12.729  20.062  0.00  0.00    +0.000 A 
ENDBRANCH  21  22
ENDBRANCH  16  17
ENDBRANCH   1  15
TORSDOF 5
ENDMDL
MODEL 4
REMARK VINA RESULT:      -8.2      3.921      5.743
REMARK  Name = 
REMARK  6 active torsions:
REMARK  status: ('A' for Active; 'I' for Inactive)
REMARK    1  A    between atoms: C_1  and  C_2
REMARK    2  A    between atoms: C_2  and  C_4
REMARK    3  A    between atoms: C_9  and  N_10
REMARK    4  A    between atoms: N_10  and  C_11
REMARK    5  A    between atoms: C_12  and  C_13
REMARK    6  A    between atoms: N_17  and  C_18
REMARK                            x       y       z     vdW  Elec       q    Type
REMARK                         _______ _______ _______ _____ _____    ______ ____
ROOT
ATOM      1  N   UNL     1       3.304   7.748  18.109  0.00  0.00    +0.000 N 
ATOM      2  H   UNL     1       4.006   8.165  18.736  0.00  0.00    +0.000 HD
ENDROOT
BRANCH   1   8
ATOM      3  C   UNL     1       4.268   5.652  17.190  0.00  0.00    +0.000 A 
ATOM      4  C   UNL     1       4.223   4.253  17.037  0.00  0.00    +0.000 A 
ATOM      5  C   UNL     1       3.227   3.560  17.683  0.00  0.00    +0.000 A 
ATOM      6  C   UNL     1       2.311   4.195  18.479  0.00  0.00    +0.000 A 
ATOM      7  C   UNL     1       2.339   5.560  18.670  0.00  0.00    +0.000 A 
ATOM      8  C   UNL     1       3.327   6.333  18.022  0.00  0.00    +0.000 A 
ATOM      9  O   UNL     1       1.408   3.334  19.019  0.00  0.00    +0.000 OA
ATOM     10  C   UNL     1       1.836   2.088  18.433  0.00  0.00    +0.000 C 
ATOM     11  O   UNL     1       3.020   2.219  17.617  0.00  0.00    +0.000 OA
BRANCH   3  13
ATOM     12  C   UNL     1       6.675   6.564  17.115  0.00  0.00    +0.000 C 
ATOM     13  C   UNL     1       5.326   6.403  16.455  0.00  0.00    +0.000 C 
ATOM     14  O   UNL     1       5.083   6.885  15.351  0.00  0.00    +0.000 OA
ENDBRANCH   3  13
ENDBRANCH   1   8
BRANCH   1  15
ATOM     15  C   UNL     1       2.429   8.602  17.482  0.00  0.00    +0.000 C 
ATOM     16  C   UNL     1       1.368   9.292  17.919  0.00  0.00    +0.000 C 
BRANCH  16  17
ATOM     17  C   UNL     1       0.900   9.291  19.253  0.00  0.00    +0.000 A 
ATOM     18  N   UNL     1       1.448   8.812  20.354  0.00  0.00    +0.000 NA
ATOM     19  N   UNL     1       0.756   9.353  21.404  0.00  0.00    +0.000 NA
ATOM     20  N   UNL     1      -0.208  10.154  20.976  0.00  0.00    +0.000 NA
ATOM     21  N   UNL     1      -0.229  10.018  19.627  0.00  0.00    +0.000 N 
BRANCH  21  22
ATOM     22  C   UNL     1      -1.323  10.522  18.872  0.00  0.00    +0.000 A 
ATOM     23  C   UNL     1      -2.102  11.566  19.399  0.00  0.00    +0.000 A 
ATOM     24  C   UNL     1      -3.216  12.036  18.696  0.00  0.00    +0.000 A 
ATOM     25  C   UNL     1      -3.574  11.441  17.488  0.00  0.00    +0.000 A 
ATOM     26 CL   UNL     1      -4.977  11.981  16.651  0.00  0.00    +0.000 Cl
ATOM     27  C   UNL     1      -2.815  10.397  16.963  0.00  0.00    +0.000 A 
ATOM     28  C   UNL     1      -1.682   9.941  17.646  0.00  0.00    +0.000 A 
ENDBRANCH  21  22
ENDBRANCH  16  17
ENDBRANCH   1  15
TORSDOF 5
ENDMDL
MODEL 5
REMARK VINA RESULT:      -8.2      3.748      5.645
REMARK  Name = 
REMARK  6 active torsions:
REMARK  status: ('A' for Active; 'I' for Inactive)
REMARK    1  A    between atoms: C_1  and  C_2
REMARK    2  A    between atoms: C_2  and  C_4
REMARK    3  A    between atoms: C_9  and  N_10
REMARK    4  A    between atoms: N_10  and  C_11
REMARK    5  A    between atoms: C_12  and  C_13
REMARK    6  A    between atoms: N_17  and  C_18
REMARK                            x       y       z     vdW  Elec       q    Type
REMARK                         _______ _______ _______ _____ _____    ______ ____
ROOT
ATOM      1  N   UNL     1       3.260   7.807  18.089  0.00  0.00    +0.000 N 
ATOM      2  H   UNL     1       4.085   8.231  18.535  0.00  0.00    +0.000 HD
ENDROOT
BRANCH   1   8
ATOM      3  C   UNL     1       4.225   5.689  17.224  0.00  0.00    +0.000 A 
ATOM      4  C   UNL     1       4.166   4.288  17.083  0.00  0.00    +0.000 A 
ATOM      5  C   UNL     1       3.139   3.616  17.701  0.00  0.00    +0.000 A 
ATOM      6  C   UNL     1       2.205   4.271  18.459  0.00  0.00    +0.000 A 
ATOM      7  C   UNL     1       2.246   5.638  18.638  0.00  0.00    +0.000 A 
ATOM      8  C   UNL     1       3.266   6.391  18.016  0.00  0.00    +0.000 A 
ATOM      9  O   UNL     1       1.272   3.429  18.976  0.00  0.00    +0.000 OA
ATOM     10  C   UNL     1       1.703   2.171  18.417  0.00  0.00    +0.000 C 
ATOM     11  O   UNL     1       2.915   2.278  17.641  0.00  0.00    +0.000 OA
BRANCH   3  13
ATOM     12  C   UNL     1       6.659   6.530  17.204  0.00  0.00    +0.000 C 
ATOM     13  C   UNL     1       5.318   6.417  16.518  0.00  0.00    +0.000 C 
ATOM     14  O   UNL     1       5.110   6.921  15.417  0.00  0.00    +0.000 OA
ENDBRANCH   3  13
ENDBRANCH   1   8
BRANCH   1  15
ATOM     15  C   UNL     1       2.264   8.653  17.665  0.00  0.00    +0.000 C 
ATOM     16  C   UNL     1       1.314   9.332  18.321  0.00  0.00    +0.000 C 
BRANCH  16  17
ATOM     17  C   UNL     1       1.141   9.325  19.724  0.00  0.00    +0.000 A 
ATOM     18  N   UNL     1       1.195   8.331  20.590  0.00  0.00    +0.000 NA
ATOM     19  N   UNL     1       1.286   8.898  21.833  0.00  0.00    +0.000 NA
ATOM     20  N   UNL     1       1.290  10.220  21.754  0.00  0.00    +0.000 NA
ATOM     21  N   UNL     1       1.054  10.512  20.451  0.00  0.00    +0.000 N 
BRANCH  21  22
ATOM     22  C   UNL     1       0.716  11.837  20.062  0.00  0.00    +0.000 A 
ATOM     23  C   UNL     1      -0.597  12.121  19.652  0.00  0.00    +0.000 A 
ATOM     24  C   UNL     1      -0.934  13.405  19.212  0.00  0.00    +0.000 A 
ATOM     25  C   UNL     1       0.046  14.394  19.145  0.00  0.00    +0.000 A 
ATOM     26 CL   UNL     1      -0.357  15.957  18.549  0.00  0.00    +0.000 Cl
ATOM     27  C   UNL     1       1.354  14.118  19.538  0.00  0.00    +0.000 A 
ATOM     28  C   UNL     1       1.692  12.844  20.007  0.00  0.00    +0.000 A 
ENDBRANCH  21  22
ENDBRANCH  16  17
ENDBRANCH   1  15
TORSDOF 5
ENDMDL
MODEL 6
REMARK VINA RESULT:      -8.1      3.740      4.938
REMARK  Name = 
REMARK  6 active torsions:
REMARK  status: ('A' for Active; 'I' for Inactive)
REMARK    1  A    between atoms: C_1  and  C_2
REMARK    2  A    between atoms: C_2  and  C_4
REMARK    3  A    between atoms: C_9  and  N_10
REMARK    4  A    between atoms: N_10  and  C_11
REMARK    5  A    between atoms: C_12  and  C_13
REMARK    6  A    between atoms: N_17  and  C_18
REMARK                            x       y       z     vdW  Elec       q    Type
REMARK                         _______ _______ _______ _____ _____    ______ ____
ROOT
ATOM      1  N   UNL     1       3.157   7.383  18.141  0.00  0.00    +0.000 N 
ATOM      2  H   UNL     1       3.174   7.287  19.166  0.00  0.00    +0.000 HD
ENDROOT
BRANCH   1   8
ATOM      3  C   UNL     1       3.616   4.978  17.728  0.00  0.00    +0.000 A 
ATOM      4  C   UNL     1       4.347   3.970  17.070  0.00  0.00    +0.000 A 
ATOM      5  C   UNL     1       5.289   4.351  16.144  0.00  0.00    +0.000 A 
ATOM      6  C   UNL     1       5.504   5.669  15.839  0.00  0.00    +0.000 A 
ATOM      7  C   UNL     1       4.791   6.680  16.447  0.00  0.00    +0.000 A 
ATOM      8  C   UNL     1       3.819   6.358  17.420  0.00  0.00    +0.000 A 
ATOM      9  O   UNL     1       6.480   5.833  14.907  0.00  0.00    +0.000 OA
ATOM     10  C   UNL     1       6.886   4.465  14.694  0.00  0.00    +0.000 C 
ATOM     11  O   UNL     1       6.100   3.515  15.446  0.00  0.00    +0.000 OA
BRANCH   3  13
ATOM     12  C   UNL     1       3.130   3.832  19.983  0.00  0.00    +0.000 C 
ATOM     13  C   UNL     1       2.623   4.561  18.761  0.00  0.00    +0.000 C 
ATOM     14  O   UNL     1       1.429   4.798  18.597  0.00  0.00    +0.000 OA
ENDBRANCH   3  13
ENDBRANCH   1   8
BRANCH   1  15
ATOM     15  C   UNL     1       2.472   8.453  17.618  0.00  0.00    +0.000 C 
ATOM     16  C   UNL     1       1.533   9.263  18.124  0.00  0.00    +0.000 C 
BRANCH  16  17
ATOM     17  C   UNL     1       1.019   9.177  19.439  0.00  0.00    +0.000 A 
ATOM     18  N   UNL     1       1.538   8.646  20.530  0.00  0.00    +0.000 NA
ATOM     19  N   UNL     1       0.799   9.114  21.582  0.00  0.00    +0.000 NA
ATOM     20  N   UNL     1      -0.165   9.920  21.166  0.00  0.00    +0.000 NA
ATOM     21  N   UNL     1      -0.137   9.861  19.812  0.00  0.00    +0.000 N 
BRANCH  21  22
ATOM     22  C   UNL     1      -1.213  10.388  19.048  0.00  0.00    +0.000 A 
ATOM     23  C   UNL     1      -1.949  11.474  19.551  0.00  0.00    +0.000 A 
ATOM     24  C   UNL     1      -3.047  11.968  18.839  0.00  0.00    +0.000 A 
ATOM     25  C   UNL     1      -3.434  11.357  17.648  0.00  0.00    +0.000 A 
ATOM     26 CL   UNL     1      -4.818  11.930  16.803  0.00  0.00    +0.000 Cl
ATOM     27  C   UNL     1      -2.717  10.272  17.147  0.00  0.00    +0.000 A 
ATOM     28  C   UNL     1      -1.600   9.790  17.839  0.00  0.00    +0.000 A 
ENDBRANCH  21  22
ENDBRANCH  16  17
ENDBRANCH   1  15
TORSDOF 5
ENDMDL
MODEL 7
REMARK VINA RESULT:      -8.1      5.180      8.492
REMARK  Name = 
REMARK  6 active torsions:
REMARK  status: ('A' for Active; 'I' for Inactive)
REMARK    1  A    between atoms: C_1  and  C_2
REMARK    2  A    between atoms: C_2  and  C_4
REMARK    3  A    between atoms: C_9  and  N_10
REMARK    4  A    between atoms: N_10  and  C_11
REMARK    5  A    between atoms: C_12  and  C_13
REMARK    6  A    between atoms: N_17  and  C_18
REMARK                            x       y       z     vdW  Elec       q    Type
REMARK                         _______ _______ _______ _____ _____    ______ ____
ROOT
ATOM      1  N   UNL     1       0.839   9.914  19.127  0.00  0.00    +0.000 N 
ATOM      2  H   UNL     1       1.203   9.834  20.086  0.00  0.00    +0.000 HD
ENDROOT
BRANCH   1   8
ATOM      3  C   UNL     1      -0.934  11.386  20.051  0.00  0.00    +0.000 A 
ATOM      4  C   UNL     1      -2.214  11.964  19.953  0.00  0.00    +0.000 A 
ATOM      5  C   UNL     1      -2.961  11.702  18.829  0.00  0.00    +0.000 A 
ATOM      6  C   UNL     1      -2.477  10.923  17.812  0.00  0.00    +0.000 A 
ATOM      7  C   UNL     1      -1.220  10.360  17.864  0.00  0.00    +0.000 A 
ATOM      8  C   UNL     1      -0.407  10.576  18.999  0.00  0.00    +0.000 A 
ATOM      9  O   UNL     1      -3.371  10.780  16.798  0.00  0.00    +0.000 OA
ATOM     10  C   UNL     1      -4.492  11.525  17.317  0.00  0.00    +0.000 C 
ATOM     11  O   UNL     1      -4.220  12.150  18.590  0.00  0.00    +0.000 OA
BRANCH   3  13
ATOM     12  C   UNL     1      -0.842  11.499  22.623  0.00  0.00    +0.000 C 
ATOM     13  C   UNL     1      -0.144  11.641  21.290  0.00  0.00    +0.000 C 
ATOM     14  O   UNL     1       1.036  11.973  21.210  0.00  0.00    +0.000 OA
ENDBRANCH   3  13
ENDBRANCH   1   8
BRANCH   1  15
ATOM     15  C   UNL     1       1.617   9.411  18.112  0.00  0.00    +0.000 C 
ATOM     16  C   UNL     1       2.328   8.282  17.990  0.00  0.00    +0.000 C 
BRANCH  16  17
ATOM     17  C   UNL     1       2.414   7.274  18.978  0.00  0.00    +0.000 A 
ATOM     18  N   UNL     1       1.895   7.214  20.191  0.00  0.00    +0.000 NA
ATOM     19  N   UNL     1       2.000   5.911  20.597  0.00  0.00    +0.000 NA
ATOM     20  N   UNL     1       2.571   5.165  19.664  0.00  0.00    +0.000 NA
ATOM     21  N   UNL     1       2.971   6.027  18.696  0.00  0.00    +0.000 N 
BRANCH  21  22
ATOM     22  C   UNL     1       3.866   5.599  17.679  0.00  0.00    +0.000 A 
ATOM     23  C   UNL     1       4.635   6.553  16.992  0.00  0.00    +0.000 A 
ATOM     24  C   UNL     1       5.479   6.156  15.949  0.00  0.00    +0.000 A 
ATOM     25  C   UNL     1       5.527   4.817  15.567  0.00  0.00    +0.000 A 
ATOM     26 CL   UNL     1       6.522   4.339  14.247  0.00  0.00    +0.000 Cl
ATOM     27  C   UNL     1       4.759   3.865  16.235  0.00  0.00    +0.000 A 
ATOM     28  C   UNL     1       3.935   4.250  17.298  0.00  0.00    +0.000 A 
ENDBRANCH  21  22
ENDBRANCH  16  17
ENDBRANCH   1  15
TORSDOF 5
ENDMDL
MODEL 8
REMARK VINA RESULT:      -8.1      3.823      5.417
REMARK  Name = 
REMARK  6 active torsions:
REMARK  status: ('A' for Active; 'I' for Inactive)
REMARK    1  A    between atoms: C_1  and  C_2
REMARK    2  A    between atoms: C_2  and  C_4
REMARK    3  A    between atoms: C_9  and  N_10
REMARK    4  A    between atoms: N_10  and  C_11
REMARK    5  A    between atoms: C_12  and  C_13
REMARK    6  A    between atoms: N_17  and  C_18
REMARK                            x       y       z     vdW  Elec       q    Type
REMARK                         _______ _______ _______ _____ _____    ______ ____
ROOT
ATOM      1  N   UNL     1       2.102   7.168  17.856  0.00  0.00    +0.000 N 
ATOM      2  H   UNL     1       1.198   6.682  17.942  0.00  0.00    +0.000 HD
ENDROOT
BRANCH   1   8
ATOM      3  C   UNL     1       3.150   4.941  18.184  0.00  0.00    +0.000 A 
ATOM      4  C   UNL     1       4.302   4.142  18.318  0.00  0.00    +0.000 A 
ATOM      5  C   UNL     1       5.530   4.748  18.201  0.00  0.00    +0.000 A 
ATOM      6  C   UNL     1       5.647   6.086  17.936  0.00  0.00    +0.000 A 
ATOM      7  C   UNL     1       4.542   6.894  17.776  0.00  0.00    +0.000 A 
ATOM      8  C   UNL     1       3.250   6.337  17.900  0.00  0.00    +0.000 A 
ATOM      9  O   UNL     1       6.944   6.490  17.866  0.00  0.00    +0.000 OA
ATOM     10  C   UNL     1       7.628   5.255  18.164  0.00  0.00    +0.000 C 
ATOM     11  O   UNL     1       6.734   4.135  18.334  0.00  0.00    +0.000 OA
BRANCH   3  13
ATOM     12  C   UNL     1       1.427   3.815  19.732  0.00  0.00    +0.000 C 
ATOM     13  C   UNL     1       1.820   4.286  18.352  0.00  0.00    +0.000 C 
ATOM     14  O   UNL     1       1.086   4.127  17.380  0.00  0.00    +0.000 OA
ENDBRANCH   3  13
ENDBRANCH   1   8
BRANCH   1  15
ATOM     15  C   UNL     1       2.073   8.530  17.675  0.00  0.00    +0.000 C 
ATOM     16  C   UNL     1       1.604   9.534  18.428  0.00  0.00    +0.000 C 
BRANCH  16  17
ATOM     17  C   UNL     1       1.000   9.375  19.697  0.00  0.00    +0.000 A 
ATOM     18  N   UNL     1       1.468   8.840  20.809  0.00  0.00    +0.000 NA
ATOM     19  N   UNL     1       0.625   9.228  21.815  0.00  0.00    +0.000 NA
ATOM     20  N   UNL     1      -0.353   9.989  21.349  0.00  0.00    +0.000 NA
ATOM     21  N   UNL     1      -0.221   9.977  20.000  0.00  0.00    +0.000 N 
BRANCH  21  22
ATOM     22  C   UNL     1      -1.267  10.463  19.171  0.00  0.00    +0.000 A 
ATOM     23  C   UNL     1      -1.983  11.606  19.564  0.00  0.00    +0.000 A 
ATOM     24  C   UNL     1      -3.054  12.065  18.789  0.00  0.00    +0.000 A 
ATOM     25  C   UNL     1      -3.433  11.365  17.646  0.00  0.00    +0.000 A 
ATOM     26 CL   UNL     1      -4.785  11.898  16.726  0.00  0.00    +0.000 Cl
ATOM     27  C   UNL     1      -2.737  10.223  17.255  0.00  0.00    +0.000 A 
ATOM     28  C   UNL     1      -1.647   9.774  18.009  0.00  0.00    +0.000 A 
ENDBRANCH  21  22
ENDBRANCH  16  17
ENDBRANCH   1  15
TORSDOF 5
ENDMDL
MODEL 9
REMARK VINA RESULT:      -8.1      3.768      5.004
REMARK  Name = 
REMARK  6 active torsions:
REMARK  status: ('A' for Active; 'I' for Inactive)
REMARK    1  A    between atoms: C_1  and  C_2
REMARK    2  A    between atoms: C_2  and  C_4
REMARK    3  A    between atoms: C_9  and  N_10
REMARK    4  A    between atoms: N_10  and  C_11
REMARK    5  A    between atoms: C_12  and  C_13
REMARK    6  A    between atoms: N_17  and  C_18
REMARK                            x       y       z     vdW  Elec       q    Type
REMARK                         _______ _______ _______ _____ _____    ______ ____
ROOT
ATOM      1  N   UNL     1       2.845   7.282  18.286  0.00  0.00    +0.000 N 
ATOM      2  H   UNL     1       2.677   7.050  19.275  0.00  0.00    +0.000 HD
ENDROOT
BRANCH   1   8
ATOM      3  C   UNL     1       3.253   4.938  17.577  0.00  0.00    +0.000 A 
ATOM      4  C   UNL     1       4.054   3.983  16.921  0.00  0.00    +0.000 A 
ATOM      5  C   UNL     1       5.191   4.417  16.283  0.00  0.00    +0.000 A 
ATOM      6  C   UNL     1       5.537   5.742  16.254  0.00  0.00    +0.000 A 
ATOM      7  C   UNL     1       4.764   6.706  16.865  0.00  0.00    +0.000 A 
ATOM      8  C   UNL     1       3.591   6.325  17.552  0.00  0.00    +0.000 A 
ATOM      9  O   UNL     1       6.697   5.961  15.580  0.00  0.00    +0.000 OA
ATOM     10  C   UNL     1       7.065   4.611  15.227  0.00  0.00    +0.000 C 
ATOM     11  O   UNL     1       6.087   3.630  15.633  0.00  0.00    +0.000 OA
BRANCH   3  13
ATOM     12  C   UNL     1       2.045   4.512  19.811  0.00  0.00    +0.000 C 
ATOM     13  C   UNL     1       2.042   4.456  18.301  0.00  0.00    +0.000 C 
ATOM     14  O   UNL     1       1.084   4.014  17.672  0.00  0.00    +0.000 OA
ENDBRANCH   3  13
ENDBRANCH   1   8
BRANCH   1  15
ATOM     15  C   UNL     1       2.301   8.449  17.809  0.00  0.00    +0.000 C 
ATOM     16  C   UNL     1       1.490   9.362  18.359  0.00  0.00    +0.000 C 
BRANCH  16  17
ATOM     17  C   UNL     1       0.997   9.307  19.684  0.00  0.00    +0.000 A 
ATOM     18  N   UNL     1       1.557   8.853  20.789  0.00  0.00    +0.000 NA
ATOM     19  N   UNL     1       0.806   9.326  21.831  0.00  0.00    +0.000 NA
ATOM     20  N   UNL     1      -0.204  10.062  21.395  0.00  0.00    +0.000 NA
ATOM     21  N   UNL     1      -0.189   9.945  20.045  0.00  0.00    +0.000 N 
BRANCH  21  22
ATOM     22  C   UNL     1      -1.301  10.379  19.274  0.00  0.00    +0.000 A 
ATOM     23  C   UNL     1      -1.697   9.631  18.152  0.00  0.00    +0.000 A 
ATOM     24  C   UNL     1      -2.753  10.074  17.349  0.00  0.00    +0.000 A 
ATOM     25  C   UNL     1      -3.389  11.279  17.642  0.00  0.00    +0.000 A 
ATOM     26 CL   UNL     1      -4.650  11.851  16.620  0.00  0.00    +0.000 Cl
ATOM     27  C   UNL     1      -2.996  12.034  18.745  0.00  0.00    +0.000 A 
ATOM     28  C   UNL     1      -1.960  11.583  19.570  0.00  0.00    +0.000 A 
ENDBRANCH  21  22
ENDBRANCH  16  17
ENDBRANCH   1  15
TORSDOF 5
ENDMDL
