MODEL 1
REMARK VINA RESULT:      -7.0      0.000      0.000
REMARK  Name = 
REMARK  8 active torsions:
REMARK  status: ('A' for Active; 'I' for Inactive)
REMARK    1  A    between atoms: C_1  and  C_2
REMARK    2  A    between atoms: C_5  and  N_6
REMARK    3  A    between atoms: C_7  and  C_9
REMARK    4  A    between atoms: C_9  and  S_10
REMARK    5  A    between atoms: S_10  and  C_11
REMARK    6  A    between atoms: C_11  and  N_13
REMARK    7  A    between atoms: N_13  and  N_14
REMARK    8  A    between atoms: C_15  and  C_16
REMARK                            x       y       z     vdW  Elec       q    Type
REMARK                         _______ _______ _______ _____ _____    ______ ____
ROOT
ATOM      1  S   UNL     1       3.536   2.042  19.842  0.00  0.00    +0.000 S 
ENDROOT
BRANCH   1   2
ATOM      2  C   UNL     1       2.170   3.140  20.013  0.00  0.00    +0.000 C 
ATOM      3  S   UNL     1       0.668   2.919  19.303  0.00  0.00    +0.000 S 
BRANCH   2   4
ATOM      4  N   UNL     1       2.542   4.234  20.782  0.00  0.00    +0.000 N 
ATOM      5  H   UNL     1       3.056   4.071  21.643  0.00  0.00    +0.000 HD
BRANCH   4   6
ATOM      6  N   UNL     1       2.043   5.477  20.513  0.00  0.00    +0.000 NA
ATOM      7  C   UNL     1       2.605   6.159  19.566  0.00  0.00    +0.000 C 
BRANCH   7   8
ATOM      8  C   UNL     1       2.164   7.540  19.289  0.00  0.00    +0.000 A 
ATOM      9  C   UNL     1       2.440   8.154  18.067  0.00  0.00    +0.000 A 
ATOM     10  C   UNL     1       1.993   9.452  17.833  0.00  0.00    +0.000 A 
ATOM     11  C   UNL     1       1.281  10.089  18.838  0.00  0.00    +0.000 A 
ATOM     12  N   UNL     1       0.993   9.521  20.032  0.00  0.00    +0.000 NA
ATOM     13  C   UNL     1       1.440   8.255  20.231  0.00  0.00    +0.000 A 
ENDBRANCH   7   8
ENDBRANCH   4   6
ENDBRANCH   2   4
ENDBRANCH   1   2
BRANCH   1  14
ATOM     14  C   UNL     1       3.867   2.125  18.046  0.00  0.00    +0.000 C 
BRANCH  14  16
ATOM     15  N   UNL     1       5.514   3.910  18.379  0.00  0.00    +0.000 N 
ATOM     16  C   UNL     1       4.384   3.512  17.672  0.00  0.00    +0.000 C 
ATOM     17  O   UNL     1       3.794   4.182  16.825  0.00  0.00    +0.000 OA
ATOM     18  H   UNL     1       5.879   3.272  19.076  0.00  0.00    +0.000 HD
BRANCH  15  23
ATOM     19  C   UNL     1       8.234   8.934  17.702  0.00  0.00    +0.000 C 
ATOM     20  C   UNL     1       7.538   7.617  17.884  0.00  0.00    +0.000 A 
ATOM     21  C   UNL     1       8.085   6.631  18.706  0.00  0.00    +0.000 A 
ATOM     22  C   UNL     1       7.436   5.398  18.877  0.00  0.00    +0.000 A 
ATOM     23  C   UNL     1       6.225   5.127  18.236  0.00  0.00    +0.000 A 
ATOM     24  C   UNL     1       5.678   6.120  17.409  0.00  0.00    +0.000 A 
ATOM     25  C   UNL     1       6.329   7.353  17.233  0.00  0.00    +0.000 A 
ENDBRANCH  15  23
ENDBRANCH  14  16
ENDBRANCH   1  14
TORSDOF 7
ENDMDL
MODEL 2
REMARK VINA RESULT:      -6.8      0.292      1.043
REMARK  Name = 
REMARK  8 active torsions:
REMARK  status: ('A' for Active; 'I' for Inactive)
REMARK    1  A    between atoms: C_1  and  C_2
REMARK    2  A    between atoms: C_5  and  N_6
REMARK    3  A    between atoms: C_7  and  C_9
REMARK    4  A    between atoms: C_9  and  S_10
REMARK    5  A    between atoms: S_10  and  C_11
REMARK    6  A    between atoms: C_11  and  N_13
REMARK    7  A    between atoms: N_13  and  N_14
REMARK    8  A    between atoms: C_15  and  C_16
REMARK                            x       y       z     vdW  Elec       q    Type
REMARK                         _______ _______ _______ _____ _____    ______ ____
ROOT
ATOM      1  S   UNL     1       3.890   2.182  19.791  0.00  0.00    +0.000 S 
ENDROOT
BRANCH   1   2
ATOM      2  C   UNL     1       2.384   3.074  19.995  0.00  0.00    +0.000 C 
ATOM      3  S   UNL     1       0.878   2.539  19.492  0.00  0.00    +0.000 S 
BRANCH   2   4
ATOM      4  N   UNL     1       2.644   4.300  20.590  0.00  0.00    +0.000 N 
ATOM      5  H   UNL     1       3.161   4.318  21.464  0.00  0.00    +0.000 HD
BRANCH   4   6
ATOM      6  N   UNL     1       2.034   5.436  20.138  0.00  0.00    +0.000 NA
ATOM      7  C   UNL     1       2.789   6.438  19.816  0.00  0.00    +0.000 C 
BRANCH   7   8
ATOM      8  C   UNL     1       2.182   7.719  19.404  0.00  0.00    +0.000 A 
ATOM      9  C   UNL     1       2.382   8.232  18.122  0.00  0.00    +0.000 A 
ATOM     10  C   UNL     1       1.779   9.434  17.762  0.00  0.00    +0.000 A 
ATOM     11  C   UNL     1       0.992  10.079  18.704  0.00  0.00    +0.000 A 
ATOM     12  N   UNL     1       0.774   9.607  19.953  0.00  0.00    +0.000 NA
ATOM     13  C   UNL     1       1.373   8.432  20.276  0.00  0.00    +0.000 A 
ENDBRANCH   7   8
ENDBRANCH   4   6
ENDBRANCH   2   4
ENDBRANCH   1   2
BRANCH   1  14
ATOM     14  C   UNL     1       4.081   2.172  17.973  0.00  0.00    +0.000 C 
BRANCH  14  16
ATOM     15  N   UNL     1       5.507   4.132  18.341  0.00  0.00    +0.000 N 
ATOM     16  C   UNL     1       4.583   3.531  17.492  0.00  0.00    +0.000 C 
ATOM     17  O   UNL     1       4.152   4.012  16.445  0.00  0.00    +0.000 OA
ATOM     18  H   UNL     1       5.750   3.641  19.193  0.00  0.00    +0.000 HD
BRANCH  15  23
ATOM     19  C   UNL     1       8.320   9.106  17.668  0.00  0.00    +0.000 C 
ATOM     20  C   UNL     1       7.573   7.815  17.838  0.00  0.00    +0.000 A 
ATOM     21  C   UNL     1       6.376   7.591  17.156  0.00  0.00    +0.000 A 
ATOM     22  C   UNL     1       5.676   6.385  17.314  0.00  0.00    +0.000 A 
ATOM     23  C   UNL     1       6.158   5.376  18.150  0.00  0.00    +0.000 A 
ATOM     24  C   UNL     1       7.361   5.605  18.836  0.00  0.00    +0.000 A 
ATOM     25  C   UNL     1       8.061   6.814  18.682  0.00  0.00    +0.000 A 
ENDBRANCH  15  23
ENDBRANCH  14  16
ENDBRANCH   1  14
TORSDOF 7
ENDMDL
MODEL 3
REMARK VINA RESULT:      -6.7      0.883      1.185
REMARK  Name = 
REMARK  8 active torsions:
REMARK  status: ('A' for Active; 'I' for Inactive)
REMARK    1  A    between atoms: C_1  and  C_2
REMARK    2  A    between atoms: C_5  and  N_6
REMARK    3  A    between atoms: C_7  and  C_9
REMARK    4  A    between atoms: C_9  and  S_10
REMARK    5  A    between atoms: S_10  and  C_11
REMARK    6  A    between atoms: C_11  and  N_13
REMARK    7  A    between atoms: N_13  and  N_14
REMARK    8  A    between atoms: C_15  and  C_16
REMARK                            x       y       z     vdW  Elec       q    Type
REMARK                         _______ _______ _______ _____ _____    ______ ____
ROOT
ATOM      1  S   UNL     1       3.066   2.329  20.827  0.00  0.00    +0.000 S 
ENDROOT
BRANCH   1   2
ATOM      2  C   UNL     1       1.949   3.632  20.429  0.00  0.00    +0.000 C 
ATOM      3  S   UNL     1       0.622   3.480  19.417  0.00  0.00    +0.000 S 
BRANCH   2   4
ATOM      4  N   UNL     1       2.364   4.807  21.039  0.00  0.00    +0.000 N 
ATOM      5  H   UNL     1       2.899   4.744  21.900  0.00  0.00    +0.000 HD
BRANCH   4   6
ATOM      6  N   UNL     1       1.882   6.015  20.623  0.00  0.00    +0.000 NA
ATOM      7  C   UNL     1       2.470   6.585  19.621  0.00  0.00    +0.000 C 
BRANCH   7   8
ATOM      8  C   UNL     1       2.048   7.931  19.184  0.00  0.00    +0.000 A 
ATOM      9  C   UNL     1       1.146   8.684  19.938  0.00  0.00    +0.000 A 
ATOM     10  C   UNL     1       0.784   9.956  19.505  0.00  0.00    +0.000 A 
ATOM     11  C   UNL     1       1.342  10.430  18.327  0.00  0.00    +0.000 A 
ATOM     12  N   UNL     1       2.221   9.728  17.575  0.00  0.00    +0.000 NA
ATOM     13  C   UNL     1       2.558   8.491  18.022  0.00  0.00    +0.000 A 
ENDBRANCH   7   8
ENDBRANCH   4   6
ENDBRANCH   2   4
ENDBRANCH   1   2
BRANCH   1  14
ATOM     14  C   UNL     1       3.783   1.931  19.193  0.00  0.00    +0.000 C 
BRANCH  14  16
ATOM     15  N   UNL     1       5.408   3.766  19.136  0.00  0.00    +0.000 N 
ATOM     16  C   UNL     1       4.294   3.203  18.521  0.00  0.00    +0.000 C 
ATOM     17  O   UNL     1       3.712   3.657  17.537  0.00  0.00    +0.000 OA
ATOM     18  H   UNL     1       5.767   3.308  19.965  0.00  0.00    +0.000 HD
BRANCH  15  23
ATOM     19  C   UNL     1       8.089   8.546  17.385  0.00  0.00    +0.000 C 
ATOM     20  C   UNL     1       7.403   7.294  17.847  0.00  0.00    +0.000 A 
ATOM     21  C   UNL     1       7.981   6.487  18.829  0.00  0.00    +0.000 A 
ATOM     22  C   UNL     1       7.342   5.316  19.263  0.00  0.00    +0.000 A 
ATOM     23  C   UNL     1       6.110   4.928  18.731  0.00  0.00    +0.000 A 
ATOM     24  C   UNL     1       5.533   5.740  17.743  0.00  0.00    +0.000 A 
ATOM     25  C   UNL     1       6.173   6.911  17.304  0.00  0.00    +0.000 A 
ENDBRANCH  15  23
ENDBRANCH  14  16
ENDBRANCH   1  14
TORSDOF 7
ENDMDL
MODEL 4
REMARK VINA RESULT:      -6.6      1.258      1.921
REMARK  Name = 
REMARK  8 active torsions:
REMARK  status: ('A' for Active; 'I' for Inactive)
REMARK    1  A    between atoms: C_1  and  C_2
REMARK    2  A    between atoms: C_5  and  N_6
REMARK    3  A    between atoms: C_7  and  C_9
REMARK    4  A    between atoms: C_9  and  S_10
REMARK    5  A    between atoms: S_10  and  C_11
REMARK    6  A    between atoms: C_11  and  N_13
REMARK    7  A    between atoms: N_13  and  N_14
REMARK    8  A    between atoms: C_15  and  C_16
REMARK                            x       y       z     vdW  Elec       q    Type
REMARK                         _______ _______ _______ _____ _____    ______ ____
ROOT
ATOM      1  S   UNL     1       0.718   3.465  19.615  0.00  0.00    +0.000 S 
ENDROOT
BRANCH   1   2
ATOM      2  C   UNL     1       1.909   3.498  20.913  0.00  0.00    +0.000 C 
ATOM      3  S   UNL     1       2.601   2.142  21.612  0.00  0.00    +0.000 S 
BRANCH   2   4
ATOM      4  N   UNL     1       2.146   4.810  21.297  0.00  0.00    +0.000 N 
ATOM      5  H   UNL     1       2.571   4.982  22.203  0.00  0.00    +0.000 HD
BRANCH   4   6
ATOM      6  N   UNL     1       1.622   5.850  20.583  0.00  0.00    +0.000 NA
ATOM      7  C   UNL     1       2.351   6.911  20.443  0.00  0.00    +0.000 C 
BRANCH   7   8
ATOM      8  C   UNL     1       1.805   8.098  19.755  0.00  0.00    +0.000 A 
ATOM      9  C   UNL     1       2.087   8.346  18.411  0.00  0.00    +0.000 A 
ATOM     10  C   UNL     1       1.539   9.465  17.790  0.00  0.00    +0.000 A 
ATOM     11  C   UNL     1       0.723  10.298  18.542  0.00  0.00    +0.000 A 
ATOM     12  N   UNL     1       0.427  10.083  19.844  0.00  0.00    +0.000 NA
ATOM     13  C   UNL     1       0.974   8.984  20.423  0.00  0.00    +0.000 A 
ENDBRANCH   7   8
ENDBRANCH   4   6
ENDBRANCH   2   4
ENDBRANCH   1   2
BRANCH   1  14
ATOM     14  C   UNL     1       1.592   2.511  18.323  0.00  0.00    +0.000 C 
BRANCH  14  16
ATOM     15  N   UNL     1       3.075   4.440  18.021  0.00  0.00    +0.000 N 
ATOM     16  C   UNL     1       3.007   3.055  18.137  0.00  0.00    +0.000 C 
ATOM     17  O   UNL     1       3.962   2.282  18.080  0.00  0.00    +0.000 OA
ATOM     18  H   UNL     1       2.205   4.956  18.051  0.00  0.00    +0.000 HD
BRANCH  15  23
ATOM     19  C   UNL     1       7.909   7.522  17.527  0.00  0.00    +0.000 C 
ATOM     20  C   UNL     1       6.641   6.728  17.646  0.00  0.00    +0.000 A 
ATOM     21  C   UNL     1       5.637   6.843  16.684  0.00  0.00    +0.000 A 
ATOM     22  C   UNL     1       4.450   6.101  16.793  0.00  0.00    +0.000 A 
ATOM     23  C   UNL     1       4.244   5.226  17.861  0.00  0.00    +0.000 A 
ATOM     24  C   UNL     1       5.254   5.114  18.829  0.00  0.00    +0.000 A 
ATOM     25  C   UNL     1       6.441   5.859  18.722  0.00  0.00    +0.000 A 
ENDBRANCH  15  23
ENDBRANCH  14  16
ENDBRANCH   1  14
TORSDOF 7
ENDMDL
MODEL 5
REMARK VINA RESULT:      -6.5      3.698      6.850
REMARK  Name = 
REMARK  8 active torsions:
REMARK  status: ('A' for Active; 'I' for Inactive)
REMARK    1  A    between atoms: C_1  and  C_2
REMARK    2  A    between atoms: C_5  and  N_6
REMARK    3  A    between atoms: C_7  and  C_9
REMARK    4  A    between atoms: C_9  and  S_10
REMARK    5  A    between atoms: S_10  and  C_11
REMARK    6  A    between atoms: C_11  and  N_13
REMARK    7  A    between atoms: N_13  and  N_14
REMARK    8  A    between atoms: C_15  and  C_16
REMARK                            x       y       z     vdW  Elec       q    Type
REMARK                         _______ _______ _______ _____ _____    ______ ____
ROOT
ATOM      1  S   UNL     1       7.090   5.011  16.230  0.00  0.00    +0.000 S 
ENDROOT
BRANCH   1   2
ATOM      2  C   UNL     1       7.387   6.204  17.492  0.00  0.00    +0.000 C 
ATOM      3  S   UNL     1       7.691   5.844  19.100  0.00  0.00    +0.000 S 
BRANCH   2   4
ATOM      4  N   UNL     1       7.284   7.482  16.960  0.00  0.00    +0.000 N 
ATOM      5  H   UNL     1       6.623   7.642  16.206  0.00  0.00    +0.000 HD
BRANCH   4   6
ATOM      6  N   UNL     1       8.196   8.446  17.282  0.00  0.00    +0.000 NA
ATOM      7  C   UNL     1       7.839   9.352  18.135  0.00  0.00    +0.000 C 
BRANCH   7   8
ATOM      8  C   UNL     1       8.752  10.467  18.454  0.00  0.00    +0.000 A 
ATOM      9  C   UNL     1       9.659  10.376  19.511  0.00  0.00    +0.000 A 
ATOM     10  C   UNL     1      10.518  11.440  19.772  0.00  0.00    +0.000 A 
ATOM     11  C   UNL     1      10.437  12.561  18.960  0.00  0.00    +0.000 A 
ATOM     12  N   UNL     1       9.573  12.680  17.926  0.00  0.00    +0.000 NA
ATOM     13  C   UNL     1       8.749  11.627  17.693  0.00  0.00    +0.000 A 
ENDBRANCH   7   8
ENDBRANCH   4   6
ENDBRANCH   2   4
ENDBRANCH   1   2
BRANCH   1  14
ATOM     14  C   UNL     1       5.379   5.410  15.726  0.00  0.00    +0.000 C 
BRANCH  14  16
ATOM     15  N   UNL     1       4.284   3.963  17.375  0.00  0.00    +0.000 N 
ATOM     16  C   UNL     1       4.435   5.269  16.918  0.00  0.00    +0.000 C 
ATOM     17  O   UNL     1       3.868   6.259  17.377  0.00  0.00    +0.000 OA
ATOM     18  H   UNL     1       4.784   3.233  16.882  0.00  0.00    +0.000 HD
BRANCH  15  23
ATOM     19  C   UNL     1       1.172   2.345  21.936  0.00  0.00    +0.000 C 
ATOM     20  C   UNL     1       1.978   2.754  20.738  0.00  0.00    +0.000 A 
ATOM     21  C   UNL     1       1.684   2.243  19.473  0.00  0.00    +0.000 A 
ATOM     22  C   UNL     1       2.437   2.625  18.352  0.00  0.00    +0.000 A 
ATOM     23  C   UNL     1       3.496   3.528  18.469  0.00  0.00    +0.000 A 
ATOM     24  C   UNL     1       3.791   4.038  19.742  0.00  0.00    +0.000 A 
ATOM     25  C   UNL     1       3.040   3.654  20.867  0.00  0.00    +0.000 A 
ENDBRANCH  15  23
ENDBRANCH  14  16
ENDBRANCH   1  14
TORSDOF 7
ENDMDL
MODEL 6
REMARK VINA RESULT:      -6.5      3.470      6.788
REMARK  Name = 
REMARK  8 active torsions:
REMARK  status: ('A' for Active; 'I' for Inactive)
REMARK    1  A    between atoms: C_1  and  C_2
REMARK    2  A    between atoms: C_5  and  N_6
REMARK    3  A    between atoms: C_7  and  C_9
REMARK    4  A    between atoms: C_9  and  S_10
REMARK    5  A    between atoms: S_10  and  C_11
REMARK    6  A    between atoms: C_11  and  N_13
REMARK    7  A    between atoms: N_13  and  N_14
REMARK    8  A    between atoms: C_15  and  C_16
REMARK                            x       y       z     vdW  Elec       q    Type
REMARK                         _______ _______ _______ _____ _____    ______ ____
ROOT
ATOM      1  S   UNL     1       5.491   6.172  16.386  0.00  0.00    +0.000 S 
ENDROOT
BRANCH   1   2
ATOM      2  C   UNL     1       6.799   6.493  17.521  0.00  0.00    +0.000 C 
ATOM      3  S   UNL     1       7.055   5.654  18.949  0.00  0.00    +0.000 S 
BRANCH   2   4
ATOM      4  N   UNL     1       7.551   7.571  17.077  0.00  0.00    +0.000 N 
ATOM      5  H   UNL     1       7.853   7.587  16.107  0.00  0.00    +0.000 HD
BRANCH   4   6
ATOM      6  N   UNL     1       8.062   8.476  17.963  0.00  0.00    +0.000 NA
ATOM      7  C   UNL     1       8.320   9.667  17.525  0.00  0.00    +0.000 C 
BRANCH   7   8
ATOM      8  C   UNL     1       8.954  10.660  18.415  0.00  0.00    +0.000 A 
ATOM      9  C   UNL     1       9.163  11.975  17.995  0.00  0.00    +0.000 A 
ATOM     10  C   UNL     1       9.747  12.889  18.868  0.00  0.00    +0.000 A 
ATOM     11  C   UNL     1      10.099  12.451  20.136  0.00  0.00    +0.000 A 
ATOM     12  N   UNL     1       9.906  11.186  20.575  0.00  0.00    +0.000 NA
ATOM     13  C   UNL     1       9.334  10.316  19.704  0.00  0.00    +0.000 A 
ENDBRANCH   7   8
ENDBRANCH   4   6
ENDBRANCH   2   4
ENDBRANCH   1   2
BRANCH   1  14
ATOM     14  C   UNL     1       4.502   4.928  17.289  0.00  0.00    +0.000 C 
BRANCH  14  16
ATOM     15  N   UNL     1       3.379   6.993  17.985  0.00  0.00    +0.000 N 
ATOM     16  C   UNL     1       3.326   5.603  17.991  0.00  0.00    +0.000 C 
ATOM     17  O   UNL     1       2.449   4.921  18.520  0.00  0.00    +0.000 OA
ATOM     18  H   UNL     1       4.179   7.430  17.543  0.00  0.00    +0.000 HD
BRANCH  15  23
ATOM     19  C   UNL     1      -0.444  10.538  20.418  0.00  0.00    +0.000 C 
ATOM     20  C   UNL     1       0.548   9.618  19.769  0.00  0.00    +0.000 A 
ATOM     21  C   UNL     1       0.925   9.803  18.438  0.00  0.00    +0.000 A 
ATOM     22  C   UNL     1       1.853   8.944  17.829  0.00  0.00    +0.000 A 
ATOM     23  C   UNL     1       2.427   7.886  18.537  0.00  0.00    +0.000 A 
ATOM     24  C   UNL     1       2.045   7.701  19.875  0.00  0.00    +0.000 A 
ATOM     25  C   UNL     1       1.113   8.558  20.485  0.00  0.00    +0.000 A 
ENDBRANCH  15  23
ENDBRANCH  14  16
ENDBRANCH   1  14
TORSDOF 7
ENDMDL
MODEL 7
REMARK VINA RESULT:      -6.4      3.920      7.181
REMARK  Name = 
REMARK  8 active torsions:
REMARK  status: ('A' for Active; 'I' for Inactive)
REMARK    1  A    between atoms: C_1  and  C_2
REMARK    2  A    between atoms: C_5  and  N_6
REMARK    3  A    between atoms: C_7  and  C_9
REMARK    4  A    between atoms: C_9  and  S_10
REMARK    5  A    between atoms: S_10  and  C_11
REMARK    6  A    between atoms: C_11  and  N_13
REMARK    7  A    between atoms: N_13  and  N_14
REMARK    8  A    between atoms: C_15  and  C_16
REMARK                            x       y       z     vdW  Elec       q    Type
REMARK                         _______ _______ _______ _____ _____    ______ ____
ROOT
ATOM      1  S   UNL     1       6.179   6.599  16.257  0.00  0.00    +0.000 S 
ENDROOT
BRANCH   1   2
ATOM      2  C   UNL     1       7.239   7.114  17.567  0.00  0.00    +0.000 C 
ATOM      3  S   UNL     1       7.824   6.112  18.776  0.00  0.00    +0.000 S 
BRANCH   2   4
ATOM      4  N   UNL     1       7.472   8.478  17.471  0.00  0.00    +0.000 N 
ATOM      5  H   UNL     1       6.990   9.004  16.748  0.00  0.00    +0.000 HD
BRANCH   4   6
ATOM      6  N   UNL     1       8.485   9.063  18.176  0.00  0.00    +0.000 NA
ATOM      7  C   UNL     1       8.618  10.348  18.086  0.00  0.00    +0.000 C 
BRANCH   7   8
ATOM      8  C   UNL     1       9.746  11.023  18.757  0.00  0.00    +0.000 A 
ATOM      9  C   UNL     1      10.857  11.462  18.034  0.00  0.00    +0.000 A 
ATOM     10  C   UNL     1      11.895  12.111  18.697  0.00  0.00    +0.000 A 
ATOM     11  C   UNL     1      11.780  12.299  20.066  0.00  0.00    +0.000 A 
ATOM     12  N   UNL     1      10.716  11.890  20.795  0.00  0.00    +0.000 NA
ATOM     13  C   UNL     1       9.719  11.262  20.123  0.00  0.00    +0.000 A 
ENDBRANCH   7   8
ENDBRANCH   4   6
ENDBRANCH   2   4
ENDBRANCH   1   2
BRANCH   1  14
ATOM     14  C   UNL     1       6.331   4.779  16.340  0.00  0.00    +0.000 C 
BRANCH  14  16
ATOM     15  N   UNL     1       5.217   4.252  18.459  0.00  0.00    +0.000 N 
ATOM     16  C   UNL     1       5.130   4.186  17.072  0.00  0.00    +0.000 C 
ATOM     17  O   UNL     1       4.205   3.685  16.435  0.00  0.00    +0.000 OA
ATOM     18  H   UNL     1       6.054   4.660  18.857  0.00  0.00    +0.000 HD
BRANCH  15  23
ATOM     19  C   UNL     1       1.187   2.602  22.220  0.00  0.00    +0.000 C 
ATOM     20  C   UNL     1       2.248   3.021  21.244  0.00  0.00    +0.000 A 
ATOM     21  C   UNL     1       3.291   2.155  20.912  0.00  0.00    +0.000 A 
ATOM     22  C   UNL     1       4.284   2.545  20.000  0.00  0.00    +0.000 A 
ATOM     23  C   UNL     1       4.254   3.804  19.397  0.00  0.00    +0.000 A 
ATOM     24  C   UNL     1       3.205   4.673  19.735  0.00  0.00    +0.000 A 
ATOM     25  C   UNL     1       2.212   4.286  20.651  0.00  0.00    +0.000 A 
ENDBRANCH  15  23
ENDBRANCH  14  16
ENDBRANCH   1  14
TORSDOF 7
ENDMDL
MODEL 8
REMARK VINA RESULT:      -6.4      2.819      6.793
REMARK  Name = 
REMARK  8 active torsions:
REMARK  status: ('A' for Active; 'I' for Inactive)
REMARK    1  A    between atoms: C_1  and  C_2
REMARK    2  A    between atoms: C_5  and  N_6
REMARK    3  A    between atoms: C_7  and  C_9
REMARK    4  A    between atoms: C_9  and  S_10
REMARK    5  A    between atoms: S_10  and  C_11
REMARK    6  A    between atoms: C_11  and  N_13
REMARK    7  A    between atoms: N_13  and  N_14
REMARK    8  A    between atoms: C_15  and  C_16
REMARK                            x       y       z     vdW  Elec       q    Type
REMARK                         _______ _______ _______ _____ _____    ______ ____
ROOT
ATOM      1  S   UNL     1       2.207   5.094  18.537  0.00  0.00    +0.000 S 
ENDROOT
BRANCH   1   2
ATOM      2  C   UNL     1       2.895   4.151  19.857  0.00  0.00    +0.000 C 
ATOM      3  S   UNL     1       2.141   3.868  21.326  0.00  0.00    +0.000 S 
BRANCH   2   4
ATOM      4  N   UNL     1       4.168   3.722  19.511  0.00  0.00    +0.000 N 
ATOM      5  H   UNL     1       4.834   3.529  20.253  0.00  0.00    +0.000 HD
BRANCH   4   6
ATOM      6  N   UNL     1       4.591   3.771  18.213  0.00  0.00    +0.000 NA
ATOM      7  C   UNL     1       5.743   4.312  17.975  0.00  0.00    +0.000 C 
BRANCH   7   8
ATOM      8  C   UNL     1       6.212   4.470  16.584  0.00  0.00    +0.000 A 
ATOM      9  C   UNL     1       5.663   3.714  15.547  0.00  0.00    +0.000 A 
ATOM     10  C   UNL     1       6.116   3.903  14.245  0.00  0.00    +0.000 A 
ATOM     11  C   UNL     1       7.109   4.848  14.028  0.00  0.00    +0.000 A 
ATOM     12  N   UNL     1       7.659   5.599  15.009  0.00  0.00    +0.000 NA
ATOM     13  C   UNL     1       7.196   5.395  16.269  0.00  0.00    +0.000 A 
ENDBRANCH   7   8
ENDBRANCH   4   6
ENDBRANCH   2   4
ENDBRANCH   1   2
BRANCH   1  14
ATOM     14  C   UNL     1       3.209   6.622  18.602  0.00  0.00    +0.000 C 
BRANCH  14  16
ATOM     15  N   UNL     1       1.870   7.734  20.328  0.00  0.00    +0.000 N 
ATOM     16  C   UNL     1       2.337   7.804  19.019  0.00  0.00    +0.000 C 
ATOM     17  O   UNL     1       2.085   8.699  18.215  0.00  0.00    +0.000 OA
ATOM     18  H   UNL     1       2.125   6.920  20.874  0.00  0.00    +0.000 HD
BRANCH  15  23
ATOM     19  C   UNL     1      -1.501  11.647  22.863  0.00  0.00    +0.000 C 
ATOM     20  C   UNL     1      -0.614  10.625  22.215  0.00  0.00    +0.000 A 
ATOM     21  C   UNL     1       0.142   9.745  22.991  0.00  0.00    +0.000 A 
ATOM     22  C   UNL     1       0.972   8.788  22.387  0.00  0.00    +0.000 A 
ATOM     23  C   UNL     1       1.062   8.686  20.998  0.00  0.00    +0.000 A 
ATOM     24  C   UNL     1       0.303   9.574  20.220  0.00  0.00    +0.000 A 
ATOM     25  C   UNL     1      -0.526  10.535  20.823  0.00  0.00    +0.000 A 
ENDBRANCH  15  23
ENDBRANCH  14  16
ENDBRANCH   1  14
TORSDOF 7
ENDMDL
MODEL 9
REMARK VINA RESULT:      -6.4      1.230      1.842
REMARK  Name = 
REMARK  8 active torsions:
REMARK  status: ('A' for Active; 'I' for Inactive)
REMARK    1  A    between atoms: C_1  and  C_2
REMARK    2  A    between atoms: C_5  and  N_6
REMARK    3  A    between atoms: C_7  and  C_9
REMARK    4  A    between atoms: C_9  and  S_10
REMARK    5  A    between atoms: S_10  and  C_11
REMARK    6  A    between atoms: C_11  and  N_13
REMARK    7  A    between atoms: N_13  and  N_14
REMARK    8  A    between atoms: C_15  and  C_16
REMARK                            x       y       z     vdW  Elec       q    Type
REMARK                         _______ _______ _______ _____ _____    ______ ____
ROOT
ATOM      1  S   UNL     1       1.628   2.775  18.898  0.00  0.00    +0.000 S 
ENDROOT
BRANCH   1   2
ATOM      2  C   UNL     1       1.863   3.271  20.572  0.00  0.00    +0.000 C 
ATOM      3  S   UNL     1       1.246   2.466  21.905  0.00  0.00    +0.000 S 
BRANCH   2   4
ATOM      4  N   UNL     1       2.592   4.451  20.612  0.00  0.00    +0.000 N 
ATOM      5  H   UNL     1       3.546   4.422  20.959  0.00  0.00    +0.000 HD
BRANCH   4   6
ATOM      6  N   UNL     1       1.981   5.655  20.403  0.00  0.00    +0.000 NA
ATOM      7  C   UNL     1       2.547   6.484  19.585  0.00  0.00    +0.000 C 
BRANCH   7   8
ATOM      8  C   UNL     1       1.978   7.832  19.388  0.00  0.00    +0.000 A 
ATOM      9  C   UNL     1       1.326   8.498  20.427  0.00  0.00    +0.000 A 
ATOM     10  C   UNL     1       0.818   9.776  20.211  0.00  0.00    +0.000 A 
ATOM     11  C   UNL     1       0.983  10.342  18.955  0.00  0.00    +0.000 A 
ATOM     12  N   UNL     1       1.613   9.725  17.929  0.00  0.00    +0.000 NA
ATOM     13  C   UNL     1       2.100   8.481  18.169  0.00  0.00    +0.000 A 
ENDBRANCH   7   8
ENDBRANCH   4   6
ENDBRANCH   2   4
ENDBRANCH   1   2
BRANCH   1  14
ATOM     14  C   UNL     1       3.255   2.050  18.485  0.00  0.00    +0.000 C 
BRANCH  14  16
ATOM     15  N   UNL     1       4.443   4.070  17.762  0.00  0.00    +0.000 N 
ATOM     16  C   UNL     1       4.362   3.074  18.730  0.00  0.00    +0.000 C 
ATOM     17  O   UNL     1       5.101   2.961  19.707  0.00  0.00    +0.000 OA
ATOM     18  H   UNL     1       3.791   4.025  16.988  0.00  0.00    +0.000 HD
BRANCH  15  23
ATOM     19  C   UNL     1       8.271   8.365  17.715  0.00  0.00    +0.000 C 
ATOM     20  C   UNL     1       7.261   7.255  17.723  0.00  0.00    +0.000 A 
ATOM     21  C   UNL     1       6.024   7.413  17.097  0.00  0.00    +0.000 A 
ATOM     22  C   UNL     1       5.078   6.377  17.104  0.00  0.00    +0.000 A 
ATOM     23  C   UNL     1       5.348   5.159  17.732  0.00  0.00    +0.000 A 
ATOM     24  C   UNL     1       6.592   5.003  18.363  0.00  0.00    +0.000 A 
ATOM     25  C   UNL     1       7.539   6.042  18.360  0.00  0.00    +0.000 A 
ENDBRANCH  15  23
ENDBRANCH  14  16
ENDBRANCH   1  14
TORSDOF 7
ENDMDL
