MODEL 1
REMARK VINA RESULT:      -7.9      0.000      0.000
REMARK  Name = 
REMARK  13 active torsions:
REMARK  status: ('A' for Active; 'I' for Inactive)
REMARK    1  A    between atoms: C_1  and  C_2
REMARK    2  A    between atoms: C_2  and  C_3
REMARK    3  A    between atoms: C_2  and  C_4
REMARK    4  A    between atoms: C_4  and  N_5
REMARK    5  A    between atoms: C_4  and  C_14
REMARK    6  A    between atoms: C_6  and  C_8
REMARK    7  A    between atoms: C_20  and  C_21
REMARK    8  A    between atoms: N_23  and  C_24
REMARK    9  A    between atoms: C_24  and  C_25
REMARK   10  A    between atoms: C_24  and  C_31
REMARK   11  A    between atoms: C_25  and  C_27
REMARK   12  A    between atoms: C_31  and  C_32
REMARK   13  A    between atoms: C_31  and  C_33
REMARK                            x       y       z     vdW  Elec       q    Type
REMARK                         _______ _______ _______ _____ _____    ______ ____
ROOT
ATOM      1  C   UNL     1       4.983   6.832  17.253  0.00  0.00    +0.000 C 
ATOM      2  O   UNL     1       4.674   7.504  16.263  0.00  0.00    +0.000 OA
ATOM      3  N   UNL     1       4.049   6.618  18.264  0.00  0.00    +0.000 N 
ATOM      4  C   UNL     1       4.210   5.754  19.436  0.00  0.00    +0.000 C 
ATOM      5  C   UNL     1       2.935   4.936  19.427  0.00  0.00    +0.000 C 
ATOM      6  C   UNL     1       1.896   5.981  19.052  0.00  0.00    +0.000 C 
ATOM      7  C   UNL     1       2.623   6.874  18.031  0.00  0.00    +0.000 C 
ENDROOT
BRANCH   7   8
ATOM      8  C   UNL     1       2.228   8.355  18.202  0.00  0.00    +0.000 C 
ATOM      9  O   UNL     1       2.471   9.236  17.380  0.00  0.00    +0.000 OA
ATOM     10  N   UNL     1       1.496   8.615  19.342  0.00  0.00    +0.000 N 
ATOM     11  H   UNL     1       0.926   7.818  19.654  0.00  0.00    +0.000 HD
BRANCH  10  12
ATOM     12  C   UNL     1       0.963   9.957  19.612  0.00  0.00    +0.000 C 
BRANCH  12  13
ATOM     13  C   UNL     1      -0.045  10.448  18.534  0.00  0.00    +0.000 C 
ATOM     14  C   UNL     1      -1.432   9.807  18.496  0.00  0.00    +0.000 C 
ATOM     15  C   UNL     1      -0.139  11.977  18.438  0.00  0.00    +0.000 C 
ENDBRANCH  12  13
BRANCH  12  16
ATOM     16  C   UNL     1       0.857  10.117  21.141  0.00  0.00    +0.000 C 
ATOM     17  O   UNL     1       1.179  11.216  21.636  0.00  0.00    +0.000 OA
BRANCH  16  18
ATOM     18  C   UNL     1       0.416   8.982  22.035  0.00  0.00    +0.000 C 
ATOM     19  F   UNL     1       0.135   9.313  23.317  0.00  0.00    +0.000 F 
ATOM     20  F   UNL     1      -0.685   8.336  21.559  0.00  0.00    +0.000 F 
ATOM     21  F   UNL     1       1.393   8.028  22.118  0.00  0.00    +0.000 F 
ENDBRANCH  16  18
ENDBRANCH  12  16
ENDBRANCH  10  12
ENDBRANCH   7   8
BRANCH   1  22
ATOM     22  C   UNL     1       6.271   5.958  17.287  0.00  0.00    +0.000 C 
BRANCH  22  23
ATOM     23  N   UNL     1       6.447   5.531  15.891  0.00  0.00    +0.000 N 
ATOM     24  C   UNL     1       5.938   4.349  15.405  0.00  0.00    +0.000 C 
ATOM     25  O   UNL     1       5.308   3.555  16.094  0.00  0.00    +0.000 OA
ATOM     26  H   UNL     1       6.801   6.231  15.251  0.00  0.00    +0.000 HD
BRANCH  24  27
ATOM     27  C   UNL     1       6.163   4.064  13.959  0.00  0.00    +0.000 A 
ATOM     28  C   UNL     1       5.277   3.284  13.206  0.00  0.00    +0.000 A 
ATOM     29  C   UNL     1       5.495   3.096  11.840  0.00  0.00    +0.000 A 
ATOM     30  C   UNL     1       6.594   3.690  11.219  0.00  0.00    +0.000 A 
ATOM     31  C   UNL     1       7.483   4.463  11.962  0.00  0.00    +0.000 A 
ATOM     32  C   UNL     1       7.270   4.651  13.329  0.00  0.00    +0.000 A 
ENDBRANCH  24  27
ENDBRANCH  22  23
BRANCH  22  34
ATOM     33  C   UNL     1       7.869   6.079  19.246  0.00  0.00    +0.000 C 
ATOM     34  C   UNL     1       7.581   6.571  17.826  0.00  0.00    +0.000 C 
ATOM     35  C   UNL     1       7.694   8.092  17.754  0.00  0.00    +0.000 C 
ENDBRANCH  22  34
ENDBRANCH   1  22
TORSDOF 9
ENDMDL
MODEL 2
REMARK VINA RESULT:      -7.9      0.692      1.146
REMARK  Name = 
REMARK  13 active torsions:
REMARK  status: ('A' for Active; 'I' for Inactive)
REMARK    1  A    between atoms: C_1  and  C_2
REMARK    2  A    between atoms: C_2  and  C_3
REMARK    3  A    between atoms: C_2  and  C_4
REMARK    4  A    between atoms: C_4  and  N_5
REMARK    5  A    between atoms: C_4  and  C_14
REMARK    6  A    between atoms: C_6  and  C_8
REMARK    7  A    between atoms: C_20  and  C_21
REMARK    8  A    between atoms: N_23  and  C_24
REMARK    9  A    between atoms: C_24  and  C_25
REMARK   10  A    between atoms: C_24  and  C_31
REMARK   11  A    between atoms: C_25  and  C_27
REMARK   12  A    between atoms: C_31  and  C_32
REMARK   13  A    between atoms: C_31  and  C_33
REMARK                            x       y       z     vdW  Elec       q    Type
REMARK                         _______ _______ _______ _____ _____    ______ ____
ROOT
ATOM      1  C   UNL     1       4.995   6.673  17.470  0.00  0.00    +0.000 C 
ATOM      2  O   UNL     1       4.733   7.469  16.561  0.00  0.00    +0.000 OA
ATOM      3  N   UNL     1       4.028   6.370  18.425  0.00  0.00    +0.000 N 
ATOM      4  C   UNL     1       4.130   5.367  19.488  0.00  0.00    +0.000 C 
ATOM      5  C   UNL     1       2.833   4.597  19.350  0.00  0.00    +0.000 C 
ATOM      6  C   UNL     1       1.836   5.712  19.078  0.00  0.00    +0.000 C 
ATOM      7  C   UNL     1       2.616   6.698  18.190  0.00  0.00    +0.000 C 
ENDROOT
BRANCH   7   8
ATOM      8  C   UNL     1       2.260   8.159  18.529  0.00  0.00    +0.000 C 
ATOM      9  O   UNL     1       2.396   9.103  17.753  0.00  0.00    +0.000 OA
ATOM     10  N   UNL     1       1.692   8.327  19.775  0.00  0.00    +0.000 N 
ATOM     11  H   UNL     1       1.163   7.506  20.099  0.00  0.00    +0.000 HD
BRANCH  10  12
ATOM     12  C   UNL     1       1.211   9.642  20.220  0.00  0.00    +0.000 C 
BRANCH  12  13
ATOM     13  C   UNL     1       0.271  10.333  19.192  0.00  0.00    +0.000 C 
ATOM     14  C   UNL     1      -1.138   9.769  19.008  0.00  0.00    +0.000 C 
ATOM     15  C   UNL     1       0.241  11.862  19.325  0.00  0.00    +0.000 C 
ENDBRANCH  12  13
BRANCH  12  16
ATOM     16  C   UNL     1       1.053   9.586  21.752  0.00  0.00    +0.000 C 
ATOM     17  O   UNL     1       2.083   9.683  22.448  0.00  0.00    +0.000 OA
BRANCH  16  18
ATOM     18  C   UNL     1      -0.292   9.384  22.410  0.00  0.00    +0.000 C 
ATOM     19  F   UNL     1      -1.160  10.417  22.312  0.00  0.00    +0.000 F 
ATOM     20  F   UNL     1      -0.950   8.289  21.936  0.00  0.00    +0.000 F 
ATOM     21  F   UNL     1      -0.143   9.168  23.753  0.00  0.00    +0.000 F 
ENDBRANCH  16  18
ENDBRANCH  12  16
ENDBRANCH  10  12
ENDBRANCH   7   8
BRANCH   1  22
ATOM     22  C   UNL     1       6.255   5.761  17.429  0.00  0.00    +0.000 C 
BRANCH  22  23
ATOM     23  N   UNL     1       6.401   5.421  16.006  0.00  0.00    +0.000 N 
ATOM     24  C   UNL     1       5.849   4.289  15.451  0.00  0.00    +0.000 C 
ATOM     25  O   UNL     1       5.201   3.472  16.096  0.00  0.00    +0.000 OA
ATOM     26  H   UNL     1       6.771   6.149  15.408  0.00  0.00    +0.000 HD
BRANCH  24  27
ATOM     27  C   UNL     1       6.047   4.093  13.987  0.00  0.00    +0.000 A 
ATOM     28  C   UNL     1       7.211   4.515  13.329  0.00  0.00    +0.000 A 
ATOM     29  C   UNL     1       7.380   4.255  11.968  0.00  0.00    +0.000 A 
ATOM     30  C   UNL     1       6.394   3.569  11.259  0.00  0.00    +0.000 A 
ATOM     31  C   UNL     1       5.232   3.151  11.904  0.00  0.00    +0.000 A 
ATOM     32  C   UNL     1       5.057   3.412  13.265  0.00  0.00    +0.000 A 
ENDBRANCH  24  27
ENDBRANCH  22  23
BRANCH  22  34
ATOM     33  C   UNL     1       7.794   5.850  19.437  0.00  0.00    +0.000 C 
ATOM     34  C   UNL     1       7.590   6.297  17.988  0.00  0.00    +0.000 C 
ATOM     35  C   UNL     1       7.821   7.800  17.856  0.00  0.00    +0.000 C 
ENDBRANCH  22  34
ENDBRANCH   1  22
TORSDOF 9
ENDMDL
MODEL 3
REMARK VINA RESULT:      -7.7      3.113      8.812
REMARK  Name = 
REMARK  13 active torsions:
REMARK  status: ('A' for Active; 'I' for Inactive)
REMARK    1  A    between atoms: C_1  and  C_2
REMARK    2  A    between atoms: C_2  and  C_3
REMARK    3  A    between atoms: C_2  and  C_4
REMARK    4  A    between atoms: C_4  and  N_5
REMARK    5  A    between atoms: C_4  and  C_14
REMARK    6  A    between atoms: C_6  and  C_8
REMARK    7  A    between atoms: C_20  and  C_21
REMARK    8  A    between atoms: N_23  and  C_24
REMARK    9  A    between atoms: C_24  and  C_25
REMARK   10  A    between atoms: C_24  and  C_31
REMARK   11  A    between atoms: C_25  and  C_27
REMARK   12  A    between atoms: C_31  and  C_32
REMARK   13  A    between atoms: C_31  and  C_33
REMARK                            x       y       z     vdW  Elec       q    Type
REMARK                         _______ _______ _______ _____ _____    ______ ____
ROOT
ATOM      1  C   UNL     1       0.781  10.300  18.714  0.00  0.00    +0.000 C 
ATOM      2  O   UNL     1       1.786  10.356  17.996  0.00  0.00    +0.000 OA
ATOM      3  N   UNL     1       0.681   9.312  19.690  0.00  0.00    +0.000 N 
ATOM      4  C   UNL     1      -0.375   9.179  20.696  0.00  0.00    +0.000 C 
ATOM      5  C   UNL     1       0.406   8.998  21.982  0.00  0.00    +0.000 C 
ATOM      6  C   UNL     1       1.528   8.073  21.537  0.00  0.00    +0.000 C 
ATOM      7  C   UNL     1       1.868   8.560  20.116  0.00  0.00    +0.000 C 
ENDROOT
BRANCH   7   8
ATOM      8  C   UNL     1       2.213   7.379  19.188  0.00  0.00    +0.000 C 
ATOM      9  O   UNL     1       1.988   7.359  17.980  0.00  0.00    +0.000 OA
ATOM     10  N   UNL     1       2.881   6.346  19.813  0.00  0.00    +0.000 N 
ATOM     11  H   UNL     1       3.457   6.652  20.609  0.00  0.00    +0.000 HD
BRANCH  10  12
ATOM     12  C   UNL     1       3.364   5.185  19.054  0.00  0.00    +0.000 C 
BRANCH  12  13
ATOM     13  C   UNL     1       4.716   5.441  18.330  0.00  0.00    +0.000 C 
ATOM     14  C   UNL     1       6.009   5.219  19.113  0.00  0.00    +0.000 C 
ATOM     15  C   UNL     1       4.794   4.797  16.939  0.00  0.00    +0.000 C 
ENDBRANCH  12  13
BRANCH  12  16
ATOM     16  C   UNL     1       2.930   3.917  19.817  0.00  0.00    +0.000 C 
ATOM     17  O   UNL     1       3.448   2.832  19.486  0.00  0.00    +0.000 OA
BRANCH  16  18
ATOM     18  C   UNL     1       1.887   3.959  20.910  0.00  0.00    +0.000 C 
ATOM     19  F   UNL     1       1.392   2.762  21.302  0.00  0.00    +0.000 F 
ATOM     20  F   UNL     1       2.334   4.575  22.040  0.00  0.00    +0.000 F 
ATOM     21  F   UNL     1       0.798   4.682  20.506  0.00  0.00    +0.000 F 
ENDBRANCH  16  18
ENDBRANCH  12  16
ENDBRANCH  10  12
ENDBRANCH   7   8
BRANCH   1  22
ATOM     22  C   UNL     1      -0.248  11.466  18.782  0.00  0.00    +0.000 C 
BRANCH  22  23
ATOM     23  N   UNL     1       0.519  12.643  18.350  0.00  0.00    +0.000 N 
ATOM     24  C   UNL     1       0.970  13.601  19.229  0.00  0.00    +0.000 C 
ATOM     25  O   UNL     1       0.762  13.556  20.436  0.00  0.00    +0.000 OA
ATOM     26  H   UNL     1       0.863  12.627  17.398  0.00  0.00    +0.000 HD
BRANCH  24  27
ATOM     27  C   UNL     1       1.767  14.720  18.651  0.00  0.00    +0.000 A 
ATOM     28  C   UNL     1       3.009  14.512  18.039  0.00  0.00    +0.000 A 
ATOM     29  C   UNL     1       3.691  15.582  17.456  0.00  0.00    +0.000 A 
ATOM     30  C   UNL     1       3.136  16.862  17.478  0.00  0.00    +0.000 A 
ATOM     31  C   UNL     1       1.903  17.078  18.090  0.00  0.00    +0.000 A 
ATOM     32  C   UNL     1       1.219  16.011  18.676  0.00  0.00    +0.000 A 
ENDBRANCH  24  27
ENDBRANCH  22  23
BRANCH  22  34
ATOM     33  C   UNL     1      -2.766  11.725  18.843  0.00  0.00    +0.000 C 
ATOM     34  C   UNL     1      -1.560  11.359  17.976  0.00  0.00    +0.000 C 
ATOM     35  C   UNL     1      -1.803  10.034  17.256  0.00  0.00    +0.000 C 
ENDBRANCH  22  34
ENDBRANCH   1  22
TORSDOF 9
ENDMDL
MODEL 4
REMARK VINA RESULT:      -7.7      3.769      8.885
REMARK  Name = 
REMARK  13 active torsions:
REMARK  status: ('A' for Active; 'I' for Inactive)
REMARK    1  A    between atoms: C_1  and  C_2
REMARK    2  A    between atoms: C_2  and  C_3
REMARK    3  A    between atoms: C_2  and  C_4
REMARK    4  A    between atoms: C_4  and  N_5
REMARK    5  A    between atoms: C_4  and  C_14
REMARK    6  A    between atoms: C_6  and  C_8
REMARK    7  A    between atoms: C_20  and  C_21
REMARK    8  A    between atoms: N_23  and  C_24
REMARK    9  A    between atoms: C_24  and  C_25
REMARK   10  A    between atoms: C_24  and  C_31
REMARK   11  A    between atoms: C_25  and  C_27
REMARK   12  A    between atoms: C_31  and  C_32
REMARK   13  A    between atoms: C_31  and  C_33
REMARK                            x       y       z     vdW  Elec       q    Type
REMARK                         _______ _______ _______ _____ _____    ______ ____
ROOT
ATOM      1  C   UNL     1       0.591  10.399  18.706  0.00  0.00    +0.000 C 
ATOM      2  O   UNL     1       1.582  10.441  17.968  0.00  0.00    +0.000 OA
ATOM      3  N   UNL     1       0.526   9.452  19.726  0.00  0.00    +0.000 N 
ATOM      4  C   UNL     1      -0.510   9.344  20.755  0.00  0.00    +0.000 C 
ATOM      5  C   UNL     1       0.297   9.231  22.033  0.00  0.00    +0.000 C 
ATOM      6  C   UNL     1       1.427   8.308  21.607  0.00  0.00    +0.000 C 
ATOM      7  C   UNL     1       1.732   8.739  20.161  0.00  0.00    +0.000 C 
ENDROOT
BRANCH   7   8
ATOM      8  C   UNL     1       2.082   7.525  19.277  0.00  0.00    +0.000 C 
ATOM      9  O   UNL     1       1.799   7.433  18.084  0.00  0.00    +0.000 OA
ATOM     10  N   UNL     1       2.822   6.555  19.919  0.00  0.00    +0.000 N 
ATOM     11  H   UNL     1       3.423   6.925  20.668  0.00  0.00    +0.000 HD
BRANCH  10  12
ATOM     12  C   UNL     1       3.316   5.375  19.197  0.00  0.00    +0.000 C 
BRANCH  12  13
ATOM     13  C   UNL     1       4.837   5.440  18.876  0.00  0.00    +0.000 C 
ATOM     14  C   UNL     1       5.627   4.132  18.853  0.00  0.00    +0.000 C 
ATOM     15  C   UNL     1       5.166   6.308  17.654  0.00  0.00    +0.000 C 
ENDBRANCH  12  13
BRANCH  12  16
ATOM     16  C   UNL     1       2.509   4.156  19.688  0.00  0.00    +0.000 C 
ATOM     17  O   UNL     1       2.729   3.739  20.842  0.00  0.00    +0.000 OA
BRANCH  16  18
ATOM     18  C   UNL     1       1.507   3.452  18.804  0.00  0.00    +0.000 C 
ATOM     19  F   UNL     1       0.385   3.008  19.417  0.00  0.00    +0.000 F 
ATOM     20  F   UNL     1       1.090   4.225  17.762  0.00  0.00    +0.000 F 
ATOM     21  F   UNL     1       2.066   2.341  18.233  0.00  0.00    +0.000 F 
ENDBRANCH  16  18
ENDBRANCH  12  16
ENDBRANCH  10  12
ENDBRANCH   7   8
BRANCH   1  22
ATOM     22  C   UNL     1      -0.458  11.549  18.744  0.00  0.00    +0.000 C 
BRANCH  22  23
ATOM     23  N   UNL     1       0.298  12.733  18.310  0.00  0.00    +0.000 N 
ATOM     24  C   UNL     1       0.952  13.563  19.192  0.00  0.00    +0.000 C 
ATOM     25  O   UNL     1       0.950  13.389  20.405  0.00  0.00    +0.000 OA
ATOM     26  H   UNL     1       0.474  12.812  17.316  0.00  0.00    +0.000 HD
BRANCH  24  27
ATOM     27  C   UNL     1       1.709  14.705  18.604  0.00  0.00    +0.000 A 
ATOM     28  C   UNL     1       1.229  16.020  18.651  0.00  0.00    +0.000 A 
ATOM     29  C   UNL     1       2.002  17.066  18.142  0.00  0.00    +0.000 A 
ATOM     30  C   UNL     1       3.256  16.806  17.591  0.00  0.00    +0.000 A 
ATOM     31  C   UNL     1       3.738  15.500  17.536  0.00  0.00    +0.000 A 
ATOM     32  C   UNL     1       2.967  14.450  18.040  0.00  0.00    +0.000 A 
ENDBRANCH  24  27
ENDBRANCH  22  23
BRANCH  22  34
ATOM     33  C   UNL     1      -2.984  11.709  18.779  0.00  0.00    +0.000 C 
ATOM     34  C   UNL     1      -1.755  11.412  17.918  0.00  0.00    +0.000 C 
ATOM     35  C   UNL     1      -1.937  10.098  17.163  0.00  0.00    +0.000 C 
ENDBRANCH  22  34
ENDBRANCH   1  22
TORSDOF 9
ENDMDL
MODEL 5
REMARK VINA RESULT:      -7.7      3.634      8.979
REMARK  Name = 
REMARK  13 active torsions:
REMARK  status: ('A' for Active; 'I' for Inactive)
REMARK    1  A    between atoms: C_1  and  C_2
REMARK    2  A    between atoms: C_2  and  C_3
REMARK    3  A    between atoms: C_2  and  C_4
REMARK    4  A    between atoms: C_4  and  N_5
REMARK    5  A    between atoms: C_4  and  C_14
REMARK    6  A    between atoms: C_6  and  C_8
REMARK    7  A    between atoms: C_20  and  C_21
REMARK    8  A    between atoms: N_23  and  C_24
REMARK    9  A    between atoms: C_24  and  C_25
REMARK   10  A    between atoms: C_24  and  C_31
REMARK   11  A    between atoms: C_25  and  C_27
REMARK   12  A    between atoms: C_31  and  C_32
REMARK   13  A    between atoms: C_31  and  C_33
REMARK                            x       y       z     vdW  Elec       q    Type
REMARK                         _______ _______ _______ _____ _____    ______ ____
ROOT
ATOM      1  C   UNL     1       0.841  10.346  18.681  0.00  0.00    +0.000 C 
ATOM      2  O   UNL     1       1.828  10.410  17.939  0.00  0.00    +0.000 OA
ATOM      3  N   UNL     1       0.742   9.318  19.615  0.00  0.00    +0.000 N 
ATOM      4  C   UNL     1      -0.290   9.165  20.642  0.00  0.00    +0.000 C 
ATOM      5  C   UNL     1       0.518   8.909  21.897  0.00  0.00    +0.000 C 
ATOM      6  C   UNL     1       1.606   7.978  21.382  0.00  0.00    +0.000 C 
ATOM      7  C   UNL     1       1.920   8.520  19.976  0.00  0.00    +0.000 C 
ENDROOT
BRANCH   7   8
ATOM      8  C   UNL     1       2.212   7.374  18.987  0.00  0.00    +0.000 C 
ATOM      9  O   UNL     1       1.812   7.343  17.825  0.00  0.00    +0.000 OA
ATOM     10  N   UNL     1       3.041   6.392  19.490  0.00  0.00    +0.000 N 
ATOM     11  H   UNL     1       3.704   6.738  20.198  0.00  0.00    +0.000 HD
BRANCH  10  12
ATOM     12  C   UNL     1       3.492   5.275  18.650  0.00  0.00    +0.000 C 
BRANCH  12  13
ATOM     13  C   UNL     1       4.973   5.405  18.195  0.00  0.00    +0.000 C 
ATOM     14  C   UNL     1       5.336   6.529  17.225  0.00  0.00    +0.000 C 
ATOM     15  C   UNL     1       5.976   5.329  19.354  0.00  0.00    +0.000 C 
ENDBRANCH  12  13
BRANCH  12  16
ATOM     16  C   UNL     1       2.763   4.005  19.133  0.00  0.00    +0.000 C 
ATOM     17  O   UNL     1       3.097   3.526  20.235  0.00  0.00    +0.000 OA
BRANCH  16  18
ATOM     18  C   UNL     1       1.703   3.325  18.299  0.00  0.00    +0.000 C 
ATOM     19  F   UNL     1       2.144   2.379  17.438  0.00  0.00    +0.000 F 
ATOM     20  F   UNL     1       0.739   2.731  19.057  0.00  0.00    +0.000 F 
ATOM     21  F   UNL     1       1.045   4.238  17.521  0.00  0.00    +0.000 F 
ENDBRANCH  16  18
ENDBRANCH  12  16
ENDBRANCH  10  12
ENDBRANCH   7   8
BRANCH   1  22
ATOM     22  C   UNL     1      -0.157  11.532  18.828  0.00  0.00    +0.000 C 
BRANCH  22  23
ATOM     23  N   UNL     1       0.613  12.701  18.379  0.00  0.00    +0.000 N 
ATOM     24  C   UNL     1       0.843  13.794  19.184  0.00  0.00    +0.000 C 
ATOM     25  O   UNL     1       0.421  13.884  20.331  0.00  0.00    +0.000 OA
ATOM     26  H   UNL     1       1.125  12.594  17.513  0.00  0.00    +0.000 HD
BRANCH  24  27
ATOM     27  C   UNL     1       1.672  14.890  18.607  0.00  0.00    +0.000 A 
ATOM     28  C   UNL     1       2.907  14.647  17.992  0.00  0.00    +0.000 A 
ATOM     29  C   UNL     1       3.619  15.697  17.410  0.00  0.00    +0.000 A 
ATOM     30  C   UNL     1       3.100  16.992  17.434  0.00  0.00    +0.000 A 
ATOM     31  C   UNL     1       1.875  17.243  18.048  0.00  0.00    +0.000 A 
ATOM     32  C   UNL     1       1.161  16.196  18.634  0.00  0.00    +0.000 A 
ENDBRANCH  24  27
ENDBRANCH  22  23
BRANCH  22  34
ATOM     33  C   UNL     1      -2.660  11.851  19.027  0.00  0.00    +0.000 C 
ATOM     34  C   UNL     1      -1.512  11.470  18.091  0.00  0.00    +0.000 C 
ATOM     35  C   UNL     1      -1.826  10.164  17.365  0.00  0.00    +0.000 C 
ENDBRANCH  22  34
ENDBRANCH   1  22
TORSDOF 9
ENDMDL
MODEL 6
REMARK VINA RESULT:      -7.7      3.796      9.017
REMARK  Name = 
REMARK  13 active torsions:
REMARK  status: ('A' for Active; 'I' for Inactive)
REMARK    1  A    between atoms: C_1  and  C_2
REMARK    2  A    between atoms: C_2  and  C_3
REMARK    3  A    between atoms: C_2  and  C_4
REMARK    4  A    between atoms: C_4  and  N_5
REMARK    5  A    between atoms: C_4  and  C_14
REMARK    6  A    between atoms: C_6  and  C_8
REMARK    7  A    between atoms: C_20  and  C_21
REMARK    8  A    between atoms: N_23  and  C_24
REMARK    9  A    between atoms: C_24  and  C_25
REMARK   10  A    between atoms: C_24  and  C_31
REMARK   11  A    between atoms: C_25  and  C_27
REMARK   12  A    between atoms: C_31  and  C_32
REMARK   13  A    between atoms: C_31  and  C_33
REMARK                            x       y       z     vdW  Elec       q    Type
REMARK                         _______ _______ _______ _____ _____    ______ ____
ROOT
ATOM      1  C   UNL     1       0.635  10.452  18.707  0.00  0.00    +0.000 C 
ATOM      2  O   UNL     1       1.620  10.485  17.961  0.00  0.00    +0.000 OA
ATOM      3  N   UNL     1       0.573   9.512  19.732  0.00  0.00    +0.000 N 
ATOM      4  C   UNL     1      -0.455   9.415  20.770  0.00  0.00    +0.000 C 
ATOM      5  C   UNL     1       0.361   9.305  22.042  0.00  0.00    +0.000 C 
ATOM      6  C   UNL     1       1.482   8.372  21.612  0.00  0.00    +0.000 C 
ATOM      7  C   UNL     1       1.778   8.793  20.162  0.00  0.00    +0.000 C 
ENDROOT
BRANCH   7   8
ATOM      8  C   UNL     1       2.114   7.573  19.282  0.00  0.00    +0.000 C 
ATOM      9  O   UNL     1       2.041   7.563  18.055  0.00  0.00    +0.000 OA
ATOM     10  N   UNL     1       2.588   6.484  19.985  0.00  0.00    +0.000 N 
ATOM     11  H   UNL     1       3.088   6.739  20.847  0.00  0.00    +0.000 HD
BRANCH  10  12
ATOM     12  C   UNL     1       3.040   5.271  19.291  0.00  0.00    +0.000 C 
BRANCH  12  13
ATOM     13  C   UNL     1       4.420   5.437  18.595  0.00  0.00    +0.000 C 
ATOM     14  C   UNL     1       5.678   5.094  19.393  0.00  0.00    +0.000 C 
ATOM     15  C   UNL     1       4.473   4.824  17.189  0.00  0.00    +0.000 C 
ENDBRANCH  12  13
BRANCH  12  16
ATOM     16  C   UNL     1       2.530   4.058  20.095  0.00  0.00    +0.000 C 
ATOM     17  O   UNL     1       2.012   4.273  21.208  0.00  0.00    +0.000 OA
BRANCH  16  18
ATOM     18  C   UNL     1       2.678   2.643  19.586  0.00  0.00    +0.000 C 
ATOM     19  F   UNL     1       2.304   2.433  18.303  0.00  0.00    +0.000 F 
ATOM     20  F   UNL     1       3.954   2.177  19.692  0.00  0.00    +0.000 F 
ATOM     21  F   UNL     1       1.913   1.784  20.327  0.00  0.00    +0.000 F 
ENDBRANCH  16  18
ENDBRANCH  12  16
ENDBRANCH  10  12
ENDBRANCH   7   8
BRANCH   1  22
ATOM     22  C   UNL     1      -0.406  11.609  18.747  0.00  0.00    +0.000 C 
BRANCH  22  23
ATOM     23  N   UNL     1       0.356  12.788  18.312  0.00  0.00    +0.000 N 
ATOM     24  C   UNL     1       0.907  13.686  19.198  0.00  0.00    +0.000 C 
ATOM     25  O   UNL     1       0.800  13.581  20.415  0.00  0.00    +0.000 OA
ATOM     26  H   UNL     1       0.619  12.816  17.335  0.00  0.00    +0.000 HD
BRANCH  24  27
ATOM     27  C   UNL     1       1.685  14.815  18.614  0.00  0.00    +0.000 A 
ATOM     28  C   UNL     1       2.912  14.618  17.967  0.00  0.00    +0.000 A 
ATOM     29  C   UNL     1       3.576  15.697  17.380  0.00  0.00    +0.000 A 
ATOM     30  C   UNL     1       3.017  16.974  17.431  0.00  0.00    +0.000 A 
ATOM     31  C   UNL     1       1.800  17.179  18.077  0.00  0.00    +0.000 A 
ATOM     32  C   UNL     1       1.134  16.103  18.668  0.00  0.00    +0.000 A 
ENDBRANCH  24  27
ENDBRANCH  22  23
BRANCH  22  34
ATOM     33  C   UNL     1      -2.933  11.751  18.793  0.00  0.00    +0.000 C 
ATOM     34  C   UNL     1      -1.705  11.480  17.922  0.00  0.00    +0.000 C 
ATOM     35  C   UNL     1      -1.881  10.181  17.140  0.00  0.00    +0.000 C 
ENDBRANCH  22  34
ENDBRANCH   1  22
TORSDOF 9
ENDMDL
MODEL 7
REMARK VINA RESULT:      -7.7      3.841      8.762
REMARK  Name = 
REMARK  13 active torsions:
REMARK  status: ('A' for Active; 'I' for Inactive)
REMARK    1  A    between atoms: C_1  and  C_2
REMARK    2  A    between atoms: C_2  and  C_3
REMARK    3  A    between atoms: C_2  and  C_4
REMARK    4  A    between atoms: C_4  and  N_5
REMARK    5  A    between atoms: C_4  and  C_14
REMARK    6  A    between atoms: C_6  and  C_8
REMARK    7  A    between atoms: C_20  and  C_21
REMARK    8  A    between atoms: N_23  and  C_24
REMARK    9  A    between atoms: C_24  and  C_25
REMARK   10  A    between atoms: C_24  and  C_31
REMARK   11  A    between atoms: C_25  and  C_27
REMARK   12  A    between atoms: C_31  and  C_32
REMARK   13  A    between atoms: C_31  and  C_33
REMARK                            x       y       z     vdW  Elec       q    Type
REMARK                         _______ _______ _______ _____ _____    ______ ____
ROOT
ATOM      1  C   UNL     1       0.901   8.271  20.725  0.00  0.00    +0.000 C 
ATOM      2  O   UNL     1       0.503   7.200  21.197  0.00  0.00    +0.000 OA
ATOM      3  N   UNL     1       1.804   8.268  19.665  0.00  0.00    +0.000 N 
ATOM      4  C   UNL     1       2.279   9.433  18.916  0.00  0.00    +0.000 C 
ATOM      5  C   UNL     1       2.089   9.007  17.475  0.00  0.00    +0.000 C 
ATOM      6  C   UNL     1       2.540   7.556  17.517  0.00  0.00    +0.000 C 
ATOM      7  C   UNL     1       2.030   7.049  18.879  0.00  0.00    +0.000 C 
ENDROOT
BRANCH   7   8
ATOM      8  C   UNL     1       3.036   6.077  19.526  0.00  0.00    +0.000 C 
ATOM      9  O   UNL     1       2.854   5.506  20.600  0.00  0.00    +0.000 OA
ATOM     10  N   UNL     1       4.153   5.827  18.757  0.00  0.00    +0.000 N 
ATOM     11  H   UNL     1       3.981   5.902  17.746  0.00  0.00    +0.000 HD
BRANCH  10  12
ATOM     12  C   UNL     1       5.167   4.854  19.186  0.00  0.00    +0.000 C 
BRANCH  12  13
ATOM     13  C   UNL     1       4.829   3.391  18.780  0.00  0.00    +0.000 C 
ATOM     14  C   UNL     1       4.278   2.453  19.854  0.00  0.00    +0.000 C 
ATOM     15  C   UNL     1       4.012   3.291  17.485  0.00  0.00    +0.000 C 
ENDBRANCH  12  13
BRANCH  12  16
ATOM     16  C   UNL     1       6.540   5.554  19.124  0.00  0.00    +0.000 C 
ATOM     17  O   UNL     1       7.265   5.504  20.138  0.00  0.00    +0.000 OA
BRANCH  16  18
ATOM     18  C   UNL     1       6.995   6.314  17.901  0.00  0.00    +0.000 C 
ATOM     19  F   UNL     1       7.239   5.568  16.798  0.00  0.00    +0.000 F 
ATOM     20  F   UNL     1       6.110   7.277  17.520  0.00  0.00    +0.000 F 
ATOM     21  F   UNL     1       8.168   6.973  18.153  0.00  0.00    +0.000 F 
ENDBRANCH  16  18
ENDBRANCH  12  16
ENDBRANCH  10  12
ENDBRANCH   7   8
BRANCH   1  22
ATOM     22  C   UNL     1       0.210   9.625  21.058  0.00  0.00    +0.000 C 
BRANCH  22  23
ATOM     23  N   UNL     1      -0.822   9.762  20.020  0.00  0.00    +0.000 N 
ATOM     24  C   UNL     1      -0.890  10.848  19.177  0.00  0.00    +0.000 C 
ATOM     25  O   UNL     1      -0.104  11.788  19.228  0.00  0.00    +0.000 OA
ATOM     26  H   UNL     1      -1.375   8.936  19.827  0.00  0.00    +0.000 HD
BRANCH  24  27
ATOM     27  C   UNL     1      -1.968  10.833  18.148  0.00  0.00    +0.000 A 
ATOM     28  C   UNL     1      -1.883  10.051  16.989  0.00  0.00    +0.000 A 
ATOM     29  C   UNL     1      -2.946  10.021  16.084  0.00  0.00    +0.000 A 
ATOM     30  C   UNL     1      -4.098  10.766  16.333  0.00  0.00    +0.000 A 
ATOM     31  C   UNL     1      -4.189  11.551  17.481  0.00  0.00    +0.000 A 
ATOM     32  C   UNL     1      -3.127  11.587  18.387  0.00  0.00    +0.000 A 
ENDBRANCH  24  27
ENDBRANCH  22  23
BRANCH  22  34
ATOM     33  C   UNL     1      -0.856  11.279  22.651  0.00  0.00    +0.000 C 
ATOM     34  C   UNL     1      -0.411   9.829  22.457  0.00  0.00    +0.000 C 
ATOM     35  C   UNL     1       0.433   9.367  23.643  0.00  0.00    +0.000 C 
ENDBRANCH  22  34
ENDBRANCH   1  22
TORSDOF 9
ENDMDL
MODEL 8
REMARK VINA RESULT:      -7.6      1.019      1.221
REMARK  Name = 
REMARK  13 active torsions:
REMARK  status: ('A' for Active; 'I' for Inactive)
REMARK    1  A    between atoms: C_1  and  C_2
REMARK    2  A    between atoms: C_2  and  C_3
REMARK    3  A    between atoms: C_2  and  C_4
REMARK    4  A    between atoms: C_4  and  N_5
REMARK    5  A    between atoms: C_4  and  C_14
REMARK    6  A    between atoms: C_6  and  C_8
REMARK    7  A    between atoms: C_20  and  C_21
REMARK    8  A    between atoms: N_23  and  C_24
REMARK    9  A    between atoms: C_24  and  C_25
REMARK   10  A    between atoms: C_24  and  C_31
REMARK   11  A    between atoms: C_25  and  C_27
REMARK   12  A    between atoms: C_31  and  C_32
REMARK   13  A    between atoms: C_31  and  C_33
REMARK                            x       y       z     vdW  Elec       q    Type
REMARK                         _______ _______ _______ _____ _____    ______ ____
ROOT
ATOM      1  C   UNL     1       5.092   6.630  17.404  0.00  0.00    +0.000 C 
ATOM      2  O   UNL     1       4.823   7.346  16.432  0.00  0.00    +0.000 OA
ATOM      3  N   UNL     1       4.113   6.359  18.357  0.00  0.00    +0.000 N 
ATOM      4  C   UNL     1       4.227   5.442  19.493  0.00  0.00    +0.000 C 
ATOM      5  C   UNL     1       2.965   4.612  19.384  0.00  0.00    +0.000 C 
ATOM      6  C   UNL     1       1.932   5.664  19.008  0.00  0.00    +0.000 C 
ATOM      7  C   UNL     1       2.697   6.613  18.067  0.00  0.00    +0.000 C 
ENDROOT
BRANCH   7   8
ATOM      8  C   UNL     1       2.276   8.079  18.288  0.00  0.00    +0.000 C 
ATOM      9  O   UNL     1       2.447   8.979  17.469  0.00  0.00    +0.000 OA
ATOM     10  N   UNL     1       1.608   8.301  19.475  0.00  0.00    +0.000 N 
ATOM     11  H   UNL     1       1.078   7.484  19.806  0.00  0.00    +0.000 HD
BRANCH  10  12
ATOM     12  C   UNL     1       1.059   9.624  19.800  0.00  0.00    +0.000 C 
BRANCH  12  13
ATOM     13  C   UNL     1       0.483  10.373  18.565  0.00  0.00    +0.000 C 
ATOM     14  C   UNL     1      -0.976  10.124  18.185  0.00  0.00    +0.000 C 
ATOM     15  C   UNL     1       0.809  11.873  18.554  0.00  0.00    +0.000 C 
ENDBRANCH  12  13
BRANCH  12  16
ATOM     16  C   UNL     1       0.457   9.543  21.217  0.00  0.00    +0.000 C 
ATOM     17  O   UNL     1       0.469   8.436  21.793  0.00  0.00    +0.000 OA
BRANCH  16  18
ATOM     18  C   UNL     1      -0.168  10.742  21.891  0.00  0.00    +0.000 C 
ATOM     19  F   UNL     1      -0.444  10.604  23.208  0.00  0.00    +0.000 F 
ATOM     20  F   UNL     1       0.596  11.865  21.777  0.00  0.00    +0.000 F 
ATOM     21  F   UNL     1      -1.365  11.053  21.305  0.00  0.00    +0.000 F 
ENDBRANCH  16  18
ENDBRANCH  12  16
ENDBRANCH  10  12
ENDBRANCH   7   8
BRANCH   1  22
ATOM     22  C   UNL     1       6.387   5.768  17.459  0.00  0.00    +0.000 C 
BRANCH  22  23
ATOM     23  N   UNL     1       6.608   5.371  16.061  0.00  0.00    +0.000 N 
ATOM     24  C   UNL     1       5.912   4.347  15.459  0.00  0.00    +0.000 C 
ATOM     25  O   UNL     1       5.061   3.682  16.040  0.00  0.00    +0.000 OA
ATOM     26  H   UNL     1       7.165   6.002  15.499  0.00  0.00    +0.000 HD
BRANCH  24  27
ATOM     27  C   UNL     1       6.216   4.080  14.025  0.00  0.00    +0.000 A 
ATOM     28  C   UNL     1       5.461   3.182  13.258  0.00  0.00    +0.000 A 
ATOM     29  C   UNL     1       5.744   3.011  11.901  0.00  0.00    +0.000 A 
ATOM     30  C   UNL     1       6.775   3.736  11.304  0.00  0.00    +0.000 A 
ATOM     31  C   UNL     1       7.534   4.626  12.062  0.00  0.00    +0.000 A 
ATOM     32  C   UNL     1       7.256   4.798  13.419  0.00  0.00    +0.000 A 
ENDBRANCH  24  27
ENDBRANCH  22  23
BRANCH  22  34
ATOM     33  C   UNL     1       7.882   5.931  19.495  0.00  0.00    +0.000 C 
ATOM     34  C   UNL     1       7.674   6.383  18.048  0.00  0.00    +0.000 C 
ATOM     35  C   UNL     1       7.809   7.900  17.938  0.00  0.00    +0.000 C 
ENDBRANCH  22  34
ENDBRANCH   1  22
TORSDOF 9
ENDMDL
MODEL 9
REMARK VINA RESULT:      -7.5      3.739      8.926
REMARK  Name = 
REMARK  13 active torsions:
REMARK  status: ('A' for Active; 'I' for Inactive)
REMARK    1  A    between atoms: C_1  and  C_2
REMARK    2  A    between atoms: C_2  and  C_3
REMARK    3  A    between atoms: C_2  and  C_4
REMARK    4  A    between atoms: C_4  and  N_5
REMARK    5  A    between atoms: C_4  and  C_14
REMARK    6  A    between atoms: C_6  and  C_8
REMARK    7  A    between atoms: C_20  and  C_21
REMARK    8  A    between atoms: N_23  and  C_24
REMARK    9  A    between atoms: C_24  and  C_25
REMARK   10  A    between atoms: C_24  and  C_31
REMARK   11  A    between atoms: C_25  and  C_27
REMARK   12  A    between atoms: C_31  and  C_32
REMARK   13  A    between atoms: C_31  and  C_33
REMARK                            x       y       z     vdW  Elec       q    Type
REMARK                         _______ _______ _______ _____ _____    ______ ____
ROOT
ATOM      1  C   UNL     1       0.705  10.283  18.709  0.00  0.00    +0.000 C 
ATOM      2  O   UNL     1       1.705  10.317  17.983  0.00  0.00    +0.000 OA
ATOM      3  N   UNL     1       0.626   9.345  19.736  0.00  0.00    +0.000 N 
ATOM      4  C   UNL     1      -0.422   9.247  20.754  0.00  0.00    +0.000 C 
ATOM      5  C   UNL     1       0.369   9.144  22.042  0.00  0.00    +0.000 C 
ATOM      6  C   UNL     1       1.504   8.216  21.638  0.00  0.00    +0.000 C 
ATOM      7  C   UNL     1       1.827   8.634  20.192  0.00  0.00    +0.000 C 
ENDROOT
BRANCH   7   8
ATOM      8  C   UNL     1       2.186   7.413  19.323  0.00  0.00    +0.000 C 
ATOM      9  O   UNL     1       1.933   7.317  18.124  0.00  0.00    +0.000 OA
ATOM     10  N   UNL     1       2.900   6.438  19.988  0.00  0.00    +0.000 N 
ATOM     11  H   UNL     1       3.485   6.805  20.751  0.00  0.00    +0.000 HD
BRANCH  10  12
ATOM     12  C   UNL     1       3.400   5.249  19.284  0.00  0.00    +0.000 C 
BRANCH  12  13
ATOM     13  C   UNL     1       2.301   4.506  18.472  0.00  0.00    +0.000 C 
ATOM     14  C   UNL     1       2.743   3.548  17.367  0.00  0.00    +0.000 C 
ATOM     15  C   UNL     1       1.215   3.873  19.353  0.00  0.00    +0.000 C 
ENDBRANCH  12  13
BRANCH  12  16
ATOM     16  C   UNL     1       4.853   5.538  18.856  0.00  0.00    +0.000 C 
ATOM     17  O   UNL     1       5.756   5.345  19.694  0.00  0.00    +0.000 OA
BRANCH  16  18
ATOM     18  C   UNL     1       5.191   6.074  17.484  0.00  0.00    +0.000 C 
ATOM     19  F   UNL     1       6.000   7.158  17.455  0.00  0.00    +0.000 F 
ATOM     20  F   UNL     1       5.778   5.139  16.686  0.00  0.00    +0.000 F 
ATOM     21  F   UNL     1       4.055   6.457  16.825  0.00  0.00    +0.000 F 
ENDBRANCH  16  18
ENDBRANCH  12  16
ENDBRANCH  10  12
ENDBRANCH   7   8
BRANCH   1  22
ATOM     22  C   UNL     1      -0.343  11.434  18.724  0.00  0.00    +0.000 C 
BRANCH  22  23
ATOM     23  N   UNL     1       0.425  12.618  18.312  0.00  0.00    +0.000 N 
ATOM     24  C   UNL     1       0.938  13.523  19.213  0.00  0.00    +0.000 C 
ATOM     25  O   UNL     1       0.789  13.420  20.426  0.00  0.00    +0.000 OA
ATOM     26  H   UNL     1       0.721  12.644  17.344  0.00  0.00    +0.000 HD
BRANCH  24  27
ATOM     27  C   UNL     1       1.727  14.656  18.652  0.00  0.00    +0.000 A 
ATOM     28  C   UNL     1       2.970  14.465  18.036  0.00  0.00    +0.000 A 
ATOM     29  C   UNL     1       3.645  15.548  17.469  0.00  0.00    +0.000 A 
ATOM     30  C   UNL     1       3.081  16.824  17.510  0.00  0.00    +0.000 A 
ATOM     31  C   UNL     1       1.847  17.022  18.127  0.00  0.00    +0.000 A 
ATOM     32  C   UNL     1       1.171  15.942  18.698  0.00  0.00    +0.000 A 
ENDBRANCH  24  27
ENDBRANCH  22  23
BRANCH  22  34
ATOM     33  C   UNL     1      -2.861  11.690  18.670  0.00  0.00    +0.000 C 
ATOM     34  C   UNL     1      -1.619  11.301  17.866  0.00  0.00    +0.000 C 
ATOM     35  C   UNL     1      -1.830   9.955  17.176  0.00  0.00    +0.000 C 
ENDBRANCH  22  34
ENDBRANCH   1  22
TORSDOF 9
ENDMDL
