MODEL 1
REMARK VINA RESULT:      -7.0      0.000      0.000
REMARK  Name = 
REMARK  5 active torsions:
REMARK  status: ('A' for Active; 'I' for Inactive)
REMARK    1  A    between atoms: N_1  and  C_2
REMARK    2  A    between atoms: C_5  and  S_6
REMARK    3  A    between atoms: S_6  and  C_7
REMARK    4  A    between atoms: C_7  and  C_8
REMARK    5  A    between atoms: C_11  and  C_12
REMARK                            x       y       z     vdW  Elec       q    Type
REMARK                         _______ _______ _______ _____ _____    ______ ____
ROOT
ATOM      1  C   UNL     1       3.443   4.084  18.614  0.00  0.00    +0.000 A 
ATOM      2  C   UNL     1       3.060   3.781  19.909  0.00  0.00    +0.000 A 
ATOM      3  S   UNL     1       2.267   5.109  20.630  0.00  0.00    +0.000 S 
ATOM      4  C   UNL     1       2.501   6.032  19.193  0.00  0.00    +0.000 A 
ATOM      5  N   UNL     1       3.143   5.391  18.231  0.00  0.00    +0.000 NA
ENDROOT
BRANCH   4   6
ATOM      6  C   UNL     1       2.068   7.440  19.118  0.00  0.00    +0.000 A 
ATOM      7  C   UNL     1       1.504   8.048  20.252  0.00  0.00    +0.000 A 
ATOM      8  C   UNL     1       1.051   9.373  20.212  0.00  0.00    +0.000 A 
ATOM      9  C   UNL     1       1.168  10.109  19.037  0.00  0.00    +0.000 A 
ATOM     10 CL   UNL     1       0.599  11.732  18.982  0.00  0.00    +0.000 Cl
ATOM     11  C   UNL     1       1.739   9.536  17.906  0.00  0.00    +0.000 A 
ATOM     12  C   UNL     1       2.190   8.212  17.946  0.00  0.00    +0.000 A 
ENDBRANCH   4   6
BRANCH   1  13
ATOM     13  C   UNL     1       4.161   3.193  17.634  0.00  0.00    +0.000 C 
BRANCH  13  14
ATOM     14  S   UNL     1       4.882   4.140  16.241  0.00  0.00    +0.000 S 
BRANCH  14  18
ATOM     15  C   UNL     1       7.900   6.933  18.323  0.00  0.00    +0.000 A 
ATOM     16  C   UNL     1       7.009   7.398  17.356  0.00  0.00    +0.000 A 
ATOM     17  C   UNL     1       6.139   6.518  16.704  0.00  0.00    +0.000 A 
ATOM     18  C   UNL     1       6.117   5.156  17.031  0.00  0.00    +0.000 A 
ATOM     19  C   UNL     1       6.973   4.698  18.033  0.00  0.00    +0.000 A 
ATOM     20  C   UNL     1       7.843   5.585  18.683  0.00  0.00    +0.000 A 
BRANCH  15  21
ATOM     21  N   UNL     1       8.649   7.838  19.083  0.00  0.00    +0.000 N 
ATOM     22  H   UNL     1       8.096   8.565  19.525  0.00  0.00    +0.000 HD
ATOM     23  H   UNL     1       9.464   8.208  18.607  0.00  0.00    +0.000 HD
ENDBRANCH  15  21
ENDBRANCH  14  18
ENDBRANCH  13  14
ENDBRANCH   1  13
TORSDOF 5
ENDMDL
MODEL 2
REMARK VINA RESULT:      -7.0      0.185      1.067
REMARK  Name = 
REMARK  5 active torsions:
REMARK  status: ('A' for Active; 'I' for Inactive)
REMARK    1  A    between atoms: N_1  and  C_2
REMARK    2  A    between atoms: C_5  and  S_6
REMARK    3  A    between atoms: S_6  and  C_7
REMARK    4  A    between atoms: C_7  and  C_8
REMARK    5  A    between atoms: C_11  and  C_12
REMARK                            x       y       z     vdW  Elec       q    Type
REMARK                         _______ _______ _______ _____ _____    ______ ____
ROOT
ATOM      1  C   UNL     1       3.433   3.989  18.834  0.00  0.00    +0.000 A 
ATOM      2  C   UNL     1       2.946   3.675  20.092  0.00  0.00    +0.000 A 
ATOM      3  S   UNL     1       2.100   4.999  20.758  0.00  0.00    +0.000 S 
ATOM      4  C   UNL     1       2.450   5.934  19.354  0.00  0.00    +0.000 A 
ATOM      5  N   UNL     1       3.167   5.301  18.441  0.00  0.00    +0.000 NA
ENDROOT
BRANCH   4   6
ATOM      6  C   UNL     1       2.027   7.344  19.257  0.00  0.00    +0.000 A 
ATOM      7  C   UNL     1       2.180   8.027  18.039  0.00  0.00    +0.000 A 
ATOM      8  C   UNL     1       1.819   9.374  17.915  0.00  0.00    +0.000 A 
ATOM      9  C   UNL     1       1.290  10.052  19.008  0.00  0.00    +0.000 A 
ATOM     10 CL   UNL     1       0.859  11.711  18.862  0.00  0.00    +0.000 Cl
ATOM     11  C   UNL     1       1.109   9.394  20.220  0.00  0.00    +0.000 A 
ATOM     12  C   UNL     1       1.472   8.047  20.344  0.00  0.00    +0.000 A 
ENDBRANCH   4   6
BRANCH   1  13
ATOM     13  C   UNL     1       4.225   3.106  17.908  0.00  0.00    +0.000 C 
BRANCH  13  14
ATOM     14  S   UNL     1       4.860   4.024  16.454  0.00  0.00    +0.000 S 
BRANCH  14  18
ATOM     15  C   UNL     1       7.893   6.965  18.297  0.00  0.00    +0.000 A 
ATOM     16  C   UNL     1       6.996   7.356  17.303  0.00  0.00    +0.000 A 
ATOM     17  C   UNL     1       6.121   6.429  16.726  0.00  0.00    +0.000 A 
ATOM     18  C   UNL     1       6.101   5.096  17.156  0.00  0.00    +0.000 A 
ATOM     19  C   UNL     1       6.964   4.715  18.184  0.00  0.00    +0.000 A 
ATOM     20  C   UNL     1       7.838   5.649  18.759  0.00  0.00    +0.000 A 
BRANCH  15  21
ATOM     21  N   UNL     1       8.647   7.924  18.981  0.00  0.00    +0.000 N 
ATOM     22  H   UNL     1       9.016   8.662  18.389  0.00  0.00    +0.000 HD
ATOM     23  H   UNL     1       9.352   7.537  19.600  0.00  0.00    +0.000 HD
ENDBRANCH  15  21
ENDBRANCH  14  18
ENDBRANCH  13  14
ENDBRANCH   1  13
TORSDOF 5
ENDMDL
MODEL 3
REMARK VINA RESULT:      -6.9      2.958      4.198
REMARK  Name = 
REMARK  5 active torsions:
REMARK  status: ('A' for Active; 'I' for Inactive)
REMARK    1  A    between atoms: N_1  and  C_2
REMARK    2  A    between atoms: C_5  and  S_6
REMARK    3  A    between atoms: S_6  and  C_7
REMARK    4  A    between atoms: C_7  and  C_8
REMARK    5  A    between atoms: C_11  and  C_12
REMARK                            x       y       z     vdW  Elec       q    Type
REMARK                         _______ _______ _______ _____ _____    ______ ____
ROOT
ATOM      1  C   UNL     1       2.173   7.612  19.424  0.00  0.00    +0.000 A 
ATOM      2  C   UNL     1       2.135   8.386  18.277  0.00  0.00    +0.000 A 
ATOM      3  S   UNL     1       1.207   9.796  18.531  0.00  0.00    +0.000 S 
ATOM      4  C   UNL     1       0.876   9.290  20.145  0.00  0.00    +0.000 A 
ATOM      5  N   UNL     1       1.418   8.131  20.476  0.00  0.00    +0.000 NA
ENDROOT
BRANCH   4   6
ATOM      6  C   UNL     1      -0.005  10.085  21.022  0.00  0.00    +0.000 A 
ATOM      7  C   UNL     1      -0.627  11.237  20.512  0.00  0.00    +0.000 A 
ATOM      8  C   UNL     1      -1.445  12.035  21.321  0.00  0.00    +0.000 A 
ATOM      9  C   UNL     1      -1.659  11.683  22.650  0.00  0.00    +0.000 A 
ATOM     10 CL   UNL     1      -2.652  12.670  23.650  0.00  0.00    +0.000 Cl
ATOM     11  C   UNL     1      -1.070  10.537  23.174  0.00  0.00    +0.000 A 
ATOM     12  C   UNL     1      -0.251   9.741  22.365  0.00  0.00    +0.000 A 
ENDBRANCH   4   6
BRANCH   1  13
ATOM     13  C   UNL     1       2.883   6.300  19.626  0.00  0.00    +0.000 C 
BRANCH  13  14
ATOM     14  S   UNL     1       2.601   5.142  18.234  0.00  0.00    +0.000 S 
BRANCH  14  18
ATOM     15  C   UNL     1       6.492   5.128  15.762  0.00  0.00    +0.000 A 
ATOM     16  C   UNL     1       5.664   4.008  15.844  0.00  0.00    +0.000 A 
ATOM     17  C   UNL     1       4.516   4.025  16.642  0.00  0.00    +0.000 A 
ATOM     18  C   UNL     1       4.151   5.176  17.351  0.00  0.00    +0.000 A 
ATOM     19  C   UNL     1       4.951   6.313  17.233  0.00  0.00    +0.000 A 
ATOM     20  C   UNL     1       6.101   6.290  16.430  0.00  0.00    +0.000 A 
BRANCH  15  21
ATOM     21  N   UNL     1       7.543   5.161  14.840  0.00  0.00    +0.000 N 
ATOM     22  H   UNL     1       7.275   4.899  13.896  0.00  0.00    +0.000 HD
ATOM     23  H   UNL     1       8.384   4.685  15.149  0.00  0.00    +0.000 HD
ENDBRANCH  15  21
ENDBRANCH  14  18
ENDBRANCH  13  14
ENDBRANCH   1  13
TORSDOF 5
ENDMDL
MODEL 4
REMARK VINA RESULT:      -6.9      2.616      3.701
REMARK  Name = 
REMARK  5 active torsions:
REMARK  status: ('A' for Active; 'I' for Inactive)
REMARK    1  A    between atoms: N_1  and  C_2
REMARK    2  A    between atoms: C_5  and  S_6
REMARK    3  A    between atoms: S_6  and  C_7
REMARK    4  A    between atoms: C_7  and  C_8
REMARK    5  A    between atoms: C_11  and  C_12
REMARK                            x       y       z     vdW  Elec       q    Type
REMARK                         _______ _______ _______ _____ _____    ______ ____
ROOT
ATOM      1  C   UNL     1       3.039   6.438  19.090  0.00  0.00    +0.000 A 
ATOM      2  C   UNL     1       2.995   7.160  17.910  0.00  0.00    +0.000 A 
ATOM      3  S   UNL     1       2.098   8.598  18.115  0.00  0.00    +0.000 S 
ATOM      4  C   UNL     1       1.785   8.171  19.756  0.00  0.00    +0.000 A 
ATOM      5  N   UNL     1       2.312   7.018  20.130  0.00  0.00    +0.000 NA
ENDROOT
BRANCH   4   6
ATOM      6  C   UNL     1       0.934   9.021  20.610  0.00  0.00    +0.000 A 
ATOM      7  C   UNL     1       0.195  10.063  20.026  0.00  0.00    +0.000 A 
ATOM      8  C   UNL     1      -0.599  10.912  20.806  0.00  0.00    +0.000 A 
ATOM      9  C   UNL     1      -0.672  10.720  22.183  0.00  0.00    +0.000 A 
ATOM     10 CL   UNL     1      -1.636  11.770  23.146  0.00  0.00    +0.000 Cl
ATOM     11  C   UNL     1       0.035   9.684  22.783  0.00  0.00    +0.000 A 
ATOM     12  C   UNL     1       0.830   8.837  22.002  0.00  0.00    +0.000 A 
ENDBRANCH   4   6
BRANCH   1  13
ATOM     13  C   UNL     1       3.728   5.123  19.339  0.00  0.00    +0.000 C 
BRANCH  13  14
ATOM     14  S   UNL     1       5.551   5.266  19.221  0.00  0.00    +0.000 S 
BRANCH  14  18
ATOM     15  C   UNL     1       6.228   3.955  14.854  0.00  0.00    +0.000 A 
ATOM     16  C   UNL     1       5.038   3.687  15.530  0.00  0.00    +0.000 A 
ATOM     17  C   UNL     1       4.880   4.052  16.871  0.00  0.00    +0.000 A 
ATOM     18  C   UNL     1       5.898   4.726  17.557  0.00  0.00    +0.000 A 
ATOM     19  C   UNL     1       7.071   5.039  16.868  0.00  0.00    +0.000 A 
ATOM     20  C   UNL     1       7.223   4.671  15.523  0.00  0.00    +0.000 A 
BRANCH  15  21
ATOM     21  N   UNL     1       6.320   3.736  13.475  0.00  0.00    +0.000 N 
ATOM     22  H   UNL     1       5.435   3.815  12.983  0.00  0.00    +0.000 HD
ATOM     23  H   UNL     1       6.831   2.898  13.219  0.00  0.00    +0.000 HD
ENDBRANCH  15  21
ENDBRANCH  14  18
ENDBRANCH  13  14
ENDBRANCH   1  13
TORSDOF 5
ENDMDL
MODEL 5
REMARK VINA RESULT:      -6.9      2.859      3.953
REMARK  Name = 
REMARK  5 active torsions:
REMARK  status: ('A' for Active; 'I' for Inactive)
REMARK    1  A    between atoms: N_1  and  C_2
REMARK    2  A    between atoms: C_5  and  S_6
REMARK    3  A    between atoms: S_6  and  C_7
REMARK    4  A    between atoms: C_7  and  C_8
REMARK    5  A    between atoms: C_11  and  C_12
REMARK                            x       y       z     vdW  Elec       q    Type
REMARK                         _______ _______ _______ _____ _____    ______ ____
ROOT
ATOM      1  C   UNL     1       2.233   7.477  19.291  0.00  0.00    +0.000 A 
ATOM      2  C   UNL     1       2.131   8.168  18.096  0.00  0.00    +0.000 A 
ATOM      3  S   UNL     1       1.278   9.631  18.317  0.00  0.00    +0.000 S 
ATOM      4  C   UNL     1       1.060   9.255  19.985  0.00  0.00    +0.000 A 
ATOM      5  N   UNL     1       1.585   8.101  20.357  0.00  0.00    +0.000 NA
ENDROOT
BRANCH   4   6
ATOM      6  C   UNL     1       0.283  10.147  20.867  0.00  0.00    +0.000 A 
ATOM      7  C   UNL     1      -0.147   9.673  22.118  0.00  0.00    +0.000 A 
ATOM      8  C   UNL     1      -0.913  10.477  22.970  0.00  0.00    +0.000 A 
ATOM      9  C   UNL     1      -1.250  11.770  22.585  0.00  0.00    +0.000 A 
ATOM     10 CL   UNL     1      -2.204  12.755  23.625  0.00  0.00    +0.000 Cl
ATOM     11  C   UNL     1      -0.821  12.270  21.360  0.00  0.00    +0.000 A 
ATOM     12  C   UNL     1      -0.056  11.465  20.507  0.00  0.00    +0.000 A 
ENDBRANCH   4   6
BRANCH   1  13
ATOM     13  C   UNL     1       2.909   6.154  19.533  0.00  0.00    +0.000 C 
BRANCH  13  14
ATOM     14  S   UNL     1       2.687   4.998  18.129  0.00  0.00    +0.000 S 
BRANCH  14  18
ATOM     15  C   UNL     1       6.615   5.149  15.720  0.00  0.00    +0.000 A 
ATOM     16  C   UNL     1       5.747   4.059  15.651  0.00  0.00    +0.000 A 
ATOM     17  C   UNL     1       4.587   4.018  16.432  0.00  0.00    +0.000 A 
ATOM     18  C   UNL     1       4.251   5.085  17.275  0.00  0.00    +0.000 A 
ATOM     19  C   UNL     1       5.093   6.197  17.309  0.00  0.00    +0.000 A 
ATOM     20  C   UNL     1       6.254   6.233  16.523  0.00  0.00    +0.000 A 
BRANCH  15  21
ATOM     21  N   UNL     1       7.681   5.258  14.822  0.00  0.00    +0.000 N 
ATOM     22  H   UNL     1       7.457   4.970  13.875  0.00  0.00    +0.000 HD
ATOM     23  H   UNL     1       8.550   4.851  15.154  0.00  0.00    +0.000 HD
ENDBRANCH  15  21
ENDBRANCH  14  18
ENDBRANCH  13  14
ENDBRANCH   1  13
TORSDOF 5
ENDMDL
MODEL 6
REMARK VINA RESULT:      -6.8      2.691      3.808
REMARK  Name = 
REMARK  5 active torsions:
REMARK  status: ('A' for Active; 'I' for Inactive)
REMARK    1  A    between atoms: N_1  and  C_2
REMARK    2  A    between atoms: C_5  and  S_6
REMARK    3  A    between atoms: S_6  and  C_7
REMARK    4  A    between atoms: C_7  and  C_8
REMARK    5  A    between atoms: C_11  and  C_12
REMARK                            x       y       z     vdW  Elec       q    Type
REMARK                         _______ _______ _______ _____ _____    ______ ____
ROOT
ATOM      1  C   UNL     1       2.909   6.631  19.171  0.00  0.00    +0.000 A 
ATOM      2  C   UNL     1       2.873   7.364  17.997  0.00  0.00    +0.000 A 
ATOM      3  S   UNL     1       1.961   8.792  18.205  0.00  0.00    +0.000 S 
ATOM      4  C   UNL     1       1.632   8.347  19.837  0.00  0.00    +0.000 A 
ATOM      5  N   UNL     1       2.164   7.194  20.207  0.00  0.00    +0.000 NA
ENDROOT
BRANCH   4   6
ATOM      6  C   UNL     1       0.764   9.181  20.690  0.00  0.00    +0.000 A 
ATOM      7  C   UNL     1       0.141  10.313  20.139  0.00  0.00    +0.000 A 
ATOM      8  C   UNL     1      -0.665  11.148  20.922  0.00  0.00    +0.000 A 
ATOM      9  C   UNL     1      -0.866  10.853  22.267  0.00  0.00    +0.000 A 
ATOM     10 CL   UNL     1      -1.844  11.886  23.235  0.00  0.00    +0.000 Cl
ATOM     11  C   UNL     1      -0.276   9.728  22.832  0.00  0.00    +0.000 A 
ATOM     12  C   UNL     1       0.531   8.895  22.049  0.00  0.00    +0.000 A 
ENDBRANCH   4   6
BRANCH   1  13
ATOM     13  C   UNL     1       3.606   5.319  19.415  0.00  0.00    +0.000 C 
BRANCH  13  14
ATOM     14  S   UNL     1       5.415   5.439  19.149  0.00  0.00    +0.000 S 
BRANCH  14  18
ATOM     15  C   UNL     1       6.138   4.112  14.794  0.00  0.00    +0.000 A 
ATOM     16  C   UNL     1       7.115   4.775  15.536  0.00  0.00    +0.000 A 
ATOM     17  C   UNL     1       6.850   5.211  16.838  0.00  0.00    +0.000 A 
ATOM     18  C   UNL     1       5.611   4.962  17.441  0.00  0.00    +0.000 A 
ATOM     19  C   UNL     1       4.648   4.256  16.718  0.00  0.00    +0.000 A 
ATOM     20  C   UNL     1       4.921   3.821  15.413  0.00  0.00    +0.000 A 
BRANCH  15  21
ATOM     21  N   UNL     1       6.460   3.537  13.560  0.00  0.00    +0.000 N 
ATOM     22  H   UNL     1       6.770   4.204  12.860  0.00  0.00    +0.000 HD
ATOM     23  H   UNL     1       5.758   2.898  13.202  0.00  0.00    +0.000 HD
ENDBRANCH  15  21
ENDBRANCH  14  18
ENDBRANCH  13  14
ENDBRANCH   1  13
TORSDOF 5
ENDMDL
MODEL 7
REMARK VINA RESULT:      -6.7      2.127      2.817
REMARK  Name = 
REMARK  5 active torsions:
REMARK  status: ('A' for Active; 'I' for Inactive)
REMARK    1  A    between atoms: N_1  and  C_2
REMARK    2  A    between atoms: C_5  and  S_6
REMARK    3  A    between atoms: S_6  and  C_7
REMARK    4  A    between atoms: C_7  and  C_8
REMARK    5  A    between atoms: C_11  and  C_12
REMARK                            x       y       z     vdW  Elec       q    Type
REMARK                         _______ _______ _______ _____ _____    ______ ____
ROOT
ATOM      1  C   UNL     1       3.924   4.620  19.591  0.00  0.00    +0.000 A 
ATOM      2  C   UNL     1       2.885   4.048  20.306  0.00  0.00    +0.000 A 
ATOM      3  S   UNL     1       1.599   5.155  20.489  0.00  0.00    +0.000 S 
ATOM      4  C   UNL     1       2.502   6.350  19.637  0.00  0.00    +0.000 A 
ATOM      5  N   UNL     1       3.700   5.952  19.244  0.00  0.00    +0.000 NA
ENDROOT
BRANCH   4   6
ATOM      6  C   UNL     1       1.968   7.713  19.450  0.00  0.00    +0.000 A 
ATOM      7  C   UNL     1       1.350   8.364  20.530  0.00  0.00    +0.000 A 
ATOM      8  C   UNL     1       0.803   9.645  20.385  0.00  0.00    +0.000 A 
ATOM      9  C   UNL     1       0.877  10.294  19.156  0.00  0.00    +0.000 A 
ATOM     10 CL   UNL     1       0.193  11.862  18.972  0.00  0.00    +0.000 Cl
ATOM     11  C   UNL     1       1.501   9.679  18.076  0.00  0.00    +0.000 A 
ATOM     12  C   UNL     1       2.046   8.398  18.222  0.00  0.00    +0.000 A 
ENDBRANCH   4   6
BRANCH   1  13
ATOM     13  C   UNL     1       5.235   3.986  19.207  0.00  0.00    +0.000 C 
BRANCH  13  14
ATOM     14  S   UNL     1       6.364   5.176  18.391  0.00  0.00    +0.000 S 
BRANCH  14  18
ATOM     15  C   UNL     1       6.218   4.030  13.929  0.00  0.00    +0.000 A 
ATOM     16  C   UNL     1       7.271   4.769  14.468  0.00  0.00    +0.000 A 
ATOM     17  C   UNL     1       7.264   5.146  15.814  0.00  0.00    +0.000 A 
ATOM     18  C   UNL     1       6.217   4.761  16.663  0.00  0.00    +0.000 A 
ATOM     19  C   UNL     1       5.187   3.980  16.137  0.00  0.00    +0.000 A 
ATOM     20  C   UNL     1       5.201   3.605  14.786  0.00  0.00    +0.000 A 
BRANCH  15  21
ATOM     21  N   UNL     1       6.309   3.519  12.630  0.00  0.00    +0.000 N 
ATOM     22  H   UNL     1       7.119   3.844  12.112  0.00  0.00    +0.000 HD
ATOM     23  H   UNL     1       5.451   3.592  12.092  0.00  0.00    +0.000 HD
ENDBRANCH  15  21
ENDBRANCH  14  18
ENDBRANCH  13  14
ENDBRANCH   1  13
TORSDOF 5
ENDMDL
MODEL 8
REMARK VINA RESULT:      -6.7      3.985      7.718
REMARK  Name = 
REMARK  5 active torsions:
REMARK  status: ('A' for Active; 'I' for Inactive)
REMARK    1  A    between atoms: N_1  and  C_2
REMARK    2  A    between atoms: C_5  and  S_6
REMARK    3  A    between atoms: S_6  and  C_7
REMARK    4  A    between atoms: C_7  and  C_8
REMARK    5  A    between atoms: C_11  and  C_12
REMARK                            x       y       z     vdW  Elec       q    Type
REMARK                         _______ _______ _______ _____ _____    ______ ____
ROOT
ATOM      1  C   UNL     1       1.855   7.549  19.979  0.00  0.00    +0.000 A 
ATOM      2  C   UNL     1       1.817   6.394  20.741  0.00  0.00    +0.000 A 
ATOM      3  S   UNL     1       2.746   5.161  20.014  0.00  0.00    +0.000 S 
ATOM      4  C   UNL     1       3.127   6.216  18.705  0.00  0.00    +0.000 A 
ATOM      5  N   UNL     1       2.585   7.418  18.798  0.00  0.00    +0.000 NA
ENDROOT
BRANCH   4   6
ATOM      6  C   UNL     1       3.935   5.746  17.564  0.00  0.00    +0.000 A 
ATOM      7  C   UNL     1       4.054   4.366  17.326  0.00  0.00    +0.000 A 
ATOM      8  C   UNL     1       4.837   3.879  16.273  0.00  0.00    +0.000 A 
ATOM      9  C   UNL     1       5.502   4.769  15.436  0.00  0.00    +0.000 A 
ATOM     10 CL   UNL     1       6.477   4.172  14.150  0.00  0.00    +0.000 Cl
ATOM     11  C   UNL     1       5.386   6.140  15.638  0.00  0.00    +0.000 A 
ATOM     12  C   UNL     1       4.604   6.626  16.693  0.00  0.00    +0.000 A 
ENDBRANCH   4   6
BRANCH   1  13
ATOM     13  C   UNL     1       1.179   8.864  20.266  0.00  0.00    +0.000 C 
BRANCH  13  14
ATOM     14  S   UNL     1       1.348  10.044  18.875  0.00  0.00    +0.000 S 
BRANCH  14  18
ATOM     15  C   UNL     1      -2.941  11.426  17.901  0.00  0.00    +0.000 A 
ATOM     16  C   UNL     1      -2.135  12.107  18.813  0.00  0.00    +0.000 A 
ATOM     17  C   UNL     1      -0.856  11.635  19.127  0.00  0.00    +0.000 A 
ATOM     18  C   UNL     1      -0.340  10.490  18.508  0.00  0.00    +0.000 A 
ATOM     19  C   UNL     1      -1.127   9.835  17.559  0.00  0.00    +0.000 A 
ATOM     20  C   UNL     1      -2.408  10.313  17.248  0.00  0.00    +0.000 A 
BRANCH  15  21
ATOM     21  N   UNL     1      -4.147  11.988  17.470  0.00  0.00    +0.000 N 
ATOM     22  H   UNL     1      -4.267  11.991  16.462  0.00  0.00    +0.000 HD
ATOM     23  H   UNL     1      -4.359  12.889  17.887  0.00  0.00    +0.000 HD
ENDBRANCH  15  21
ENDBRANCH  14  18
ENDBRANCH  13  14
ENDBRANCH   1  13
TORSDOF 5
ENDMDL
MODEL 9
REMARK VINA RESULT:      -6.7      2.384      3.080
REMARK  Name = 
REMARK  5 active torsions:
REMARK  status: ('A' for Active; 'I' for Inactive)
REMARK    1  A    between atoms: N_1  and  C_2
REMARK    2  A    between atoms: C_5  and  S_6
REMARK    3  A    between atoms: S_6  and  C_7
REMARK    4  A    between atoms: C_7  and  C_8
REMARK    5  A    between atoms: C_11  and  C_12
REMARK                            x       y       z     vdW  Elec       q    Type
REMARK                         _______ _______ _______ _____ _____    ______ ____
ROOT
ATOM      1  C   UNL     1       2.693   5.821  18.995  0.00  0.00    +0.000 A 
ATOM      2  C   UNL     1       2.958   6.589  17.874  0.00  0.00    +0.000 A 
ATOM      3  S   UNL     1       2.414   8.191  18.097  0.00  0.00    +0.000 S 
ATOM      4  C   UNL     1       1.823   7.775  19.662  0.00  0.00    +0.000 A 
ATOM      5  N   UNL     1       2.012   6.511  19.999  0.00  0.00    +0.000 NA
ENDROOT
BRANCH   4   6
ATOM      6  C   UNL     1       1.110   8.766  20.490  0.00  0.00    +0.000 A 
ATOM      7  C   UNL     1       0.980   8.543  21.871  0.00  0.00    +0.000 A 
ATOM      8  C   UNL     1       0.283   9.443  22.686  0.00  0.00    +0.000 A 
ATOM      9  C   UNL     1      -0.285  10.585  22.129  0.00  0.00    +0.000 A 
ATOM     10 CL   UNL     1      -1.154  11.685  23.127  0.00  0.00    +0.000 Cl
ATOM     11  C   UNL     1      -0.154  10.839  20.768  0.00  0.00    +0.000 A 
ATOM     12  C   UNL     1       0.542   9.938  19.954  0.00  0.00    +0.000 A 
ENDBRANCH   4   6
BRANCH   1  13
ATOM     13  C   UNL     1       3.014   4.366  19.211  0.00  0.00    +0.000 C 
BRANCH  13  14
ATOM     14  S   UNL     1       4.808   4.084  19.451  0.00  0.00    +0.000 S 
BRANCH  14  18
ATOM     15  C   UNL     1       6.828   5.122  15.440  0.00  0.00    +0.000 A 
ATOM     16  C   UNL     1       7.199   5.738  16.635  0.00  0.00    +0.000 A 
ATOM     17  C   UNL     1       6.534   5.440  17.829  0.00  0.00    +0.000 A 
ATOM     18  C   UNL     1       5.504   4.491  17.860  0.00  0.00    +0.000 A 
ATOM     19  C   UNL     1       5.164   3.838  16.675  0.00  0.00    +0.000 A 
ATOM     20  C   UNL     1       5.835   4.141  15.481  0.00  0.00    +0.000 A 
BRANCH  15  21
ATOM     21  N   UNL     1       7.600   5.300  14.287  0.00  0.00    +0.000 N 
ATOM     22  H   UNL     1       8.021   4.447  13.933  0.00  0.00    +0.000 HD
ATOM     23  H   UNL     1       8.265   6.064  14.345  0.00  0.00    +0.000 HD
ENDBRANCH  15  21
ENDBRANCH  14  18
ENDBRANCH  13  14
ENDBRANCH   1  13
TORSDOF 5
ENDMDL
