MODEL 1
REMARK VINA RESULT:      -8.6      0.000      0.000
REMARK  Name = 
REMARK  8 active torsions:
REMARK  status: ('A' for Active; 'I' for Inactive)
REMARK    1  A    between atoms: C_1  and  S_2
REMARK    2  A    between atoms: S_2  and  C_3
REMARK    3  A    between atoms: C_6  and  C_7
REMARK    4  A    between atoms: N_9  and  C_10
REMARK    5  A    between atoms: C_14  and  O_15
REMARK    6  A    between atoms: O_15  and  C_16
REMARK    7  A    between atoms: C_18  and  C_19
REMARK    8  A    between atoms: C_19  and  N_20
REMARK                            x       y       z     vdW  Elec       q    Type
REMARK                         _______ _______ _______ _____ _____    ______ ____
ROOT
ATOM      1  C   UNL     1      -0.793  11.259  18.257  0.00  0.00    +0.000 C 
ATOM      2  C   UNL     1      -0.311  12.533  19.039  0.00  0.00    +0.000 C 
ATOM      3  N   UNL     1       1.030  12.396  19.591  0.00  0.00    +0.000 NA
ATOM      4  C   UNL     1       1.967  12.354  18.463  0.00  0.00    +0.000 C 
ATOM      5  C   UNL     1       0.991  11.287  20.605  0.00  0.00    +0.000 C 
ATOM      6  C   UNL     1       0.112   9.984  20.245  0.00  0.00    +0.000 A 
ATOM      7  C   UNL     1       0.559   8.754  20.821  0.00  0.00    +0.000 A 
ATOM      8  C   UNL     1       1.636   8.074  20.249  0.00  0.00    +0.000 A 
ATOM      9  C   UNL     1       2.024   8.562  19.018  0.00  0.00    +0.000 A 
ATOM     10  C   UNL     1       1.095   9.396  18.292  0.00  0.00    +0.000 A 
ATOM     11  C   UNL     1      -0.075   9.996  18.879  0.00  0.00    +0.000 A 
ENDROOT
BRANCH   1  15
ATOM     12  C   UNL     1      -5.131  11.551  18.801  0.00  0.00    +0.000 A 
ATOM     13  C   UNL     1      -4.232  12.283  19.563  0.00  0.00    +0.000 A 
ATOM     14  C   UNL     1      -2.866  12.327  19.212  0.00  0.00    +0.000 A 
ATOM     15  C   UNL     1      -2.314  11.606  18.112  0.00  0.00    +0.000 A 
ATOM     16  C   UNL     1      -3.239  10.907  17.324  0.00  0.00    +0.000 A 
ATOM     17  C   UNL     1      -4.622  10.882  17.671  0.00  0.00    +0.000 A 
BRANCH  12  19
ATOM     18  C   UNL     1      -7.052   9.480  19.321  0.00  0.00    +0.000 C 
ATOM     19  S   UNL     1      -6.854  11.291  19.243  0.00  0.00    +0.000 S 
ENDBRANCH  12  19
ENDBRANCH   1  15
BRANCH   8  20
ATOM     20  O   UNL     1       1.941   6.800  20.690  0.00  0.00    +0.000 OA
BRANCH  20  21
ATOM     21  C   UNL     1       2.084   5.712  19.914  0.00  0.00    +0.000 A 
ATOM     22  N   UNL     1       2.646   5.785  18.735  0.00  0.00    +0.000 NA
ATOM     23  C   UNL     1       3.137   4.552  18.308  0.00  0.00    +0.000 A 
ATOM     24  C   UNL     1       2.837   3.471  19.177  0.00  0.00    +0.000 A 
ATOM     25  S   UNL     1       2.022   4.107  20.553  0.00  0.00    +0.000 S 
BRANCH  23  26
ATOM     26  C   UNL     1       4.064   4.499  17.114  0.00  0.00    +0.000 C 
BRANCH  26  27
ATOM     27  N   UNL     1       4.919   5.695  16.932  0.00  0.00    +0.000 NA
ATOM     28  C   UNL     1       5.485   5.709  15.551  0.00  0.00    +0.000 C 
ATOM     29  C   UNL     1       6.582   4.650  15.301  0.00  0.00    +0.000 C 
ATOM     30  O   UNL     1       7.649   4.772  16.248  0.00  0.00    +0.000 OA
ATOM     31  C   UNL     1       7.154   4.692  17.592  0.00  0.00    +0.000 C 
ATOM     32  C   UNL     1       6.072   5.751  17.860  0.00  0.00    +0.000 C 
ENDBRANCH  26  27
ENDBRANCH  23  26
ENDBRANCH  20  21
ENDBRANCH   8  20
TORSDOF 6
ENDMDL
MODEL 2
REMARK VINA RESULT:      -8.6      1.110      1.438
REMARK  Name = 
REMARK  8 active torsions:
REMARK  status: ('A' for Active; 'I' for Inactive)
REMARK    1  A    between atoms: C_1  and  S_2
REMARK    2  A    between atoms: S_2  and  C_3
REMARK    3  A    between atoms: C_6  and  C_7
REMARK    4  A    between atoms: N_9  and  C_10
REMARK    5  A    between atoms: C_14  and  O_15
REMARK    6  A    between atoms: O_15  and  C_16
REMARK    7  A    between atoms: C_18  and  C_19
REMARK    8  A    between atoms: C_19  and  N_20
REMARK                            x       y       z     vdW  Elec       q    Type
REMARK                         _______ _______ _______ _____ _____    ______ ____
ROOT
ATOM      1  C   UNL     1      -0.935  11.575  18.770  0.00  0.00    +0.000 C 
ATOM      2  C   UNL     1      -0.376  12.774  19.617  0.00  0.00    +0.000 C 
ATOM      3  N   UNL     1       0.949  12.522  20.166  0.00  0.00    +0.000 NA
ATOM      4  C   UNL     1       1.889  12.476  19.039  0.00  0.00    +0.000 C 
ATOM      5  C   UNL     1       0.832  11.368  21.121  0.00  0.00    +0.000 C 
ATOM      6  C   UNL     1      -0.128  10.145  20.693  0.00  0.00    +0.000 A 
ATOM      7  C   UNL     1       0.235   8.860  21.208  0.00  0.00    +0.000 A 
ATOM      8  C   UNL     1       1.269   8.141  20.605  0.00  0.00    +0.000 A 
ATOM      9  C   UNL     1       1.696   8.664  19.401  0.00  0.00    +0.000 A 
ATOM     10  C   UNL     1       0.827   9.594  18.716  0.00  0.00    +0.000 A 
ATOM     11  C   UNL     1      -0.305  10.238  19.329  0.00  0.00    +0.000 A 
ENDROOT
BRANCH   1  15
ATOM     12  C   UNL     1      -5.268  12.038  19.241  0.00  0.00    +0.000 A 
ATOM     13  C   UNL     1      -4.356  12.600  20.123  0.00  0.00    +0.000 A 
ATOM     14  C   UNL     1      -2.978  12.614  19.817  0.00  0.00    +0.000 A 
ATOM     15  C   UNL     1      -2.429  12.027  18.638  0.00  0.00    +0.000 A 
ATOM     16  C   UNL     1      -3.364  11.503  17.735  0.00  0.00    +0.000 A 
ATOM     17  C   UNL     1      -4.758  11.509  18.039  0.00  0.00    +0.000 A 
BRANCH  12  19
ATOM     18  C   UNL     1      -7.853  13.159  18.689  0.00  0.00    +0.000 C 
ATOM     19  S   UNL     1      -7.015  11.818  19.597  0.00  0.00    +0.000 S 
ENDBRANCH  12  19
ENDBRANCH   1  15
BRANCH   8  20
ATOM     20  O   UNL     1       1.488   6.830  20.981  0.00  0.00    +0.000 OA
BRANCH  20  21
ATOM     21  C   UNL     1       2.026   5.869  20.210  0.00  0.00    +0.000 A 
ATOM     22  N   UNL     1       3.238   5.981  19.730  0.00  0.00    +0.000 NA
ATOM     23  C   UNL     1       3.787   4.744  19.392  0.00  0.00    +0.000 A 
ATOM     24  C   UNL     1       2.896   3.650  19.538  0.00  0.00    +0.000 A 
ATOM     25  S   UNL     1       1.422   4.250  20.196  0.00  0.00    +0.000 S 
BRANCH  23  26
ATOM     26  C   UNL     1       5.268   4.649  19.096  0.00  0.00    +0.000 C 
BRANCH  26  27
ATOM     27  N   UNL     1       5.606   4.384  17.678  0.00  0.00    +0.000 NA
ATOM     28  C   UNL     1       7.036   4.729  17.425  0.00  0.00    +0.000 C 
ATOM     29  C   UNL     1       7.334   6.244  17.414  0.00  0.00    +0.000 C 
ATOM     30  O   UNL     1       6.511   6.930  16.465  0.00  0.00    +0.000 OA
ATOM     31  C   UNL     1       5.120   6.682  16.718  0.00  0.00    +0.000 C 
ATOM     32  C   UNL     1       4.806   5.177  16.716  0.00  0.00    +0.000 C 
ENDBRANCH  26  27
ENDBRANCH  23  26
ENDBRANCH  20  21
ENDBRANCH   8  20
TORSDOF 6
ENDMDL
MODEL 3
REMARK VINA RESULT:      -8.4      1.034      1.499
REMARK  Name = 
REMARK  8 active torsions:
REMARK  status: ('A' for Active; 'I' for Inactive)
REMARK    1  A    between atoms: C_1  and  S_2
REMARK    2  A    between atoms: S_2  and  C_3
REMARK    3  A    between atoms: C_6  and  C_7
REMARK    4  A    between atoms: N_9  and  C_10
REMARK    5  A    between atoms: C_14  and  O_15
REMARK    6  A    between atoms: O_15  and  C_16
REMARK    7  A    between atoms: C_18  and  C_19
REMARK    8  A    between atoms: C_19  and  N_20
REMARK                            x       y       z     vdW  Elec       q    Type
REMARK                         _______ _______ _______ _____ _____    ______ ____
ROOT
ATOM      1  C   UNL     1      -1.416  11.224  18.421  0.00  0.00    +0.000 C 
ATOM      2  C   UNL     1      -1.109  12.529  19.240  0.00  0.00    +0.000 C 
ATOM      3  N   UNL     1       0.269  12.606  19.704  0.00  0.00    +0.000 NA
ATOM      4  C   UNL     1       1.122  12.777  18.521  0.00  0.00    +0.000 C 
ATOM      5  C   UNL     1       0.491  11.466  20.657  0.00  0.00    +0.000 C 
ATOM      6  C   UNL     1      -0.172  10.045  20.281  0.00  0.00    +0.000 A 
ATOM      7  C   UNL     1       0.519   8.889  20.763  0.00  0.00    +0.000 A 
ATOM      8  C   UNL     1       1.655   8.433  20.093  0.00  0.00    +0.000 A 
ATOM      9  C   UNL     1       1.869   9.033  18.868  0.00  0.00    +0.000 A 
ATOM     10  C   UNL     1       0.763   9.722  18.244  0.00  0.00    +0.000 A 
ATOM     11  C   UNL     1      -0.450  10.082  18.931  0.00  0.00    +0.000 A 
ENDROOT
BRANCH   1  15
ATOM     12  C   UNL     1      -5.573  12.320  17.572  0.00  0.00    +0.000 A 
ATOM     13  C   UNL     1      -4.810  11.553  16.703  0.00  0.00    +0.000 A 
ATOM     14  C   UNL     1      -3.559  11.041  17.109  0.00  0.00    +0.000 A 
ATOM     15  C   UNL     1      -2.980  11.305  18.386  0.00  0.00    +0.000 A 
ATOM     16  C   UNL     1      -3.779  12.043  19.270  0.00  0.00    +0.000 A 
ATOM     17  C   UNL     1      -5.052  12.541  18.862  0.00  0.00    +0.000 A 
BRANCH  12  19
ATOM     18  C   UNL     1      -7.009  14.780  17.935  0.00  0.00    +0.000 C 
ATOM     19  S   UNL     1      -7.096  13.156  17.111  0.00  0.00    +0.000 S 
ENDBRANCH  12  19
ENDBRANCH   1  15
BRANCH   8  20
ATOM     20  O   UNL     1       2.204   7.216  20.445  0.00  0.00    +0.000 OA
BRANCH  20  21
ATOM     21  C   UNL     1       2.251   6.118  19.670  0.00  0.00    +0.000 A 
ATOM     22  N   UNL     1       2.847   6.132  18.506  0.00  0.00    +0.000 NA
ATOM     23  C   UNL     1       3.216   4.854  18.087  0.00  0.00    +0.000 A 
ATOM     24  C   UNL     1       2.782   3.811  18.945  0.00  0.00    +0.000 A 
ATOM     25  S   UNL     1       2.004   4.529  20.303  0.00  0.00    +0.000 S 
BRANCH  23  26
ATOM     26  C   UNL     1       4.162   4.704  16.916  0.00  0.00    +0.000 C 
BRANCH  26  27
ATOM     27  N   UNL     1       5.136   5.808  16.754  0.00  0.00    +0.000 NA
ATOM     28  C   UNL     1       5.753   5.744  15.396  0.00  0.00    +0.000 C 
ATOM     29  C   UNL     1       6.750   4.579  15.203  0.00  0.00    +0.000 C 
ATOM     30  O   UNL     1       7.786   4.612  16.189  0.00  0.00    +0.000 OA
ATOM     31  C   UNL     1       7.235   4.601  17.514  0.00  0.00    +0.000 C 
ATOM     32  C   UNL     1       6.253   5.765  17.726  0.00  0.00    +0.000 C 
ENDBRANCH  26  27
ENDBRANCH  23  26
ENDBRANCH  20  21
ENDBRANCH   8  20
TORSDOF 6
ENDMDL
MODEL 4
REMARK VINA RESULT:      -8.4      0.721      1.104
REMARK  Name = 
REMARK  8 active torsions:
REMARK  status: ('A' for Active; 'I' for Inactive)
REMARK    1  A    between atoms: C_1  and  S_2
REMARK    2  A    between atoms: S_2  and  C_3
REMARK    3  A    between atoms: C_6  and  C_7
REMARK    4  A    between atoms: N_9  and  C_10
REMARK    5  A    between atoms: C_14  and  O_15
REMARK    6  A    between atoms: O_15  and  C_16
REMARK    7  A    between atoms: C_18  and  C_19
REMARK    8  A    between atoms: C_19  and  N_20
REMARK                            x       y       z     vdW  Elec       q    Type
REMARK                         _______ _______ _______ _____ _____    ______ ____
ROOT
ATOM      1  C   UNL     1      -1.108  11.481  18.715  0.00  0.00    +0.000 C 
ATOM      2  C   UNL     1      -0.566  12.716  19.519  0.00  0.00    +0.000 C 
ATOM      3  N   UNL     1       0.788  12.528  20.020  0.00  0.00    +0.000 NA
ATOM      4  C   UNL     1       1.686  12.499  18.859  0.00  0.00    +0.000 C 
ATOM      5  C   UNL     1       0.755  11.389  20.999  0.00  0.00    +0.000 C 
ATOM      6  C   UNL     1      -0.170  10.121  20.630  0.00  0.00    +0.000 A 
ATOM      7  C   UNL     1       0.264   8.861  21.152  0.00  0.00    +0.000 A 
ATOM      8  C   UNL     1       1.303   8.173  20.522  0.00  0.00    +0.000 A 
ATOM      9  C   UNL     1       1.662   8.690  19.294  0.00  0.00    +0.000 A 
ATOM     10  C   UNL     1       0.730   9.571  18.627  0.00  0.00    +0.000 A 
ATOM     11  C   UNL     1      -0.402  10.181  19.272  0.00  0.00    +0.000 A 
ENDROOT
BRANCH   1  15
ATOM     12  C   UNL     1      -5.430  11.799  19.364  0.00  0.00    +0.000 A 
ATOM     13  C   UNL     1      -4.503  12.430  20.182  0.00  0.00    +0.000 A 
ATOM     14  C   UNL     1      -3.142  12.483  19.813  0.00  0.00    +0.000 A 
ATOM     15  C   UNL     1      -2.623  11.870  18.634  0.00  0.00    +0.000 A 
ATOM     16  C   UNL     1      -3.575  11.275  17.795  0.00  0.00    +0.000 A 
ATOM     17  C   UNL     1      -4.953  11.241  18.162  0.00  0.00    +0.000 A 
BRANCH  12  19
ATOM     18  C   UNL     1      -7.270   9.742  20.159  0.00  0.00    +0.000 C 
ATOM     19  S   UNL     1      -7.151  11.527  19.808  0.00  0.00    +0.000 S 
ENDBRANCH  12  19
ENDBRANCH   1  15
BRANCH   8  20
ATOM     20  O   UNL     1       1.589   6.879  20.912  0.00  0.00    +0.000 OA
BRANCH  20  21
ATOM     21  C   UNL     1       1.986   5.882  20.102  0.00  0.00    +0.000 A 
ATOM     22  N   UNL     1       2.533   6.127  18.939  0.00  0.00    +0.000 NA
ATOM     23  C   UNL     1       3.298   5.055  18.480  0.00  0.00    +0.000 A 
ATOM     24  C   UNL     1       3.240   3.901  19.304  0.00  0.00    +0.000 A 
ATOM     25  S   UNL     1       2.283   4.282  20.684  0.00  0.00    +0.000 S 
BRANCH  23  26
ATOM     26  C   UNL     1       4.229   5.260  17.306  0.00  0.00    +0.000 C 
BRANCH  26  27
ATOM     27  N   UNL     1       5.378   4.327  17.249  0.00  0.00    +0.000 NA
ATOM     28  C   UNL     1       6.590   4.980  17.824  0.00  0.00    +0.000 C 
ATOM     29  C   UNL     1       7.199   6.089  16.937  0.00  0.00    +0.000 C 
ATOM     30  O   UNL     1       7.506   5.598  15.628  0.00  0.00    +0.000 OA
ATOM     31  C   UNL     1       6.346   5.024  15.009  0.00  0.00    +0.000 C 
ATOM     32  C   UNL     1       5.739   3.908  15.875  0.00  0.00    +0.000 C 
ENDBRANCH  26  27
ENDBRANCH  23  26
ENDBRANCH  20  21
ENDBRANCH   8  20
TORSDOF 6
ENDMDL
MODEL 5
REMARK VINA RESULT:      -8.3      1.181      1.809
REMARK  Name = 
REMARK  8 active torsions:
REMARK  status: ('A' for Active; 'I' for Inactive)
REMARK    1  A    between atoms: C_1  and  S_2
REMARK    2  A    between atoms: S_2  and  C_3
REMARK    3  A    between atoms: C_6  and  C_7
REMARK    4  A    between atoms: N_9  and  C_10
REMARK    5  A    between atoms: C_14  and  O_15
REMARK    6  A    between atoms: O_15  and  C_16
REMARK    7  A    between atoms: C_18  and  C_19
REMARK    8  A    between atoms: C_19  and  N_20
REMARK                            x       y       z     vdW  Elec       q    Type
REMARK                         _______ _______ _______ _____ _____    ______ ____
ROOT
ATOM      1  C   UNL     1      -1.560  11.332  18.545  0.00  0.00    +0.000 C 
ATOM      2  C   UNL     1      -1.214  12.653  19.321  0.00  0.00    +0.000 C 
ATOM      3  N   UNL     1       0.181  12.731  19.732  0.00  0.00    +0.000 NA
ATOM      4  C   UNL     1       0.990  12.869  18.515  0.00  0.00    +0.000 C 
ATOM      5  C   UNL     1       0.431  11.612  20.703  0.00  0.00    +0.000 C 
ATOM      6  C   UNL     1      -0.255  10.188  20.385  0.00  0.00    +0.000 A 
ATOM      7  C   UNL     1       0.446   9.038  20.868  0.00  0.00    +0.000 A 
ATOM      8  C   UNL     1       1.554   8.559  20.167  0.00  0.00    +0.000 A 
ATOM      9  C   UNL     1       1.727   9.129  18.922  0.00  0.00    +0.000 A 
ATOM     10  C   UNL     1       0.602   9.811  18.323  0.00  0.00    +0.000 A 
ATOM     11  C   UNL     1      -0.583  10.195  19.045  0.00  0.00    +0.000 A 
ENDROOT
BRANCH   1  15
ATOM     12  C   UNL     1      -5.737  12.465  17.856  0.00  0.00    +0.000 A 
ATOM     13  C   UNL     1      -5.009  11.705  16.951  0.00  0.00    +0.000 A 
ATOM     14  C   UNL     1      -3.749  11.180  17.306  0.00  0.00    +0.000 A 
ATOM     15  C   UNL     1      -3.123  11.423  18.565  0.00  0.00    +0.000 A 
ATOM     16  C   UNL     1      -3.886  12.154  19.486  0.00  0.00    +0.000 A 
ATOM     17  C   UNL     1      -5.169  12.665  19.130  0.00  0.00    +0.000 A 
BRANCH  12  19
ATOM     18  C   UNL     1      -7.169  14.904  18.351  0.00  0.00    +0.000 C 
ATOM     19  S   UNL     1      -7.269  13.317  17.460  0.00  0.00    +0.000 S 
ENDBRANCH  12  19
ENDBRANCH   1  15
BRANCH   8  20
ATOM     20  O   UNL     1       2.109   7.346  20.528  0.00  0.00    +0.000 OA
BRANCH  20  21
ATOM     21  C   UNL     1       2.212   6.262  19.740  0.00  0.00    +0.000 A 
ATOM     22  N   UNL     1       2.769   6.330  18.558  0.00  0.00    +0.000 NA
ATOM     23  C   UNL     1       3.218   5.087  18.114  0.00  0.00    +0.000 A 
ATOM     24  C   UNL     1       2.890   4.007  18.973  0.00  0.00    +0.000 A 
ATOM     25  S   UNL     1       2.105   4.654  20.362  0.00  0.00    +0.000 S 
BRANCH  23  26
ATOM     26  C   UNL     1       4.135   5.018  16.913  0.00  0.00    +0.000 C 
BRANCH  26  27
ATOM     27  N   UNL     1       5.381   4.243  17.121  0.00  0.00    +0.000 NA
ATOM     28  C   UNL     1       6.388   5.084  17.830  0.00  0.00    +0.000 C 
ATOM     29  C   UNL     1       7.004   6.207  16.967  0.00  0.00    +0.000 C 
ATOM     30  O   UNL     1       7.588   5.682  15.770  0.00  0.00    +0.000 OA
ATOM     31  C   UNL     1       6.629   4.925  15.019  0.00  0.00    +0.000 C 
ATOM     32  C   UNL     1       6.019   3.793  15.863  0.00  0.00    +0.000 C 
ENDBRANCH  26  27
ENDBRANCH  23  26
ENDBRANCH  20  21
ENDBRANCH   8  20
TORSDOF 6
ENDMDL
MODEL 6
REMARK VINA RESULT:      -7.9      3.004      5.157
REMARK  Name = 
REMARK  8 active torsions:
REMARK  status: ('A' for Active; 'I' for Inactive)
REMARK    1  A    between atoms: C_1  and  S_2
REMARK    2  A    between atoms: S_2  and  C_3
REMARK    3  A    between atoms: C_6  and  C_7
REMARK    4  A    between atoms: N_9  and  C_10
REMARK    5  A    between atoms: C_14  and  O_15
REMARK    6  A    between atoms: O_15  and  C_16
REMARK    7  A    between atoms: C_18  and  C_19
REMARK    8  A    between atoms: C_19  and  N_20
REMARK                            x       y       z     vdW  Elec       q    Type
REMARK                         _______ _______ _______ _____ _____    ______ ____
ROOT
ATOM      1  C   UNL     1       0.441  12.736  19.365  0.00  0.00    +0.000 C 
ATOM      2  C   UNL     1      -0.595  12.629  18.189  0.00  0.00    +0.000 C 
ATOM      3  N   UNL     1      -1.448  11.453  18.278  0.00  0.00    +0.000 NA
ATOM      4  C   UNL     1      -2.322  11.632  19.444  0.00  0.00    +0.000 C 
ATOM      5  C   UNL     1      -0.566  10.242  18.154  0.00  0.00    +0.000 C 
ATOM      6  C   UNL     1       0.861  10.284  18.905  0.00  0.00    +0.000 A 
ATOM      7  C   UNL     1       1.376   9.020  19.332  0.00  0.00    +0.000 A 
ATOM      8  C   UNL     1       0.881   8.430  20.497  0.00  0.00    +0.000 A 
ATOM      9  C   UNL     1       0.082   9.260  21.257  0.00  0.00    +0.000 A 
ATOM     10  C   UNL     1       0.158  10.683  21.021  0.00  0.00    +0.000 A 
ATOM     11  C   UNL     1       0.776  11.274  19.862  0.00  0.00    +0.000 A 
ENDROOT
BRANCH   1  15
ATOM     12  C   UNL     1       3.708  15.572  18.662  0.00  0.00    +0.000 A 
ATOM     13  C   UNL     1       3.791  14.233  18.306  0.00  0.00    +0.000 A 
ATOM     14  C   UNL     1       2.646  13.409  18.347  0.00  0.00    +0.000 A 
ATOM     15  C   UNL     1       1.368  13.861  18.790  0.00  0.00    +0.000 A 
ATOM     16  C   UNL     1       1.287  15.225  19.105  0.00  0.00    +0.000 A 
ATOM     17  C   UNL     1       2.442  16.059  19.042  0.00  0.00    +0.000 A 
BRANCH  12  19
ATOM     18  C   UNL     1       6.570  15.622  18.435  0.00  0.00    +0.000 C 
ATOM     19  S   UNL     1       5.124  16.669  18.804  0.00  0.00    +0.000 S 
ENDBRANCH  12  19
ENDBRANCH   1  15
BRANCH   8  20
ATOM     20  O   UNL     1       1.510   7.310  21.006  0.00  0.00    +0.000 OA
BRANCH  20  21
ATOM     21  C   UNL     1       1.998   6.285  20.286  0.00  0.00    +0.000 A 
ATOM     22  N   UNL     1       3.191   6.335  19.753  0.00  0.00    +0.000 NA
ATOM     23  C   UNL     1       3.702   5.066  19.484  0.00  0.00    +0.000 A 
ATOM     24  C   UNL     1       2.795   4.005  19.741  0.00  0.00    +0.000 A 
ATOM     25  S   UNL     1       1.361   4.683  20.410  0.00  0.00    +0.000 S 
BRANCH  23  26
ATOM     26  C   UNL     1       5.167   4.916  19.139  0.00  0.00    +0.000 C 
BRANCH  26  27
ATOM     27  N   UNL     1       5.441   4.437  17.764  0.00  0.00    +0.000 NA
ATOM     28  C   UNL     1       6.871   4.682  17.417  0.00  0.00    +0.000 C 
ATOM     29  C   UNL     1       7.225   6.166  17.177  0.00  0.00    +0.000 C 
ATOM     30  O   UNL     1       6.391   6.743  16.167  0.00  0.00    +0.000 OA
ATOM     31  C   UNL     1       5.003   6.592  16.499  0.00  0.00    +0.000 C 
ATOM     32  C   UNL     1       4.634   5.117  16.725  0.00  0.00    +0.000 C 
ENDBRANCH  26  27
ENDBRANCH  23  26
ENDBRANCH  20  21
ENDBRANCH   8  20
TORSDOF 6
ENDMDL
MODEL 7
REMARK VINA RESULT:      -7.9      2.972      5.063
REMARK  Name = 
REMARK  8 active torsions:
REMARK  status: ('A' for Active; 'I' for Inactive)
REMARK    1  A    between atoms: C_1  and  S_2
REMARK    2  A    between atoms: S_2  and  C_3
REMARK    3  A    between atoms: C_6  and  C_7
REMARK    4  A    between atoms: N_9  and  C_10
REMARK    5  A    between atoms: C_14  and  O_15
REMARK    6  A    between atoms: O_15  and  C_16
REMARK    7  A    between atoms: C_18  and  C_19
REMARK    8  A    between atoms: C_19  and  N_20
REMARK                            x       y       z     vdW  Elec       q    Type
REMARK                         _______ _______ _______ _____ _____    ______ ____
ROOT
ATOM      1  C   UNL     1       0.587  12.844  19.508  0.00  0.00    +0.000 C 
ATOM      2  C   UNL     1      -0.505  12.815  18.380  0.00  0.00    +0.000 C 
ATOM      3  N   UNL     1      -1.292  11.590  18.371  0.00  0.00    +0.000 NA
ATOM      4  C   UNL     1      -2.109  11.584  19.591  0.00  0.00    +0.000 C 
ATOM      5  C   UNL     1      -0.358  10.454  18.062  0.00  0.00    +0.000 C 
ATOM      6  C   UNL     1       1.103  10.489  18.742  0.00  0.00    +0.000 A 
ATOM      7  C   UNL     1       1.703   9.214  18.992  0.00  0.00    +0.000 A 
ATOM      8  C   UNL     1       1.304   8.467  20.102  0.00  0.00    +0.000 A 
ATOM      9  C   UNL     1       0.507   9.158  20.992  0.00  0.00    +0.000 A 
ATOM     10  C   UNL     1       0.499  10.601  20.922  0.00  0.00    +0.000 A 
ATOM     11  C   UNL     1       1.022  11.355  19.813  0.00  0.00    +0.000 A 
ENDROOT
BRANCH   1  15
ATOM     12  C   UNL     1       3.772  15.760  18.765  0.00  0.00    +0.000 A 
ATOM     13  C   UNL     1       3.684  14.559  18.076  0.00  0.00    +0.000 A 
ATOM     14  C   UNL     1       2.530  13.753  18.187  0.00  0.00    +0.000 A 
ATOM     15  C   UNL     1       1.423  14.077  19.026  0.00  0.00    +0.000 A 
ATOM     16  C   UNL     1       1.506  15.314  19.682  0.00  0.00    +0.000 A 
ATOM     17  C   UNL     1       2.665  16.134  19.551  0.00  0.00    +0.000 A 
BRANCH  12  19
ATOM     18  C   UNL     1       6.091  16.297  20.372  0.00  0.00    +0.000 C 
ATOM     19  S   UNL     1       5.249  16.782  18.829  0.00  0.00    +0.000 S 
ENDBRANCH  12  19
ENDBRANCH   1  15
BRANCH   8  20
ATOM     20  O   UNL     1       2.015   7.333  20.444  0.00  0.00    +0.000 OA
BRANCH  20  21
ATOM     21  C   UNL     1       2.089   6.202  19.722  0.00  0.00    +0.000 A 
ATOM     22  N   UNL     1       2.823   6.131  18.641  0.00  0.00    +0.000 NA
ATOM     23  C   UNL     1       3.162   4.818  18.318  0.00  0.00    +0.000 A 
ATOM     24  C   UNL     1       2.563   3.839  19.153  0.00  0.00    +0.000 A 
ATOM     25  S   UNL     1       1.670   4.659  20.376  0.00  0.00    +0.000 S 
BRANCH  23  26
ATOM     26  C   UNL     1       4.233   4.563  17.281  0.00  0.00    +0.000 C 
BRANCH  26  27
ATOM     27  N   UNL     1       5.142   5.706  17.028  0.00  0.00    +0.000 NA
ATOM     28  C   UNL     1       5.689   5.620  15.642  0.00  0.00    +0.000 C 
ATOM     29  C   UNL     1       6.730   4.498  15.435  0.00  0.00    +0.000 C 
ATOM     30  O   UNL     1       7.814   4.616  16.362  0.00  0.00    +0.000 OA
ATOM     31  C   UNL     1       7.334   4.629  17.714  0.00  0.00    +0.000 C 
ATOM     32  C   UNL     1       6.309   5.752  17.938  0.00  0.00    +0.000 C 
ENDBRANCH  26  27
ENDBRANCH  23  26
ENDBRANCH  20  21
ENDBRANCH   8  20
TORSDOF 6
ENDMDL
MODEL 8
REMARK VINA RESULT:      -7.8      1.386      1.905
REMARK  Name = 
REMARK  8 active torsions:
REMARK  status: ('A' for Active; 'I' for Inactive)
REMARK    1  A    between atoms: C_1  and  S_2
REMARK    2  A    between atoms: S_2  and  C_3
REMARK    3  A    between atoms: C_6  and  C_7
REMARK    4  A    between atoms: N_9  and  C_10
REMARK    5  A    between atoms: C_14  and  O_15
REMARK    6  A    between atoms: O_15  and  C_16
REMARK    7  A    between atoms: C_18  and  C_19
REMARK    8  A    between atoms: C_19  and  N_20
REMARK                            x       y       z     vdW  Elec       q    Type
REMARK                         _______ _______ _______ _____ _____    ______ ____
ROOT
ATOM      1  C   UNL     1      -1.542  11.261  19.175  0.00  0.00    +0.000 C 
ATOM      2  C   UNL     1      -1.166  12.506  20.056  0.00  0.00    +0.000 C 
ATOM      3  N   UNL     1       0.183  12.440  20.600  0.00  0.00    +0.000 NA
ATOM      4  C   UNL     1       1.117  12.566  19.475  0.00  0.00    +0.000 C 
ATOM      5  C   UNL     1       0.242  11.256  21.523  0.00  0.00    +0.000 C 
ATOM      6  C   UNL     1      -0.525   9.915  21.060  0.00  0.00    +0.000 A 
ATOM      7  C   UNL     1       0.027   8.685  21.539  0.00  0.00    +0.000 A 
ATOM      8  C   UNL     1       1.156   8.146  20.919  0.00  0.00    +0.000 A 
ATOM      9  C   UNL     1       1.497   8.760  19.731  0.00  0.00    +0.000 A 
ATOM     10  C   UNL     1       0.497   9.568  19.069  0.00  0.00    +0.000 A 
ATOM     11  C   UNL     1      -0.717  10.019  19.698  0.00  0.00    +0.000 A 
ENDROOT
BRANCH   1  15
ATOM     12  C   UNL     1      -5.541  12.519  17.899  0.00  0.00    +0.000 A 
ATOM     13  C   UNL     1      -4.853  11.482  17.286  0.00  0.00    +0.000 A 
ATOM     14  C   UNL     1      -3.672  10.967  17.862  0.00  0.00    +0.000 A 
ATOM     15  C   UNL     1      -3.087  11.488  19.053  0.00  0.00    +0.000 A 
ATOM     16  C   UNL     1      -3.814  12.506  19.687  0.00  0.00    +0.000 A 
ATOM     17  C   UNL     1      -5.018  13.009  19.112  0.00  0.00    +0.000 A 
BRANCH  12  19
ATOM     18  C   UNL     1      -7.915  13.974  18.600  0.00  0.00    +0.000 C 
ATOM     19  S   UNL     1      -6.956  13.360  17.177  0.00  0.00    +0.000 S 
ENDBRANCH  12  19
ENDBRANCH   1  15
BRANCH   8  20
ATOM     20  O   UNL     1       1.569   6.872  21.259  0.00  0.00    +0.000 OA
BRANCH  20  21
ATOM     21  C   UNL     1       2.096   5.965  20.418  0.00  0.00    +0.000 A 
ATOM     22  N   UNL     1       3.267   6.148  19.865  0.00  0.00    +0.000 NA
ATOM     23  C   UNL     1       3.845   4.951  19.446  0.00  0.00    +0.000 A 
ATOM     24  C   UNL     1       3.013   3.813  19.606  0.00  0.00    +0.000 A 
ATOM     25  S   UNL     1       1.562   4.321  20.381  0.00  0.00    +0.000 S 
BRANCH  23  26
ATOM     26  C   UNL     1       5.306   4.933  19.051  0.00  0.00    +0.000 C 
BRANCH  26  27
ATOM     27  N   UNL     1       5.587   4.343  17.722  0.00  0.00    +0.000 NA
ATOM     28  C   UNL     1       6.996   4.635  17.326  0.00  0.00    +0.000 C 
ATOM     29  C   UNL     1       7.258   6.107  16.941  0.00  0.00    +0.000 C 
ATOM     30  O   UNL     1       6.378   6.538  15.897  0.00  0.00    +0.000 OA
ATOM     31  C   UNL     1       5.006   6.340  16.269  0.00  0.00    +0.000 C 
ATOM     32  C   UNL     1       4.727   4.874  16.640  0.00  0.00    +0.000 C 
ENDBRANCH  26  27
ENDBRANCH  23  26
ENDBRANCH  20  21
ENDBRANCH   8  20
TORSDOF 6
ENDMDL
MODEL 9
REMARK VINA RESULT:      -7.8      2.833      5.178
REMARK  Name = 
REMARK  8 active torsions:
REMARK  status: ('A' for Active; 'I' for Inactive)
REMARK    1  A    between atoms: C_1  and  S_2
REMARK    2  A    between atoms: S_2  and  C_3
REMARK    3  A    between atoms: C_6  and  C_7
REMARK    4  A    between atoms: N_9  and  C_10
REMARK    5  A    between atoms: C_14  and  O_15
REMARK    6  A    between atoms: O_15  and  C_16
REMARK    7  A    between atoms: C_18  and  C_19
REMARK    8  A    between atoms: C_19  and  N_20
REMARK                            x       y       z     vdW  Elec       q    Type
REMARK                         _______ _______ _______ _____ _____    ______ ____
ROOT
ATOM      1  C   UNL     1       0.691  12.630  20.187  0.00  0.00    +0.000 C 
ATOM      2  C   UNL     1      -0.271  12.725  18.949  0.00  0.00    +0.000 C 
ATOM      3  N   UNL     1      -1.173  11.589  18.832  0.00  0.00    +0.000 NA
ATOM      4  C   UNL     1      -2.113  11.657  19.957  0.00  0.00    +0.000 C 
ATOM      5  C   UNL     1      -0.333  10.364  18.600  0.00  0.00    +0.000 C 
ATOM      6  C   UNL     1       1.042  10.241  19.433  0.00  0.00    +0.000 A 
ATOM      7  C   UNL     1       1.479   8.909  19.719  0.00  0.00    +0.000 A 
ATOM      8  C   UNL     1       0.888   8.197  20.764  0.00  0.00    +0.000 A 
ATOM      9  C   UNL     1       0.074   8.958  21.579  0.00  0.00    +0.000 A 
ATOM     10  C   UNL     1       0.222  10.395  21.538  0.00  0.00    +0.000 A 
ATOM     11  C   UNL     1       0.935  11.101  20.506  0.00  0.00    +0.000 A 
ENDROOT
BRANCH   1  15
ATOM     12  C   UNL     1       4.277  14.956  19.222  0.00  0.00    +0.000 A 
ATOM     13  C   UNL     1       3.633  14.155  18.289  0.00  0.00    +0.000 A 
ATOM     14  C   UNL     1       2.367  13.600  18.575  0.00  0.00    +0.000 A 
ATOM     15  C   UNL     1       1.696  13.774  19.822  0.00  0.00    +0.000 A 
ATOM     16  C   UNL     1       2.336  14.621  20.738  0.00  0.00    +0.000 A 
ATOM     17  C   UNL     1       3.606  15.197  20.437  0.00  0.00    +0.000 A 
BRANCH  12  19
ATOM     18  C   UNL     1       6.700  14.533  17.740  0.00  0.00    +0.000 C 
ATOM     19  S   UNL     1       5.952  15.579  19.034  0.00  0.00    +0.000 S 
ENDBRANCH  12  19
ENDBRANCH   1  15
BRANCH   8  20
ATOM     20  O   UNL     1       1.438   6.992  21.157  0.00  0.00    +0.000 OA
BRANCH  20  21
ATOM     21  C   UNL     1       1.843   6.007  20.337  0.00  0.00    +0.000 A 
ATOM     22  N   UNL     1       3.026   6.028  19.779  0.00  0.00    +0.000 NA
ATOM     23  C   UNL     1       3.446   4.758  19.386  0.00  0.00    +0.000 A 
ATOM     24  C   UNL     1       2.477   3.739  19.572  0.00  0.00    +0.000 A 
ATOM     25  S   UNL     1       1.105   4.444  20.336  0.00  0.00    +0.000 S 
BRANCH  23  26
ATOM     26  C   UNL     1       4.891   4.547  18.992  0.00  0.00    +0.000 C 
BRANCH  26  27
ATOM     27  N   UNL     1       5.492   5.648  18.203  0.00  0.00    +0.000 NA
ATOM     28  C   UNL     1       5.295   5.395  16.746  0.00  0.00    +0.000 C 
ATOM     29  C   UNL     1       6.164   4.254  16.174  0.00  0.00    +0.000 C 
ATOM     30  O   UNL     1       7.554   4.481  16.427  0.00  0.00    +0.000 OA
ATOM     31  C   UNL     1       7.798   4.658  17.830  0.00  0.00    +0.000 C 
ATOM     32  C   UNL     1       6.951   5.802  18.410  0.00  0.00    +0.000 C 
ENDBRANCH  26  27
ENDBRANCH  23  26
ENDBRANCH  20  21
ENDBRANCH   8  20
TORSDOF 6
ENDMDL
