MODEL 1
REMARK VINA RESULT:      -6.9      0.000      0.000
REMARK  Name = 
REMARK  3 active torsions:
REMARK  status: ('A' for Active; 'I' for Inactive)
REMARK    1  A    between atoms: C_2  and  C_12
REMARK    2  A    between atoms: N_3  and  C_4
REMARK    3  A    between atoms: C_4  and  N_6
REMARK                            x       y       z     vdW  Elec       q    Type
REMARK                         _______ _______ _______ _____ _____    ______ ____
ROOT
ATOM      1  O   UNL     1       3.929   6.281  17.852  0.00  0.00    +0.000 OA
ATOM      2  C   UNL     1       4.073   5.084  18.075  0.00  0.00    +0.000 C 
ATOM      3  N   UNL     1       4.866   4.211  17.332  0.00  0.00    +0.000 N 
ATOM      4  H   UNL     1       4.836   3.243  17.600  0.00  0.00    +0.000 HD
ENDROOT
BRANCH   2   5
ATOM      5  C   UNL     1       3.216   4.470  19.125  0.00  0.00    +0.000 A 
ATOM      6  C   UNL     1       3.742   3.351  19.797  0.00  0.00    +0.000 A 
ATOM      7  C   UNL     1       3.003   2.706  20.787  0.00  0.00    +0.000 A 
ATOM      8  C   UNL     1       1.738   3.175  21.102  0.00  0.00    +0.000 A 
ATOM      9  F   UNL     1       1.019   2.552  22.046  0.00  0.00    +0.000 F 
ATOM     10  C   UNL     1       1.197   4.281  20.448  0.00  0.00    +0.000 A 
ATOM     11  C   UNL     1       1.934   4.934  19.452  0.00  0.00    +0.000 A 
ENDBRANCH   2   5
BRANCH   3  12
ATOM     12  C   UNL     1       5.755   4.503  16.291  0.00  0.00    +0.000 C 
ATOM     13  S   UNL     1       5.413   4.155  14.682  0.00  0.00    +0.000 S 
BRANCH  12  14
ATOM     14  N   UNL     1       6.949   5.123  16.734  0.00  0.00    +0.000 N 
ATOM     15  C   UNL     1       7.744   4.596  17.865  0.00  0.00    +0.000 C 
ATOM     16  C   UNL     1       7.656   5.523  19.080  0.00  0.00    +0.000 C 
ATOM     17  C   UNL     1       8.063   6.949  18.713  0.00  0.00    +0.000 C 
ATOM     18  C   UNL     1       7.256   7.447  17.519  0.00  0.00    +0.000 C 
ATOM     19  C   UNL     1       7.367   6.481  16.342  0.00  0.00    +0.000 C 
ENDBRANCH  12  14
ENDBRANCH   3  12
TORSDOF 3
ENDMDL
MODEL 2
REMARK VINA RESULT:      -6.7      3.596      6.276
REMARK  Name = 
REMARK  3 active torsions:
REMARK  status: ('A' for Active; 'I' for Inactive)
REMARK    1  A    between atoms: C_2  and  C_12
REMARK    2  A    between atoms: N_3  and  C_4
REMARK    3  A    between atoms: C_4  and  N_6
REMARK                            x       y       z     vdW  Elec       q    Type
REMARK                         _______ _______ _______ _____ _____    ______ ____
ROOT
ATOM      1  O   UNL     1       5.133   4.904  19.438  0.00  0.00    +0.000 OA
ATOM      2  C   UNL     1       5.128   3.982  18.631  0.00  0.00    +0.000 C 
ATOM      3  N   UNL     1       4.828   2.652  18.920  0.00  0.00    +0.000 N 
ATOM      4  H   UNL     1       4.926   1.997  18.165  0.00  0.00    +0.000 HD
ENDROOT
BRANCH   2   5
ATOM      5  C   UNL     1       5.635   4.263  17.259  0.00  0.00    +0.000 A 
ATOM      6  C   UNL     1       6.972   4.684  17.153  0.00  0.00    +0.000 A 
ATOM      7  C   UNL     1       7.527   4.980  15.909  0.00  0.00    +0.000 A 
ATOM      8  C   UNL     1       6.743   4.860  14.773  0.00  0.00    +0.000 A 
ATOM      9  F   UNL     1       7.268   5.154  13.575  0.00  0.00    +0.000 F 
ATOM     10  C   UNL     1       5.414   4.446  14.855  0.00  0.00    +0.000 A 
ATOM     11  C   UNL     1       4.852   4.146  16.103  0.00  0.00    +0.000 A 
ENDBRANCH   2   5
BRANCH   3  12
ATOM     12  C   UNL     1       4.346   2.100  20.112  0.00  0.00    +0.000 C 
ATOM     13  S   UNL     1       5.309   1.188  21.145  0.00  0.00    +0.000 S 
BRANCH  12  14
ATOM     14  N   UNL     1       2.983   2.401  20.356  0.00  0.00    +0.000 N 
ATOM     15  C   UNL     1       1.941   2.255  19.315  0.00  0.00    +0.000 C 
ATOM     16  C   UNL     1       1.421   3.620  18.860  0.00  0.00    +0.000 C 
ATOM     17  C   UNL     1       0.928   4.443  20.049  0.00  0.00    +0.000 C 
ATOM     18  C   UNL     1       2.008   4.540  21.120  0.00  0.00    +0.000 C 
ATOM     19  C   UNL     1       2.500   3.153  21.528  0.00  0.00    +0.000 C 
ENDBRANCH  12  14
ENDBRANCH   3  12
TORSDOF 3
ENDMDL
MODEL 3
REMARK VINA RESULT:      -6.7      3.676      5.612
REMARK  Name = 
REMARK  3 active torsions:
REMARK  status: ('A' for Active; 'I' for Inactive)
REMARK    1  A    between atoms: C_2  and  C_12
REMARK    2  A    between atoms: N_3  and  C_4
REMARK    3  A    between atoms: C_4  and  N_6
REMARK                            x       y       z     vdW  Elec       q    Type
REMARK                         _______ _______ _______ _____ _____    ______ ____
ROOT
ATOM      1  O   UNL     1       3.755   5.958  19.962  0.00  0.00    +0.000 OA
ATOM      2  C   UNL     1       3.021   6.192  19.009  0.00  0.00    +0.000 C 
ATOM      3  N   UNL     1       2.886   5.393  17.874  0.00  0.00    +0.000 N 
ATOM      4  H   UNL     1       2.290   5.747  17.147  0.00  0.00    +0.000 HD
ENDROOT
BRANCH   2   5
ATOM      5  C   UNL     1       2.330   7.510  18.976  0.00  0.00    +0.000 A 
ATOM      6  C   UNL     1       1.718   7.933  20.170  0.00  0.00    +0.000 A 
ATOM      7  C   UNL     1       1.039   9.149  20.227  0.00  0.00    +0.000 A 
ATOM      8  C   UNL     1       0.969   9.940  19.092  0.00  0.00    +0.000 A 
ATOM      9  F   UNL     1       0.309  11.105  19.139  0.00  0.00    +0.000 F 
ATOM     10  C   UNL     1       1.567   9.539  17.898  0.00  0.00    +0.000 A 
ATOM     11  C   UNL     1       2.251   8.318  17.834  0.00  0.00    +0.000 A 
ENDBRANCH   2   5
BRANCH   3  12
ATOM     12  C   UNL     1       3.421   4.124  17.625  0.00  0.00    +0.000 C 
ATOM     13  S   UNL     1       4.665   3.865  16.523  0.00  0.00    +0.000 S 
BRANCH  12  14
ATOM     14  N   UNL     1       2.820   3.102  18.400  0.00  0.00    +0.000 N 
ATOM     15  C   UNL     1       1.353   2.923  18.472  0.00  0.00    +0.000 C 
ATOM     16  C   UNL     1       0.819   3.299  19.857  0.00  0.00    +0.000 C 
ATOM     17  C   UNL     1       1.543   2.521  20.954  0.00  0.00    +0.000 C 
ATOM     18  C   UNL     1       3.053   2.692  20.826  0.00  0.00    +0.000 C 
ATOM     19  C   UNL     1       3.529   2.317  19.425  0.00  0.00    +0.000 C 
ENDBRANCH  12  14
ENDBRANCH   3  12
TORSDOF 3
ENDMDL
MODEL 4
REMARK VINA RESULT:      -6.6      3.786      5.721
REMARK  Name = 
REMARK  3 active torsions:
REMARK  status: ('A' for Active; 'I' for Inactive)
REMARK    1  A    between atoms: C_2  and  C_12
REMARK    2  A    between atoms: N_3  and  C_4
REMARK    3  A    between atoms: C_4  and  N_6
REMARK                            x       y       z     vdW  Elec       q    Type
REMARK                         _______ _______ _______ _____ _____    ______ ____
ROOT
ATOM      1  O   UNL     1       2.171   6.462  17.887  0.00  0.00    +0.000 OA
ATOM      2  C   UNL     1       2.521   6.814  19.007  0.00  0.00    +0.000 C 
ATOM      3  N   UNL     1       3.410   6.128  19.833  0.00  0.00    +0.000 N 
ATOM      4  H   UNL     1       3.553   6.510  20.751  0.00  0.00    +0.000 HD
ENDROOT
BRANCH   2   5
ATOM      5  C   UNL     1       1.828   7.987  19.610  0.00  0.00    +0.000 A 
ATOM      6  C   UNL     1       1.471   7.881  20.966  0.00  0.00    +0.000 A 
ATOM      7  C   UNL     1       0.809   8.926  21.609  0.00  0.00    +0.000 A 
ATOM      8  C   UNL     1       0.500  10.073  20.895  0.00  0.00    +0.000 A 
ATOM      9  F   UNL     1      -0.145  11.076  21.506  0.00  0.00    +0.000 F 
ATOM     10  C   UNL     1       0.843  10.197  19.550  0.00  0.00    +0.000 A 
ATOM     11  C   UNL     1       1.509   9.151  18.899  0.00  0.00    +0.000 A 
ENDBRANCH   2   5
BRANCH   3  12
ATOM     12  C   UNL     1       4.187   5.002  19.541  0.00  0.00    +0.000 C 
ATOM     13  S   UNL     1       5.812   5.105  19.121  0.00  0.00    +0.000 S 
BRANCH  12  14
ATOM     14  N   UNL     1       3.470   3.785  19.648  0.00  0.00    +0.000 N 
ATOM     15  C   UNL     1       3.376   2.820  18.530  0.00  0.00    +0.000 C 
ATOM     16  C   UNL     1       1.957   2.777  17.957  0.00  0.00    +0.000 C 
ATOM     17  C   UNL     1       0.932   2.483  19.051  0.00  0.00    +0.000 C 
ATOM     18  C   UNL     1       1.083   3.467  20.206  0.00  0.00    +0.000 C 
ATOM     19  C   UNL     1       2.518   3.480  20.730  0.00  0.00    +0.000 C 
ENDBRANCH  12  14
ENDBRANCH   3  12
TORSDOF 3
ENDMDL
MODEL 5
REMARK VINA RESULT:      -6.6      3.852      5.837
REMARK  Name = 
REMARK  3 active torsions:
REMARK  status: ('A' for Active; 'I' for Inactive)
REMARK    1  A    between atoms: C_2  and  C_12
REMARK    2  A    between atoms: N_3  and  C_4
REMARK    3  A    between atoms: C_4  and  N_6
REMARK                            x       y       z     vdW  Elec       q    Type
REMARK                         _______ _______ _______ _____ _____    ______ ____
ROOT
ATOM      1  O   UNL     1       2.162   6.269  17.804  0.00  0.00    +0.000 OA
ATOM      2  C   UNL     1       2.557   6.723  18.872  0.00  0.00    +0.000 C 
ATOM      3  N   UNL     1       3.471   6.108  19.725  0.00  0.00    +0.000 N 
ATOM      4  H   UNL     1       3.652   6.573  20.597  0.00  0.00    +0.000 HD
ENDROOT
BRANCH   2   5
ATOM      5  C   UNL     1       1.896   7.955  19.386  0.00  0.00    +0.000 A 
ATOM      6  C   UNL     1       1.701   8.999  18.464  0.00  0.00    +0.000 A 
ATOM      7  C   UNL     1       1.101  10.193  18.861  0.00  0.00    +0.000 A 
ATOM      8  C   UNL     1       0.700  10.344  20.179  0.00  0.00    +0.000 A 
ATOM      9  F   UNL     1       0.132  11.493  20.568  0.00  0.00    +0.000 F 
ATOM     10  C   UNL     1       0.886   9.322  21.109  0.00  0.00    +0.000 A 
ATOM     11  C   UNL     1       1.488   8.120  20.716  0.00  0.00    +0.000 A 
ENDBRANCH   2   5
BRANCH   3  12
ATOM     12  C   UNL     1       4.228   4.950  19.513  0.00  0.00    +0.000 C 
ATOM     13  S   UNL     1       5.862   4.994  19.118  0.00  0.00    +0.000 S 
BRANCH  12  14
ATOM     14  N   UNL     1       3.483   3.757  19.677  0.00  0.00    +0.000 N 
ATOM     15  C   UNL     1       3.394   2.727  18.618  0.00  0.00    +0.000 C 
ATOM     16  C   UNL     1       1.989   2.677  18.013  0.00  0.00    +0.000 C 
ATOM     17  C   UNL     1       0.932   2.473  19.097  0.00  0.00    +0.000 C 
ATOM     18  C   UNL     1       1.076   3.524  20.193  0.00  0.00    +0.000 C 
ATOM     19  C   UNL     1       2.498   3.540  20.751  0.00  0.00    +0.000 C 
ENDBRANCH  12  14
ENDBRANCH   3  12
TORSDOF 3
ENDMDL
MODEL 6
REMARK VINA RESULT:      -6.6      3.976      6.575
REMARK  Name = 
REMARK  3 active torsions:
REMARK  status: ('A' for Active; 'I' for Inactive)
REMARK    1  A    between atoms: C_2  and  C_12
REMARK    2  A    between atoms: N_3  and  C_4
REMARK    3  A    between atoms: C_4  and  N_6
REMARK                            x       y       z     vdW  Elec       q    Type
REMARK                         _______ _______ _______ _____ _____    ______ ____
ROOT
ATOM      1  O   UNL     1       5.649   6.688  15.941  0.00  0.00    +0.000 OA
ATOM      2  C   UNL     1       5.990   5.512  15.888  0.00  0.00    +0.000 C 
ATOM      3  N   UNL     1       6.196   4.678  16.986  0.00  0.00    +0.000 N 
ATOM      4  H   UNL     1       6.533   3.753  16.786  0.00  0.00    +0.000 HD
ENDROOT
BRANCH   2   5
ATOM      5  C   UNL     1       6.369   4.962  14.557  0.00  0.00    +0.000 A 
ATOM      6  C   UNL     1       5.541   3.954  14.031  0.00  0.00    +0.000 A 
ATOM      7  C   UNL     1       5.827   3.374  12.795  0.00  0.00    +0.000 A 
ATOM      8  C   UNL     1       6.942   3.798  12.091  0.00  0.00    +0.000 A 
ATOM      9  F   UNL     1       7.227   3.236  10.908  0.00  0.00    +0.000 F 
ATOM     10  C   UNL     1       7.777   4.794  12.595  0.00  0.00    +0.000 A 
ATOM     11  C   UNL     1       7.494   5.381  13.835  0.00  0.00    +0.000 A 
ENDBRANCH   2   5
BRANCH   3  12
ATOM     12  C   UNL     1       5.940   4.928  18.338  0.00  0.00    +0.000 C 
ATOM     13  S   UNL     1       7.099   5.561  19.379  0.00  0.00    +0.000 S 
BRANCH  12  14
ATOM     14  N   UNL     1       4.616   4.606  18.725  0.00  0.00    +0.000 N 
ATOM     15  C   UNL     1       3.982   3.314  18.381  0.00  0.00    +0.000 C 
ATOM     16  C   UNL     1       2.871   3.503  17.345  0.00  0.00    +0.000 C 
ATOM     17  C   UNL     1       1.847   4.532  17.820  0.00  0.00    +0.000 C 
ATOM     18  C   UNL     1       2.535   5.836  18.206  0.00  0.00    +0.000 C 
ATOM     19  C   UNL     1       3.641   5.589  19.230  0.00  0.00    +0.000 C 
ENDBRANCH  12  14
ENDBRANCH   3  12
TORSDOF 3
ENDMDL
MODEL 7
REMARK VINA RESULT:      -6.5      3.966      6.960
REMARK  Name = 
REMARK  3 active torsions:
REMARK  status: ('A' for Active; 'I' for Inactive)
REMARK    1  A    between atoms: C_2  and  C_12
REMARK    2  A    between atoms: N_3  and  C_4
REMARK    3  A    between atoms: C_4  and  N_6
REMARK                            x       y       z     vdW  Elec       q    Type
REMARK                         _______ _______ _______ _____ _____    ______ ____
ROOT
ATOM      1  O   UNL     1       5.435   6.577  15.897  0.00  0.00    +0.000 OA
ATOM      2  C   UNL     1       5.437   5.364  15.716  0.00  0.00    +0.000 C 
ATOM      3  N   UNL     1       5.050   4.405  16.650  0.00  0.00    +0.000 N 
ATOM      4  H   UNL     1       5.164   3.445  16.376  0.00  0.00    +0.000 HD
ENDROOT
BRANCH   2   5
ATOM      5  C   UNL     1       6.048   4.855  14.457  0.00  0.00    +0.000 A 
ATOM      6  C   UNL     1       5.325   3.875  13.754  0.00  0.00    +0.000 A 
ATOM      7  C   UNL     1       5.827   3.334  12.572  0.00  0.00    +0.000 A 
ATOM      8  C   UNL     1       7.053   3.770  12.095  0.00  0.00    +0.000 A 
ATOM      9  F   UNL     1       7.545   3.245  10.964  0.00  0.00    +0.000 F 
ATOM     10  C   UNL     1       7.787   4.739  12.777  0.00  0.00    +0.000 A 
ATOM     11  C   UNL     1       7.287   5.287  13.965  0.00  0.00    +0.000 A 
ENDBRANCH   2   5
BRANCH   3  12
ATOM     12  C   UNL     1       4.461   4.589  17.905  0.00  0.00    +0.000 C 
ATOM     13  S   UNL     1       5.328   5.122  19.244  0.00  0.00    +0.000 S 
BRANCH  12  14
ATOM     14  N   UNL     1       3.075   4.295  17.922  0.00  0.00    +0.000 N 
ATOM     15  C   UNL     1       2.102   5.109  18.683  0.00  0.00    +0.000 C 
ATOM     16  C   UNL     1       1.553   4.332  19.883  0.00  0.00    +0.000 C 
ATOM     17  C   UNL     1       0.959   2.994  19.445  0.00  0.00    +0.000 C 
ATOM     18  C   UNL     1       1.972   2.199  18.629  0.00  0.00    +0.000 C 
ATOM     19  C   UNL     1       2.496   3.023  17.455  0.00  0.00    +0.000 C 
ENDBRANCH  12  14
ENDBRANCH   3  12
TORSDOF 3
ENDMDL
MODEL 8
REMARK VINA RESULT:      -6.5      3.481      5.397
REMARK  Name = 
REMARK  3 active torsions:
REMARK  status: ('A' for Active; 'I' for Inactive)
REMARK    1  A    between atoms: C_2  and  C_12
REMARK    2  A    between atoms: N_3  and  C_4
REMARK    3  A    between atoms: C_4  and  N_6
REMARK                            x       y       z     vdW  Elec       q    Type
REMARK                         _______ _______ _______ _____ _____    ______ ____
ROOT
ATOM      1  O   UNL     1       4.318   5.975  19.667  0.00  0.00    +0.000 OA
ATOM      2  C   UNL     1       3.416   6.116  18.848  0.00  0.00    +0.000 C 
ATOM      3  N   UNL     1       3.196   5.304  17.737  0.00  0.00    +0.000 N 
ATOM      4  H   UNL     1       2.452   5.581  17.121  0.00  0.00    +0.000 HD
ENDROOT
BRANCH   2   5
ATOM      5  C   UNL     1       2.577   7.342  18.949  0.00  0.00    +0.000 A 
ATOM      6  C   UNL     1       2.502   8.153  17.802  0.00  0.00    +0.000 A 
ATOM      7  C   UNL     1       1.748   9.326  17.810  0.00  0.00    +0.000 A 
ATOM      8  C   UNL     1       1.075   9.690  18.965  0.00  0.00    +0.000 A 
ATOM      9  F   UNL     1       0.358  10.822  18.982  0.00  0.00    +0.000 F 
ATOM     10  C   UNL     1       1.138   8.902  20.113  0.00  0.00    +0.000 A 
ATOM     11  C   UNL     1       1.893   7.722  20.111  0.00  0.00    +0.000 A 
ENDBRANCH   2   5
BRANCH   3  12
ATOM     12  C   UNL     1       3.832   4.108  17.384  0.00  0.00    +0.000 C 
ATOM     13  S   UNL     1       5.037   4.032  16.214  0.00  0.00    +0.000 S 
BRANCH  12  14
ATOM     14  N   UNL     1       3.365   2.990  18.117  0.00  0.00    +0.000 N 
ATOM     15  C   UNL     1       2.053   2.359  17.850  0.00  0.00    +0.000 C 
ATOM     16  C   UNL     1       1.073   2.618  18.997  0.00  0.00    +0.000 C 
ATOM     17  C   UNL     1       1.660   2.168  20.334  0.00  0.00    +0.000 C 
ATOM     18  C   UNL     1       3.028   2.802  20.559  0.00  0.00    +0.000 C 
ATOM     19  C   UNL     1       3.961   2.525  19.382  0.00  0.00    +0.000 C 
ENDBRANCH  12  14
ENDBRANCH   3  12
TORSDOF 3
ENDMDL
MODEL 9
REMARK VINA RESULT:      -6.5      3.950      6.550
REMARK  Name = 
REMARK  3 active torsions:
REMARK  status: ('A' for Active; 'I' for Inactive)
REMARK    1  A    between atoms: C_2  and  C_12
REMARK    2  A    between atoms: N_3  and  C_4
REMARK    3  A    between atoms: C_4  and  N_6
REMARK                            x       y       z     vdW  Elec       q    Type
REMARK                         _______ _______ _______ _____ _____    ______ ____
ROOT
ATOM      1  O   UNL     1       5.885   6.683  16.116  0.00  0.00    +0.000 OA
ATOM      2  C   UNL     1       6.033   5.469  16.036  0.00  0.00    +0.000 C 
ATOM      3  N   UNL     1       6.101   4.588  17.114  0.00  0.00    +0.000 N 
ATOM      4  H   UNL     1       6.286   3.625  16.893  0.00  0.00    +0.000 HD
ENDROOT
BRANCH   2   5
ATOM      5  C   UNL     1       6.320   4.896  14.692  0.00  0.00    +0.000 A 
ATOM      6  C   UNL     1       7.460   5.382  14.028  0.00  0.00    +0.000 A 
ATOM      7  C   UNL     1       7.799   4.909  12.761  0.00  0.00    +0.000 A 
ATOM      8  C   UNL     1       6.996   3.955  12.158  0.00  0.00    +0.000 A 
ATOM      9  F   UNL     1       7.312   3.505  10.935  0.00  0.00    +0.000 F 
ATOM     10  C   UNL     1       5.861   3.461  12.797  0.00  0.00    +0.000 A 
ATOM     11  C   UNL     1       5.515   3.932  14.071  0.00  0.00    +0.000 A 
ENDBRANCH   2   5
BRANCH   3  12
ATOM     12  C   UNL     1       5.887   4.845  18.473  0.00  0.00    +0.000 C 
ATOM     13  S   UNL     1       7.095   5.425  19.488  0.00  0.00    +0.000 S 
BRANCH  12  14
ATOM     14  N   UNL     1       4.559   4.579  18.889  0.00  0.00    +0.000 N 
ATOM     15  C   UNL     1       3.918   3.260  18.695  0.00  0.00    +0.000 C 
ATOM     16  C   UNL     1       2.812   3.334  17.640  0.00  0.00    +0.000 C 
ATOM     17  C   UNL     1       1.793   4.418  17.988  0.00  0.00    +0.000 C 
ATOM     18  C   UNL     1       2.489   5.754  18.223  0.00  0.00    +0.000 C 
ATOM     19  C   UNL     1       3.590   5.620  19.273  0.00  0.00    +0.000 C 
ENDBRANCH  12  14
ENDBRANCH   3  12
TORSDOF 3
ENDMDL
