MODEL 1
REMARK VINA RESULT:      -8.2      0.000      0.000
REMARK  Name = 
REMARK  10 active torsions:
REMARK  status: ('A' for Active; 'I' for Inactive)
REMARK    1  A    between atoms: C_1  and  C_2
REMARK    2  A    between atoms: C_2  and  C_3
REMARK    3  A    between atoms: C_3  and  N_4
REMARK    4  A    between atoms: N_4  and  C_5
REMARK    5  A    between atoms: N_4  and  C_15
REMARK    6  A    between atoms: C_5  and  C_6
REMARK    7  A    between atoms: C_9  and  O_10
REMARK    8  A    between atoms: O_10  and  C_11
REMARK    9  A    between atoms: C_11  and  C_12
REMARK   10  A    between atoms: C_15  and  C_16
REMARK                            x       y       z     vdW  Elec       q    Type
REMARK                         _______ _______ _______ _____ _____    ______ ____
ROOT
ATOM      1  N   UNL     1       3.303   4.186  19.552  0.00  0.00    +0.000 NA
ENDROOT
BRANCH   1   2
ATOM      2  C   UNL     1       1.876   4.166  19.151  0.00  0.00    +0.000 C 
BRANCH   2   4
ATOM      3  C   UNL     1       1.440   2.968  21.372  0.00  0.00    +0.000 C 
ATOM      4  C   UNL     1       0.922   3.293  19.980  0.00  0.00    +0.000 C 
ENDBRANCH   2   4
ENDBRANCH   1   2
BRANCH   1   5
ATOM      5  C   UNL     1       4.081   3.226  18.702  0.00  0.00    +0.000 C 
BRANCH   5   6
ATOM      6  C   UNL     1       5.022   3.846  17.677  0.00  0.00    +0.000 A 
ATOM      7  C   UNL     1       4.604   4.055  16.358  0.00  0.00    +0.000 A 
ATOM      8  C   UNL     1       5.480   4.601  15.413  0.00  0.00    +0.000 A 
ATOM      9  C   UNL     1       6.782   4.968  15.762  0.00  0.00    +0.000 A 
ATOM     10  C   UNL     1       7.206   4.789  17.077  0.00  0.00    +0.000 A 
ATOM     11  C   UNL     1       6.326   4.239  18.030  0.00  0.00    +0.000 A 
BRANCH   9  12
ATOM     12  O   UNL     1       7.530   5.464  14.731  0.00  0.00    +0.000 OA
BRANCH  12  13
ATOM     13  C   UNL     1       7.276   4.953  13.423  0.00  0.00    +0.000 C 
ATOM     14  C   UNL     1       8.173   5.706  12.454  0.00  0.00    +0.000 C 
ENDBRANCH  12  13
ENDBRANCH   9  12
ENDBRANCH   5   6
ENDBRANCH   1   5
BRANCH   1  15
ATOM     15  C   UNL     1       3.851   5.550  19.356  0.00  0.00    +0.000 C 
BRANCH  15  16
ATOM     16  C   UNL     1       2.907   6.759  19.352  0.00  0.00    +0.000 A 
ATOM     17  C   UNL     1       2.637   7.322  18.160  0.00  0.00    +0.000 A 
ATOM     18  C   UNL     1       2.032   8.670  18.134  0.00  0.00    +0.000 A 
ATOM     19  O   UNL     1       2.136   9.381  17.142  0.00  0.00    +0.000 OA
ATOM     20  C   UNL     1       1.301   9.104  19.332  0.00  0.00    +0.000 A 
ATOM     21  C   UNL     1       0.404  10.163  19.249  0.00  0.00    +0.000 A 
ATOM     22  C   UNL     1      -0.457  10.394  20.308  0.00  0.00    +0.000 A 
ATOM     23 CL   UNL     1      -1.656  11.619  20.175  0.00  0.00    +0.000 Cl
ATOM     24  C   UNL     1      -0.399   9.587  21.447  0.00  0.00    +0.000 A 
ATOM     25  C   UNL     1       0.586   8.591  21.559  0.00  0.00    +0.000 A 
ATOM     26  C   UNL     1       1.485   8.360  20.512  0.00  0.00    +0.000 A 
ATOM     27  N   UNL     1       2.390   7.284  20.530  0.00  0.00    +0.000 N 
ATOM     28  H   UNL     1       2.830   6.999  21.408  0.00  0.00    +0.000 HD
ENDBRANCH  15  16
ENDBRANCH   1  15
TORSDOF 8
ENDMDL
MODEL 2
REMARK VINA RESULT:      -7.9      1.407      1.926
REMARK  Name = 
REMARK  10 active torsions:
REMARK  status: ('A' for Active; 'I' for Inactive)
REMARK    1  A    between atoms: C_1  and  C_2
REMARK    2  A    between atoms: C_2  and  C_3
REMARK    3  A    between atoms: C_3  and  N_4
REMARK    4  A    between atoms: N_4  and  C_5
REMARK    5  A    between atoms: N_4  and  C_15
REMARK    6  A    between atoms: C_5  and  C_6
REMARK    7  A    between atoms: C_9  and  O_10
REMARK    8  A    between atoms: O_10  and  C_11
REMARK    9  A    between atoms: C_11  and  C_12
REMARK   10  A    between atoms: C_15  and  C_16
REMARK                            x       y       z     vdW  Elec       q    Type
REMARK                         _______ _______ _______ _____ _____    ______ ____
ROOT
ATOM      1  N   UNL     1       2.918   5.632  19.896  0.00  0.00    +0.000 NA
ENDROOT
BRANCH   1   2
ATOM      2  C   UNL     1       1.988   4.538  19.525  0.00  0.00    +0.000 C 
BRANCH   2   4
ATOM      3  C   UNL     1       1.654   2.851  21.423  0.00  0.00    +0.000 C 
ATOM      4  C   UNL     1       1.059   3.999  20.623  0.00  0.00    +0.000 C 
ENDBRANCH   2   4
ENDBRANCH   1   2
BRANCH   1   5
ATOM      5  C   UNL     1       4.333   5.194  19.660  0.00  0.00    +0.000 C 
BRANCH   5   6
ATOM      6  C   UNL     1       4.808   5.205  18.213  0.00  0.00    +0.000 A 
ATOM      7  C   UNL     1       5.552   6.280  17.713  0.00  0.00    +0.000 A 
ATOM      8  C   UNL     1       5.964   6.298  16.376  0.00  0.00    +0.000 A 
ATOM      9  C   UNL     1       5.664   5.241  15.513  0.00  0.00    +0.000 A 
ATOM     10  C   UNL     1       4.946   4.153  16.001  0.00  0.00    +0.000 A 
ATOM     11  C   UNL     1       4.529   4.133  17.346  0.00  0.00    +0.000 A 
BRANCH   9  12
ATOM     12  O   UNL     1       6.111   5.409  14.232  0.00  0.00    +0.000 OA
BRANCH  12  13
ATOM     13  C   UNL     1       6.980   4.412  13.698  0.00  0.00    +0.000 C 
ATOM     14  C   UNL     1       6.178   3.587  12.704  0.00  0.00    +0.000 C 
ENDBRANCH  12  13
ENDBRANCH   9  12
ENDBRANCH   5   6
ENDBRANCH   1   5
BRANCH   1  15
ATOM     15  C   UNL     1       2.640   6.822  19.056  0.00  0.00    +0.000 C 
BRANCH  15  16
ATOM     16  C   UNL     1       1.880   8.015  19.650  0.00  0.00    +0.000 A 
ATOM     17  C   UNL     1       1.534   9.004  18.806  0.00  0.00    +0.000 A 
ATOM     18  C   UNL     1       1.124  10.306  19.370  0.00  0.00    +0.000 A 
ATOM     19  O   UNL     1       1.191  11.327  18.697  0.00  0.00    +0.000 OA
ATOM     20  C   UNL     1       0.626  10.315  20.753  0.00  0.00    +0.000 A 
ATOM     21  C   UNL     1      -0.119  11.395  21.213  0.00  0.00    +0.000 A 
ATOM     22  C   UNL     1      -0.790  11.279  22.417  0.00  0.00    +0.000 A 
ATOM     23 CL   UNL     1      -1.816  12.555  22.944  0.00  0.00    +0.000 Cl
ATOM     24  C   UNL     1      -0.693  10.102  23.163  0.00  0.00    +0.000 A 
ATOM     25  C   UNL     1       0.150   9.061  22.737  0.00  0.00    +0.000 A 
ATOM     26  C   UNL     1       0.861   9.171  21.536  0.00  0.00    +0.000 A 
ATOM     27  N   UNL     1       1.603   8.098  21.009  0.00  0.00    +0.000 N 
ATOM     28  H   UNL     1       2.112   7.471  21.635  0.00  0.00    +0.000 HD
ENDBRANCH  15  16
ENDBRANCH   1  15
TORSDOF 8
ENDMDL
MODEL 3
REMARK VINA RESULT:      -7.8      1.402      1.764
REMARK  Name = 
REMARK  10 active torsions:
REMARK  status: ('A' for Active; 'I' for Inactive)
REMARK    1  A    between atoms: C_1  and  C_2
REMARK    2  A    between atoms: C_2  and  C_3
REMARK    3  A    between atoms: C_3  and  N_4
REMARK    4  A    between atoms: N_4  and  C_5
REMARK    5  A    between atoms: N_4  and  C_15
REMARK    6  A    between atoms: C_5  and  C_6
REMARK    7  A    between atoms: C_9  and  O_10
REMARK    8  A    between atoms: O_10  and  C_11
REMARK    9  A    between atoms: C_11  and  C_12
REMARK   10  A    between atoms: C_15  and  C_16
REMARK                            x       y       z     vdW  Elec       q    Type
REMARK                         _______ _______ _______ _____ _____    ______ ____
ROOT
ATOM      1  N   UNL     1       2.796   5.599  19.625  0.00  0.00    +0.000 NA
ENDROOT
BRANCH   1   2
ATOM      2  C   UNL     1       1.891   4.583  19.035  0.00  0.00    +0.000 C 
BRANCH   2   4
ATOM      3  C   UNL     1       1.872   3.588  21.395  0.00  0.00    +0.000 C 
ATOM      4  C   UNL     1       1.390   3.462  19.959  0.00  0.00    +0.000 C 
ENDBRANCH   2   4
ENDBRANCH   1   2
BRANCH   1   5
ATOM      5  C   UNL     1       4.217   5.133  19.520  0.00  0.00    +0.000 C 
BRANCH   5   6
ATOM      6  C   UNL     1       4.821   5.126  18.122  0.00  0.00    +0.000 A 
ATOM      7  C   UNL     1       4.688   4.009  17.291  0.00  0.00    +0.000 A 
ATOM      8  C   UNL     1       5.267   3.998  16.017  0.00  0.00    +0.000 A 
ATOM      9  C   UNL     1       5.973   5.102  15.534  0.00  0.00    +0.000 A 
ATOM     10  C   UNL     1       6.094   6.232  16.340  0.00  0.00    +0.000 A 
ATOM     11  C   UNL     1       5.513   6.245  17.623  0.00  0.00    +0.000 A 
BRANCH   9  12
ATOM     12  O   UNL     1       6.502   4.938  14.284  0.00  0.00    +0.000 OA
BRANCH  12  13
ATOM     13  C   UNL     1       6.109   3.782  13.546  0.00  0.00    +0.000 C 
ATOM     14  C   UNL     1       6.804   3.844  12.194  0.00  0.00    +0.000 C 
ENDBRANCH  12  13
ENDBRANCH   9  12
ENDBRANCH   5   6
ENDBRANCH   1   5
BRANCH   1  15
ATOM     15  C   UNL     1       2.655   6.875  18.883  0.00  0.00    +0.000 C 
BRANCH  15  16
ATOM     16  C   UNL     1       1.896   8.048  19.517  0.00  0.00    +0.000 A 
ATOM     17  C   UNL     1       1.505   9.040  18.697  0.00  0.00    +0.000 A 
ATOM     18  C   UNL     1       1.093  10.329  19.291  0.00  0.00    +0.000 A 
ATOM     19  O   UNL     1       1.121  11.358  18.629  0.00  0.00    +0.000 OA
ATOM     20  C   UNL     1       0.643  10.313  20.690  0.00  0.00    +0.000 A 
ATOM     21  C   UNL     1      -0.105  11.375  21.187  0.00  0.00    +0.000 A 
ATOM     22  C   UNL     1      -0.733  11.233  22.412  0.00  0.00    +0.000 A 
ATOM     23 CL   UNL     1      -1.761  12.486  22.989  0.00  0.00    +0.000 Cl
ATOM     24  C   UNL     1      -0.591  10.049  23.140  0.00  0.00    +0.000 A 
ATOM     25  C   UNL     1       0.255   9.028  22.673  0.00  0.00    +0.000 A 
ATOM     26  C   UNL     1       0.922   9.164  21.450  0.00  0.00    +0.000 A 
ATOM     27  N   UNL     1       1.664   8.110  20.885  0.00  0.00    +0.000 N 
ATOM     28  H   UNL     1       2.204   7.485  21.486  0.00  0.00    +0.000 HD
ENDBRANCH  15  16
ENDBRANCH   1  15
TORSDOF 8
ENDMDL
MODEL 4
REMARK VINA RESULT:      -7.7      1.145      1.360
REMARK  Name = 
REMARK  10 active torsions:
REMARK  status: ('A' for Active; 'I' for Inactive)
REMARK    1  A    between atoms: C_1  and  C_2
REMARK    2  A    between atoms: C_2  and  C_3
REMARK    3  A    between atoms: C_3  and  N_4
REMARK    4  A    between atoms: N_4  and  C_5
REMARK    5  A    between atoms: N_4  and  C_15
REMARK    6  A    between atoms: C_5  and  C_6
REMARK    7  A    between atoms: C_9  and  O_10
REMARK    8  A    between atoms: O_10  and  C_11
REMARK    9  A    between atoms: C_11  and  C_12
REMARK   10  A    between atoms: C_15  and  C_16
REMARK                            x       y       z     vdW  Elec       q    Type
REMARK                         _______ _______ _______ _____ _____    ______ ____
ROOT
ATOM      1  N   UNL     1       4.046   5.001  19.630  0.00  0.00    +0.000 NA
ENDROOT
BRANCH   1   2
ATOM      2  C   UNL     1       3.314   3.720  19.775  0.00  0.00    +0.000 C 
BRANCH   2   4
ATOM      3  C   UNL     1       0.868   2.989  19.981  0.00  0.00    +0.000 C 
ATOM      4  C   UNL     1       2.030   3.731  20.619  0.00  0.00    +0.000 C 
ENDBRANCH   2   4
ENDBRANCH   1   2
BRANCH   1   5
ATOM      5  C   UNL     1       5.473   4.730  19.260  0.00  0.00    +0.000 C 
BRANCH   5   6
ATOM      6  C   UNL     1       5.772   4.619  17.770  0.00  0.00    +0.000 A 
ATOM      7  C   UNL     1       5.047   3.740  16.959  0.00  0.00    +0.000 A 
ATOM      8  C   UNL     1       5.342   3.623  15.596  0.00  0.00    +0.000 A 
ATOM      9  C   UNL     1       6.350   4.390  15.007  0.00  0.00    +0.000 A 
ATOM     10  C   UNL     1       7.065   5.287  15.796  0.00  0.00    +0.000 A 
ATOM     11  C   UNL     1       6.770   5.407  17.167  0.00  0.00    +0.000 A 
BRANCH   9  12
ATOM     12  O   UNL     1       6.542   4.151  13.674  0.00  0.00    +0.000 OA
BRANCH  12  13
ATOM     13  C   UNL     1       5.404   3.783  12.897  0.00  0.00    +0.000 C 
ATOM     14  C   UNL     1       5.851   2.726  11.899  0.00  0.00    +0.000 C 
ENDBRANCH  12  13
ENDBRANCH   9  12
ENDBRANCH   5   6
ENDBRANCH   1   5
BRANCH   1  15
ATOM     15  C   UNL     1       3.418   5.808  18.556  0.00  0.00    +0.000 C 
BRANCH  15  16
ATOM     16  C   UNL     1       2.590   7.048  18.916  0.00  0.00    +0.000 A 
ATOM     17  C   UNL     1       2.316   7.913  17.923  0.00  0.00    +0.000 A 
ATOM     18  C   UNL     1       1.838   9.267  18.273  0.00  0.00    +0.000 A 
ATOM     19  O   UNL     1       1.959  10.195  17.483  0.00  0.00    +0.000 OA
ATOM     20  C   UNL     1       1.208   9.438  19.589  0.00  0.00    +0.000 A 
ATOM     21  C   UNL     1       0.408  10.550  19.833  0.00  0.00    +0.000 A 
ATOM     22  C   UNL     1      -0.375  10.572  20.973  0.00  0.00    +0.000 A 
ATOM     23 CL   UNL     1      -1.462  11.880  21.231  0.00  0.00    +0.000 Cl
ATOM     24  C   UNL     1      -0.338   9.502  21.870  0.00  0.00    +0.000 A 
ATOM     25  C   UNL     1       0.556   8.436  21.664  0.00  0.00    +0.000 A 
ATOM     26  C   UNL     1       1.378   8.409  20.532  0.00  0.00    +0.000 A 
ATOM     27  N   UNL     1       2.181   7.297  20.220  0.00  0.00    +0.000 N 
ATOM     28  H   UNL     1       2.634   6.767  20.968  0.00  0.00    +0.000 HD
ENDBRANCH  15  16
ENDBRANCH   1  15
TORSDOF 8
ENDMDL
MODEL 5
REMARK VINA RESULT:      -7.6      1.556      2.220
REMARK  Name = 
REMARK  10 active torsions:
REMARK  status: ('A' for Active; 'I' for Inactive)
REMARK    1  A    between atoms: C_1  and  C_2
REMARK    2  A    between atoms: C_2  and  C_3
REMARK    3  A    between atoms: C_3  and  N_4
REMARK    4  A    between atoms: N_4  and  C_5
REMARK    5  A    between atoms: N_4  and  C_15
REMARK    6  A    between atoms: C_5  and  C_6
REMARK    7  A    between atoms: C_9  and  O_10
REMARK    8  A    between atoms: O_10  and  C_11
REMARK    9  A    between atoms: C_11  and  C_12
REMARK   10  A    between atoms: C_15  and  C_16
REMARK                            x       y       z     vdW  Elec       q    Type
REMARK                         _______ _______ _______ _____ _____    ______ ____
ROOT
ATOM      1  N   UNL     1       2.543   5.976  19.139  0.00  0.00    +0.000 NA
ENDROOT
BRANCH   1   2
ATOM      2  C   UNL     1       2.065   4.921  18.213  0.00  0.00    +0.000 C 
BRANCH   2   4
ATOM      3  C   UNL     1       2.059   2.363  18.083  0.00  0.00    +0.000 C 
ATOM      4  C   UNL     1       1.591   3.599  18.835  0.00  0.00    +0.000 C 
ENDBRANCH   2   4
ENDBRANCH   1   2
BRANCH   1   5
ATOM      5  C   UNL     1       3.998   5.768  19.435  0.00  0.00    +0.000 C 
BRANCH   5   6
ATOM      6  C   UNL     1       4.915   5.618  18.228  0.00  0.00    +0.000 A 
ATOM      7  C   UNL     1       5.810   4.546  18.140  0.00  0.00    +0.000 A 
ATOM      8  C   UNL     1       6.669   4.426  17.041  0.00  0.00    +0.000 A 
ATOM      9  C   UNL     1       6.643   5.355  15.999  0.00  0.00    +0.000 A 
ATOM     10  C   UNL     1       5.740   6.414  16.059  0.00  0.00    +0.000 A 
ATOM     11  C   UNL     1       4.876   6.538  17.164  0.00  0.00    +0.000 A 
BRANCH   9  12
ATOM     12  O   UNL     1       7.553   5.123  15.006  0.00  0.00    +0.000 OA
BRANCH  12  13
ATOM     13  C   UNL     1       7.062   4.987  13.674  0.00  0.00    +0.000 C 
ATOM     14  C   UNL     1       6.191   3.741  13.631  0.00  0.00    +0.000 C 
ENDBRANCH  12  13
ENDBRANCH   9  12
ENDBRANCH   5   6
ENDBRANCH   1   5
BRANCH   1  15
ATOM     15  C   UNL     1       2.369   7.305  18.504  0.00  0.00    +0.000 C 
BRANCH  15  16
ATOM     16  C   UNL     1       1.680   8.437  19.276  0.00  0.00    +0.000 A 
ATOM     17  C   UNL     1       1.387   9.557  18.592  0.00  0.00    +0.000 A 
ATOM     18  C   UNL     1       1.054  10.783  19.347  0.00  0.00    +0.000 A 
ATOM     19  O   UNL     1       1.177  11.886  18.832  0.00  0.00    +0.000 OA
ATOM     20  C   UNL     1       0.563  10.614  20.722  0.00  0.00    +0.000 A 
ATOM     21  C   UNL     1      -0.118  11.654  21.345  0.00  0.00    +0.000 A 
ATOM     22  C   UNL     1      -0.790  11.398  22.528  0.00  0.00    +0.000 A 
ATOM     23 CL   UNL     1      -1.740  12.638  23.249  0.00  0.00    +0.000 Cl
ATOM     24  C   UNL     1      -0.757  10.120  23.090  0.00  0.00    +0.000 A 
ATOM     25  C   UNL     1       0.025   9.109  22.505  0.00  0.00    +0.000 A 
ATOM     26  C   UNL     1       0.735   9.356  21.325  0.00  0.00    +0.000 A 
ATOM     27  N   UNL     1       1.413   8.333  20.636  0.00  0.00    +0.000 N 
ATOM     28  H   UNL     1       1.889   7.593  21.157  0.00  0.00    +0.000 HD
ENDBRANCH  15  16
ENDBRANCH   1  15
TORSDOF 8
ENDMDL
MODEL 6
REMARK VINA RESULT:      -7.5      0.932      1.315
REMARK  Name = 
REMARK  10 active torsions:
REMARK  status: ('A' for Active; 'I' for Inactive)
REMARK    1  A    between atoms: C_1  and  C_2
REMARK    2  A    between atoms: C_2  and  C_3
REMARK    3  A    between atoms: C_3  and  N_4
REMARK    4  A    between atoms: N_4  and  C_5
REMARK    5  A    between atoms: N_4  and  C_15
REMARK    6  A    between atoms: C_5  and  C_6
REMARK    7  A    between atoms: C_9  and  O_10
REMARK    8  A    between atoms: O_10  and  C_11
REMARK    9  A    between atoms: C_11  and  C_12
REMARK   10  A    between atoms: C_15  and  C_16
REMARK                            x       y       z     vdW  Elec       q    Type
REMARK                         _______ _______ _______ _____ _____    ______ ____
ROOT
ATOM      1  N   UNL     1       3.428   4.851  20.041  0.00  0.00    +0.000 NA
ENDROOT
BRANCH   1   2
ATOM      2  C   UNL     1       2.400   3.881  20.487  0.00  0.00    +0.000 C 
BRANCH   2   4
ATOM      3  C   UNL     1       1.357   2.285  18.776  0.00  0.00    +0.000 C 
ATOM      4  C   UNL     1       1.232   3.600  19.529  0.00  0.00    +0.000 C 
ENDBRANCH   2   4
ENDBRANCH   1   2
BRANCH   1   5
ATOM      5  C   UNL     1       4.645   4.116  19.564  0.00  0.00    +0.000 C 
BRANCH   5   6
ATOM      6  C   UNL     1       5.165   4.500  18.184  0.00  0.00    +0.000 A 
ATOM      7  C   UNL     1       6.193   5.438  18.044  0.00  0.00    +0.000 A 
ATOM      8  C   UNL     1       6.650   5.806  16.773  0.00  0.00    +0.000 A 
ATOM      9  C   UNL     1       6.110   5.236  15.618  0.00  0.00    +0.000 A 
ATOM     10  C   UNL     1       5.103   4.282  15.742  0.00  0.00    +0.000 A 
ATOM     11  C   UNL     1       4.640   3.911  17.019  0.00  0.00    +0.000 A 
BRANCH   9  12
ATOM     12  O   UNL     1       6.638   5.709  14.449  0.00  0.00    +0.000 OA
BRANCH  12  13
ATOM     13  C   UNL     1       7.429   4.815  13.669  0.00  0.00    +0.000 C 
ATOM     14  C   UNL     1       8.287   5.655  12.736  0.00  0.00    +0.000 C 
ENDBRANCH  12  13
ENDBRANCH   9  12
ENDBRANCH   5   6
ENDBRANCH   1   5
BRANCH   1  15
ATOM     15  C   UNL     1       2.889   5.660  18.921  0.00  0.00    +0.000 C 
BRANCH  15  16
ATOM     16  C   UNL     1       2.256   7.029  19.203  0.00  0.00    +0.000 A 
ATOM     17  C   UNL     1       2.073   7.849  18.152  0.00  0.00    +0.000 A 
ATOM     18  C   UNL     1       1.802   9.279  18.407  0.00  0.00    +0.000 A 
ATOM     19  O   UNL     1       2.025  10.119  17.546  0.00  0.00    +0.000 OA
ATOM     20  C   UNL     1       1.246   9.634  19.720  0.00  0.00    +0.000 A 
ATOM     21  C   UNL     1       0.619  10.863  19.895  0.00  0.00    +0.000 A 
ATOM     22  C   UNL     1      -0.116  11.080  21.047  0.00  0.00    +0.000 A 
ATOM     23 CL   UNL     1      -1.000  12.545  21.227  0.00  0.00    +0.000 Cl
ATOM     24  C   UNL     1      -0.200  10.084  22.023  0.00  0.00    +0.000 A 
ATOM     25  C   UNL     1       0.528   8.890  21.880  0.00  0.00    +0.000 A 
ATOM     26  C   UNL     1       1.301   8.664  20.736  0.00  0.00    +0.000 A 
ATOM     27  N   UNL     1       1.929   7.428  20.492  0.00  0.00    +0.000 N 
ATOM     28  H   UNL     1       2.327   6.895  21.269  0.00  0.00    +0.000 HD
ENDBRANCH  15  16
ENDBRANCH   1  15
TORSDOF 8
ENDMDL
MODEL 7
REMARK VINA RESULT:      -7.5      1.686      2.304
REMARK  Name = 
REMARK  10 active torsions:
REMARK  status: ('A' for Active; 'I' for Inactive)
REMARK    1  A    between atoms: C_1  and  C_2
REMARK    2  A    between atoms: C_2  and  C_3
REMARK    3  A    between atoms: C_3  and  N_4
REMARK    4  A    between atoms: N_4  and  C_5
REMARK    5  A    between atoms: N_4  and  C_15
REMARK    6  A    between atoms: C_5  and  C_6
REMARK    7  A    between atoms: C_9  and  O_10
REMARK    8  A    between atoms: O_10  and  C_11
REMARK    9  A    between atoms: C_11  and  C_12
REMARK   10  A    between atoms: C_15  and  C_16
REMARK                            x       y       z     vdW  Elec       q    Type
REMARK                         _______ _______ _______ _____ _____    ______ ____
ROOT
ATOM      1  N   UNL     1       3.156   4.043  19.252  0.00  0.00    +0.000 NA
ENDROOT
BRANCH   1   2
ATOM      2  C   UNL     1       1.707   4.080  18.936  0.00  0.00    +0.000 C 
BRANCH   2   4
ATOM      3  C   UNL     1       1.359   2.889  21.177  0.00  0.00    +0.000 C 
ATOM      4  C   UNL     1       0.730   3.708  20.062  0.00  0.00    +0.000 C 
ENDBRANCH   2   4
ENDBRANCH   1   2
BRANCH   1   5
ATOM      5  C   UNL     1       3.944   3.868  17.990  0.00  0.00    +0.000 C 
BRANCH   5   6
ATOM      6  C   UNL     1       5.030   4.904  17.726  0.00  0.00    +0.000 A 
ATOM      7  C   UNL     1       6.176   4.959  18.528  0.00  0.00    +0.000 A 
ATOM      8  C   UNL     1       7.158   5.928  18.298  0.00  0.00    +0.000 A 
ATOM      9  C   UNL     1       7.034   6.850  17.256  0.00  0.00    +0.000 A 
ATOM     10  C   UNL     1       5.912   6.793  16.433  0.00  0.00    +0.000 A 
ATOM     11  C   UNL     1       4.921   5.819  16.663  0.00  0.00    +0.000 A 
BRANCH   9  12
ATOM     12  O   UNL     1       8.058   7.751  17.168  0.00  0.00    +0.000 OA
BRANCH  12  13
ATOM     13  C   UNL     1       7.834   9.061  17.685  0.00  0.00    +0.000 C 
ATOM     14  C   UNL     1       8.903   9.331  18.733  0.00  0.00    +0.000 C 
ENDBRANCH  12  13
ENDBRANCH   9  12
ENDBRANCH   5   6
ENDBRANCH   1   5
BRANCH   1  15
ATOM     15  C   UNL     1       3.553   5.321  19.891  0.00  0.00    +0.000 C 
BRANCH  15  16
ATOM     16  C   UNL     1       2.679   6.569  19.711  0.00  0.00    +0.000 A 
ATOM     17  C   UNL     1       2.517   7.029  18.457  0.00  0.00    +0.000 A 
ATOM     18  C   UNL     1       1.992   8.397  18.266  0.00  0.00    +0.000 A 
ATOM     19  O   UNL     1       2.198   9.005  17.223  0.00  0.00    +0.000 OA
ATOM     20  C   UNL     1       1.210   8.978  19.367  0.00  0.00    +0.000 A 
ATOM     21  C   UNL     1       0.380  10.067  19.125  0.00  0.00    +0.000 A 
ATOM     22  C   UNL     1      -0.532  10.440  20.096  0.00  0.00    +0.000 A 
ATOM     23 CL   UNL     1      -1.651  11.704  19.770  0.00  0.00    +0.000 Cl
ATOM     24  C   UNL     1      -0.592   9.743  21.306  0.00  0.00    +0.000 A 
ATOM     25  C   UNL     1       0.327   8.714  21.577  0.00  0.00    +0.000 A 
ATOM     26  C   UNL     1       1.276   8.342  20.619  0.00  0.00    +0.000 A 
ATOM     27  N   UNL     1       2.118   7.228  20.797  0.00  0.00    +0.000 N 
ATOM     28  H   UNL     1       2.484   7.007  21.726  0.00  0.00    +0.000 HD
ENDBRANCH  15  16
ENDBRANCH   1  15
TORSDOF 8
ENDMDL
MODEL 8
REMARK VINA RESULT:      -7.5      3.092      7.422
REMARK  Name = 
REMARK  10 active torsions:
REMARK  status: ('A' for Active; 'I' for Inactive)
REMARK    1  A    between atoms: C_1  and  C_2
REMARK    2  A    between atoms: C_2  and  C_3
REMARK    3  A    between atoms: C_3  and  N_4
REMARK    4  A    between atoms: N_4  and  C_5
REMARK    5  A    between atoms: N_4  and  C_15
REMARK    6  A    between atoms: C_5  and  C_6
REMARK    7  A    between atoms: C_9  and  O_10
REMARK    8  A    between atoms: O_10  and  C_11
REMARK    9  A    between atoms: C_11  and  C_12
REMARK   10  A    between atoms: C_15  and  C_16
REMARK                            x       y       z     vdW  Elec       q    Type
REMARK                         _______ _______ _______ _____ _____    ______ ____
ROOT
ATOM      1  N   UNL     1       3.188   4.390  19.700  0.00  0.00    +0.000 NA
ENDROOT
BRANCH   1   2
ATOM      2  C   UNL     1       2.924   3.012  20.180  0.00  0.00    +0.000 C 
BRANCH   2   4
ATOM      3  C   UNL     1       1.216   2.938  18.273  0.00  0.00    +0.000 C 
ATOM      4  C   UNL     1       1.880   2.185  19.415  0.00  0.00    +0.000 C 
ENDBRANCH   2   4
ENDBRANCH   1   2
BRANCH   1   5
ATOM      5  C   UNL     1       2.612   5.382  20.666  0.00  0.00    +0.000 C 
BRANCH   5   6
ATOM      6  C   UNL     1       2.174   6.717  20.078  0.00  0.00    +0.000 A 
ATOM      7  C   UNL     1       2.431   7.027  18.737  0.00  0.00    +0.000 A 
ATOM      8  C   UNL     1       2.049   8.265  18.208  0.00  0.00    +0.000 A 
ATOM      9  C   UNL     1       1.388   9.213  18.993  0.00  0.00    +0.000 A 
ATOM     10  C   UNL     1       1.104   8.911  20.323  0.00  0.00    +0.000 A 
ATOM     11  C   UNL     1       1.487   7.666  20.857  0.00  0.00    +0.000 A 
BRANCH   9  12
ATOM     12  O   UNL     1       1.100  10.384  18.349  0.00  0.00    +0.000 OA
BRANCH  12  13
ATOM     13  C   UNL     1      -0.151  11.007  18.635  0.00  0.00    +0.000 C 
ATOM     14  C   UNL     1      -1.233  10.217  17.914  0.00  0.00    +0.000 C 
ENDBRANCH  12  13
ENDBRANCH   9  12
ENDBRANCH   5   6
ENDBRANCH   1   5
BRANCH   1  15
ATOM     15  C   UNL     1       4.651   4.608  19.606  0.00  0.00    +0.000 C 
BRANCH  15  16
ATOM     16  C   UNL     1       5.309   4.800  18.233  0.00  0.00    +0.000 A 
ATOM     17  C   UNL     1       6.480   5.462  18.201  0.00  0.00    +0.000 A 
ATOM     18  C   UNL     1       6.969   5.973  16.903  0.00  0.00    +0.000 A 
ATOM     19  O   UNL     1       7.774   6.894  16.859  0.00  0.00    +0.000 OA
ATOM     20  C   UNL     1       6.461   5.321  15.688  0.00  0.00    +0.000 A 
ATOM     21  C   UNL     1       7.143   5.475  14.485  0.00  0.00    +0.000 A 
ATOM     22  C   UNL     1       6.805   4.661  13.418  0.00  0.00    +0.000 A 
ATOM     23 CL   UNL     1       7.716   4.750  11.962  0.00  0.00    +0.000 Cl
ATOM     24  C   UNL     1       5.779   3.723  13.549  0.00  0.00    +0.000 A 
ATOM     25  C   UNL     1       5.029   3.655  14.736  0.00  0.00    +0.000 A 
ATOM     26  C   UNL     1       5.335   4.489  15.817  0.00  0.00    +0.000 A 
ATOM     27  N   UNL     1       4.701   4.355  17.066  0.00  0.00    +0.000 N 
ATOM     28  H   UNL     1       3.710   4.108  17.113  0.00  0.00    +0.000 HD
ENDBRANCH  15  16
ENDBRANCH   1  15
TORSDOF 8
ENDMDL
MODEL 9
REMARK VINA RESULT:      -7.4      2.482      3.279
REMARK  Name = 
REMARK  10 active torsions:
REMARK  status: ('A' for Active; 'I' for Inactive)
REMARK    1  A    between atoms: C_1  and  C_2
REMARK    2  A    between atoms: C_2  and  C_3
REMARK    3  A    between atoms: C_3  and  N_4
REMARK    4  A    between atoms: N_4  and  C_5
REMARK    5  A    between atoms: N_4  and  C_15
REMARK    6  A    between atoms: C_5  and  C_6
REMARK    7  A    between atoms: C_9  and  O_10
REMARK    8  A    between atoms: O_10  and  C_11
REMARK    9  A    between atoms: C_11  and  C_12
REMARK   10  A    between atoms: C_15  and  C_16
REMARK                            x       y       z     vdW  Elec       q    Type
REMARK                         _______ _______ _______ _____ _____    ______ ____
ROOT
ATOM      1  N   UNL     1       3.857   4.189  19.559  0.00  0.00    +0.000 NA
ENDROOT
BRANCH   1   2
ATOM      2  C   UNL     1       3.487   2.893  20.178  0.00  0.00    +0.000 C 
BRANCH   2   4
ATOM      3  C   UNL     1       1.424   2.710  21.686  0.00  0.00    +0.000 C 
ATOM      4  C   UNL     1       1.990   2.563  20.282  0.00  0.00    +0.000 C 
ENDBRANCH   2   4
ENDBRANCH   1   2
BRANCH   1   5
ATOM      5  C   UNL     1       4.921   3.970  18.526  0.00  0.00    +0.000 C 
BRANCH   5   6
ATOM      6  C   UNL     1       5.766   5.185  18.164  0.00  0.00    +0.000 A 
ATOM      7  C   UNL     1       6.986   5.425  18.807  0.00  0.00    +0.000 A 
ATOM      8  C   UNL     1       7.746   6.556  18.489  0.00  0.00    +0.000 A 
ATOM      9  C   UNL     1       7.322   7.461  17.513  0.00  0.00    +0.000 A 
ATOM     10  C   UNL     1       6.122   7.224  16.847  0.00  0.00    +0.000 A 
ATOM     11  C   UNL     1       5.355   6.087  17.165  0.00  0.00    +0.000 A 
BRANCH   9  12
ATOM     12  O   UNL     1       8.154   8.529  17.328  0.00  0.00    +0.000 OA
BRANCH  12  13
ATOM     13  C   UNL     1       8.677   9.171  18.489  0.00  0.00    +0.000 C 
ATOM     14  C   UNL     1       8.891  10.637  18.146  0.00  0.00    +0.000 C 
ENDBRANCH  12  13
ENDBRANCH   9  12
ENDBRANCH   5   6
ENDBRANCH   1   5
BRANCH   1  15
ATOM     15  C   UNL     1       2.666   4.779  18.902  0.00  0.00    +0.000 C 
BRANCH  15  16
ATOM     16  C   UNL     1       2.250   6.219  19.227  0.00  0.00    +0.000 A 
ATOM     17  C   UNL     1       1.954   6.499  20.509  0.00  0.00    +0.000 A 
ATOM     18  C   UNL     1       1.224   7.747  20.813  0.00  0.00    +0.000 A 
ATOM     19  O   UNL     1       0.589   7.861  21.853  0.00  0.00    +0.000 OA
ATOM     20  C   UNL     1       1.309   8.833  19.826  0.00  0.00    +0.000 A 
ATOM     21  C   UNL     1       0.986  10.133  20.200  0.00  0.00    +0.000 A 
ATOM     22  C   UNL     1       1.309  11.174  19.347  0.00  0.00    +0.000 A 
ATOM     23 CL   UNL     1       1.031  12.797  19.844  0.00  0.00    +0.000 Cl
ATOM     24  C   UNL     1       1.927  10.909  18.123  0.00  0.00    +0.000 A 
ATOM     25  C   UNL     1       2.148   9.583  17.713  0.00  0.00    +0.000 A 
ATOM     26  C   UNL     1       1.801   8.516  18.548  0.00  0.00    +0.000 A 
ATOM     27  N   UNL     1       2.134   7.185  18.234  0.00  0.00    +0.000 N 
ATOM     28  H   UNL     1       2.104   6.865  17.264  0.00  0.00    +0.000 HD
ENDBRANCH  15  16
ENDBRANCH   1  15
TORSDOF 8
ENDMDL
