MODEL 1
REMARK VINA RESULT:      -8.9      0.000      0.000
REMARK  Name = 
REMARK  7 active torsions:
REMARK  status: ('A' for Active; 'I' for Inactive)
REMARK    1  A    between atoms: C_1  and  C_2
REMARK    2  A    between atoms: C_6  and  C_7
REMARK    3  A    between atoms: C_7  and  C_8
REMARK    4  A    between atoms: N_12  and  C_13
REMARK    5  A    between atoms: C_13  and  C_14
REMARK    6  A    between atoms: C_16  and  C_17
REMARK    7  A    between atoms: C_17  and  O_19
REMARK                            x       y       z     vdW  Elec       q    Type
REMARK                         _______ _______ _______ _____ _____    ______ ____
ROOT
ATOM      1  C   UNL     1       1.597   6.877  19.494  0.00  0.00    +0.000 C 
ENDROOT
BRANCH   1   2
ATOM      2  C   UNL     1       2.495   5.903  18.748  0.00  0.00    +0.000 A 
ATOM      3  C   UNL     1       3.597   6.527  18.026  0.00  0.00    +0.000 A 
ATOM      4  C   UNL     1       4.418   5.838  17.220  0.00  0.00    +0.000 A 
ATOM      5  C   UNL     1       4.229   4.371  17.112  0.00  0.00    +0.000 A 
ATOM      6  O   UNL     1       4.965   3.742  16.345  0.00  0.00    +0.000 OA
ATOM      7  N   UNL     1       3.228   3.798  17.900  0.00  0.00    +0.000 N 
ATOM      8  C   UNL     1       3.059   2.415  17.889  0.00  0.00    +0.000 A 
ATOM      9  C   UNL     1       2.115   1.767  18.585  0.00  0.00    +0.000 A 
ATOM     10  C   UNL     1       1.189   2.513  19.385  0.00  0.00    +0.000 A 
ATOM     11  C   UNL     1       1.300   3.846  19.436  0.00  0.00    +0.000 A 
ATOM     12  C   UNL     1       2.352   4.556  18.703  0.00  0.00    +0.000 A 
BRANCH   4  13
ATOM     13  C   UNL     1       5.464   6.577  16.474  0.00  0.00    +0.000 C 
ATOM     14  O   UNL     1       6.324   7.254  17.017  0.00  0.00    +0.000 OA
BRANCH  13  15
ATOM     15  O   UNL     1       5.394   6.463  15.130  0.00  0.00    +0.000 OA
ATOM     16  H   UNL     1       4.486   6.292  14.782  0.00  0.00    +0.000 HD
ENDBRANCH  13  15
ENDBRANCH   4  13
ENDBRANCH   1   2
BRANCH   1  20
ATOM     17  C   UNL     1       0.094  10.265  18.735  0.00  0.00    +0.000 C 
ATOM     18  C   UNL     1       0.924   9.415  17.737  0.00  0.00    +0.000 C 
ATOM     19  C   UNL     1       2.266   8.959  18.322  0.00  0.00    +0.000 C 
ATOM     20  N   UNL     1       2.150   8.242  19.597  0.00  0.00    +0.000 NA
ATOM     21  C   UNL     1       1.417   9.050  20.576  0.00  0.00    +0.000 C 
ATOM     22  C   UNL     1       0.037   9.480  20.079  0.00  0.00    +0.000 C 
BRANCH  17  28
ATOM     23  C   UNL     1      -3.290   9.909  15.046  0.00  0.00    +0.000 C 
ATOM     24  C   UNL     1      -2.990  10.366  16.442  0.00  0.00    +0.000 A 
ATOM     25  C   UNL     1      -3.857  11.197  17.150  0.00  0.00    +0.000 A 
ATOM     26  C   UNL     1      -3.511  11.641  18.426  0.00  0.00    +0.000 A 
ATOM     27  C   UNL     1      -2.268  11.314  18.978  0.00  0.00    +0.000 A 
ATOM     28  C   UNL     1      -1.350  10.531  18.262  0.00  0.00    +0.000 A 
ATOM     29  C   UNL     1      -1.774  10.002  17.026  0.00  0.00    +0.000 A 
ENDBRANCH  17  28
BRANCH  17  30
ATOM     30  C   UNL     1       0.775  11.567  18.943  0.00  0.00    +0.000 C 
ATOM     31  N   UNL     1       1.313  12.590  19.078  0.00  0.00    +0.000 NA
ENDBRANCH  17  30
ENDBRANCH   1  20
TORSDOF 6
ENDMDL
MODEL 2
REMARK VINA RESULT:      -8.8      2.013      3.391
REMARK  Name = 
REMARK  7 active torsions:
REMARK  status: ('A' for Active; 'I' for Inactive)
REMARK    1  A    between atoms: C_1  and  C_2
REMARK    2  A    between atoms: C_6  and  C_7
REMARK    3  A    between atoms: C_7  and  C_8
REMARK    4  A    between atoms: N_12  and  C_13
REMARK    5  A    between atoms: C_13  and  C_14
REMARK    6  A    between atoms: C_16  and  C_17
REMARK    7  A    between atoms: C_17  and  O_19
REMARK                            x       y       z     vdW  Elec       q    Type
REMARK                         _______ _______ _______ _____ _____    ______ ____
ROOT
ATOM      1  C   UNL     1       1.844   6.981  18.394  0.00  0.00    +0.000 C 
ENDROOT
BRANCH   1   2
ATOM      2  C   UNL     1       2.739   5.783  18.670  0.00  0.00    +0.000 A 
ATOM      3  C   UNL     1       2.181   4.813  19.604  0.00  0.00    +0.000 A 
ATOM      4  C   UNL     1       2.876   3.759  20.054  0.00  0.00    +0.000 A 
ATOM      5  C   UNL     1       4.245   3.542  19.528  0.00  0.00    +0.000 A 
ATOM      6  O   UNL     1       4.897   2.589  19.968  0.00  0.00    +0.000 OA
ATOM      7  N   UNL     1       4.704   4.437  18.557  0.00  0.00    +0.000 N 
ATOM      8  C   UNL     1       5.956   4.234  17.979  0.00  0.00    +0.000 A 
ATOM      9  C   UNL     1       6.499   5.044  17.061  0.00  0.00    +0.000 A 
ATOM     10  C   UNL     1       5.787   6.214  16.638  0.00  0.00    +0.000 A 
ATOM     11  C   UNL     1       4.579   6.463  17.158  0.00  0.00    +0.000 A 
ATOM     12  C   UNL     1       3.966   5.562  18.139  0.00  0.00    +0.000 A 
BRANCH   4  13
ATOM     13  C   UNL     1       2.244   2.870  21.058  0.00  0.00    +0.000 C 
ATOM     14  O   UNL     1       1.049   2.616  21.073  0.00  0.00    +0.000 OA
BRANCH  13  15
ATOM     15  O   UNL     1       3.089   2.360  21.980  0.00  0.00    +0.000 OA
ATOM     16  H   UNL     1       4.043   2.394  21.723  0.00  0.00    +0.000 HD
ENDBRANCH  13  15
ENDBRANCH   4  13
ENDBRANCH   1   2
BRANCH   1  20
ATOM     17  C   UNL     1       0.094  10.293  18.924  0.00  0.00    +0.000 C 
ATOM     18  C   UNL     1       1.048   9.968  17.745  0.00  0.00    +0.000 C 
ATOM     19  C   UNL     1       2.390   9.394  18.212  0.00  0.00    +0.000 C 
ATOM     20  N   UNL     1       2.268   8.216  19.080  0.00  0.00    +0.000 NA
ATOM     21  C   UNL     1       1.416   8.516  20.233  0.00  0.00    +0.000 C 
ATOM     22  C   UNL     1       0.033   9.030  19.834  0.00  0.00    +0.000 C 
BRANCH  17  28
ATOM     23  C   UNL     1      -3.369  10.134  15.295  0.00  0.00    +0.000 C 
ATOM     24  C   UNL     1      -3.018  10.574  16.684  0.00  0.00    +0.000 A 
ATOM     25  C   UNL     1      -3.822  11.455  17.405  0.00  0.00    +0.000 A 
ATOM     26  C   UNL     1      -3.428  11.878  18.675  0.00  0.00    +0.000 A 
ATOM     27  C   UNL     1      -2.198  11.479  19.206  0.00  0.00    +0.000 A 
ATOM     28  C   UNL     1      -1.340  10.643  18.476  0.00  0.00    +0.000 A 
ATOM     29  C   UNL     1      -1.816  10.138  17.248  0.00  0.00    +0.000 A 
ENDBRANCH  17  28
BRANCH  17  30
ATOM     30  C   UNL     1       0.647  11.437  19.692  0.00  0.00    +0.000 C 
ATOM     31  N   UNL     1       1.093  12.343  20.270  0.00  0.00    +0.000 NA
ENDBRANCH  17  30
ENDBRANCH   1  20
TORSDOF 6
ENDMDL
MODEL 3
REMARK VINA RESULT:      -8.8      1.059      1.186
REMARK  Name = 
REMARK  7 active torsions:
REMARK  status: ('A' for Active; 'I' for Inactive)
REMARK    1  A    between atoms: C_1  and  C_2
REMARK    2  A    between atoms: C_6  and  C_7
REMARK    3  A    between atoms: C_7  and  C_8
REMARK    4  A    between atoms: N_12  and  C_13
REMARK    5  A    between atoms: C_13  and  C_14
REMARK    6  A    between atoms: C_16  and  C_17
REMARK    7  A    between atoms: C_17  and  O_19
REMARK                            x       y       z     vdW  Elec       q    Type
REMARK                         _______ _______ _______ _____ _____    ______ ____
ROOT
ATOM      1  C   UNL     1       1.490   7.262  19.547  0.00  0.00    +0.000 C 
ENDROOT
BRANCH   1   2
ATOM      2  C   UNL     1       2.627   6.315  19.197  0.00  0.00    +0.000 A 
ATOM      3  C   UNL     1       3.541   6.817  18.179  0.00  0.00    +0.000 A 
ATOM      4  C   UNL     1       4.530   6.073  17.662  0.00  0.00    +0.000 A 
ATOM      5  C   UNL     1       4.734   4.706  18.198  0.00  0.00    +0.000 A 
ATOM      6  O   UNL     1       5.624   4.009  17.699  0.00  0.00    +0.000 OA
ATOM      7  N   UNL     1       3.901   4.301  19.245  0.00  0.00    +0.000 N 
ATOM      8  C   UNL     1       4.101   3.052  19.831  0.00  0.00    +0.000 A 
ATOM      9  C   UNL     1       3.345   2.557  20.820  0.00  0.00    +0.000 A 
ATOM     10  C   UNL     1       2.240   3.323  21.318  0.00  0.00    +0.000 A 
ATOM     11  C   UNL     1       1.998   4.531  20.794  0.00  0.00    +0.000 A 
ATOM     12  C   UNL     1       2.842   5.090  19.734  0.00  0.00    +0.000 A 
BRANCH   4  13
ATOM     13  C   UNL     1       5.360   6.651  16.580  0.00  0.00    +0.000 C 
ATOM     14  O   UNL     1       4.928   6.915  15.468  0.00  0.00    +0.000 OA
BRANCH  13  15
ATOM     15  O   UNL     1       6.655   6.861  16.905  0.00  0.00    +0.000 OA
ATOM     16  H   UNL     1       6.979   7.775  16.720  0.00  0.00    +0.000 HD
ENDBRANCH  13  15
ENDBRANCH   4  13
ENDBRANCH   1   2
BRANCH   1  20
ATOM     17  C   UNL     1      -0.250  10.515  18.707  0.00  0.00    +0.000 C 
ATOM     18  C   UNL     1       0.724   9.758  17.767  0.00  0.00    +0.000 C 
ATOM     19  C   UNL     1       2.054   9.414  18.447  0.00  0.00    +0.000 C 
ATOM     20  N   UNL     1       1.909   8.669  19.704  0.00  0.00    +0.000 NA
ATOM     21  C   UNL     1       1.037   9.393  20.631  0.00  0.00    +0.000 C 
ATOM     22  C   UNL     1      -0.335   9.708  20.037  0.00  0.00    +0.000 C 
BRANCH  17  28
ATOM     23  C   UNL     1      -3.304   9.933  14.768  0.00  0.00    +0.000 C 
ATOM     24  C   UNL     1      -3.152  10.386  16.189  0.00  0.00    +0.000 A 
ATOM     25  C   UNL     1      -4.141  11.120  16.840  0.00  0.00    +0.000 A 
ATOM     26  C   UNL     1      -3.932  11.567  18.146  0.00  0.00    +0.000 A 
ATOM     27  C   UNL     1      -2.710  11.342  18.785  0.00  0.00    +0.000 A 
ATOM     28  C   UNL     1      -1.673  10.660  18.130  0.00  0.00    +0.000 A 
ATOM     29  C   UNL     1      -1.954  10.120  16.858  0.00  0.00    +0.000 A 
ENDBRANCH  17  28
BRANCH  17  30
ATOM     30  C   UNL     1       0.295  11.870  18.977  0.00  0.00    +0.000 C 
ATOM     31  N   UNL     1       0.720  12.937  19.161  0.00  0.00    +0.000 NA
ENDBRANCH  17  30
ENDBRANCH   1  20
TORSDOF 6
ENDMDL
MODEL 4
REMARK VINA RESULT:      -8.6      0.366      1.310
REMARK  Name = 
REMARK  7 active torsions:
REMARK  status: ('A' for Active; 'I' for Inactive)
REMARK    1  A    between atoms: C_1  and  C_2
REMARK    2  A    between atoms: C_6  and  C_7
REMARK    3  A    between atoms: C_7  and  C_8
REMARK    4  A    between atoms: N_12  and  C_13
REMARK    5  A    between atoms: C_13  and  C_14
REMARK    6  A    between atoms: C_16  and  C_17
REMARK    7  A    between atoms: C_17  and  O_19
REMARK                            x       y       z     vdW  Elec       q    Type
REMARK                         _______ _______ _______ _____ _____    ______ ____
ROOT
ATOM      1  C   UNL     1       1.502   6.883  19.630  0.00  0.00    +0.000 C 
ENDROOT
BRANCH   1   2
ATOM      2  C   UNL     1       2.405   5.922  18.874  0.00  0.00    +0.000 A 
ATOM      3  C   UNL     1       3.512   6.559  18.171  0.00  0.00    +0.000 A 
ATOM      4  C   UNL     1       4.338   5.884  17.358  0.00  0.00    +0.000 A 
ATOM      5  C   UNL     1       4.149   4.419  17.223  0.00  0.00    +0.000 A 
ATOM      6  O   UNL     1       4.891   3.804  16.449  0.00  0.00    +0.000 OA
ATOM      7  N   UNL     1       3.142   3.832  17.993  0.00  0.00    +0.000 N 
ATOM      8  C   UNL     1       2.973   2.450  17.956  0.00  0.00    +0.000 A 
ATOM      9  C   UNL     1       2.024   1.790  18.634  0.00  0.00    +0.000 A 
ATOM     10  C   UNL     1       1.093   2.522  19.441  0.00  0.00    +0.000 A 
ATOM     11  C   UNL     1       1.204   3.854  19.517  0.00  0.00    +0.000 A 
ATOM     12  C   UNL     1       2.261   4.577  18.803  0.00  0.00    +0.000 A 
BRANCH   4  13
ATOM     13  C   UNL     1       5.389   6.636  16.633  0.00  0.00    +0.000 C 
ATOM     14  O   UNL     1       6.310   7.211  17.192  0.00  0.00    +0.000 OA
BRANCH  13  15
ATOM     15  O   UNL     1       5.251   6.656  15.289  0.00  0.00    +0.000 OA
ATOM     16  H   UNL     1       4.315   6.649  14.975  0.00  0.00    +0.000 HD
ENDBRANCH  13  15
ENDBRANCH   4  13
ENDBRANCH   1   2
BRANCH   1  20
ATOM     17  C   UNL     1       0.050  10.272  18.782  0.00  0.00    +0.000 C 
ATOM     18  C   UNL     1       0.929   9.416  17.832  0.00  0.00    +0.000 C 
ATOM     19  C   UNL     1       2.236   8.960  18.488  0.00  0.00    +0.000 C 
ATOM     20  N   UNL     1       2.052   8.247  19.758  0.00  0.00    +0.000 NA
ATOM     21  C   UNL     1       1.271   9.060  20.694  0.00  0.00    +0.000 C 
ATOM     22  C   UNL     1      -0.080   9.492  20.124  0.00  0.00    +0.000 C 
BRANCH  17  28
ATOM     23  C   UNL     1      -4.440  12.399  19.495  0.00  0.00    +0.000 C 
ATOM     24  C   UNL     1      -3.565  11.571  18.604  0.00  0.00    +0.000 A 
ATOM     25  C   UNL     1      -4.072  10.880  17.505  0.00  0.00    +0.000 A 
ATOM     26  C   UNL     1      -3.230  10.079  16.735  0.00  0.00    +0.000 A 
ATOM     27  C   UNL     1      -1.890   9.906  17.095  0.00  0.00    +0.000 A 
ATOM     28  C   UNL     1      -1.367  10.540  18.233  0.00  0.00    +0.000 A 
ATOM     29  C   UNL     1      -2.211  11.434  18.923  0.00  0.00    +0.000 A 
ENDBRANCH  17  28
BRANCH  17  30
ATOM     30  C   UNL     1       0.723  11.574  19.021  0.00  0.00    +0.000 C 
ATOM     31  N   UNL     1       1.265  12.582  19.229  0.00  0.00    +0.000 NA
ENDBRANCH  17  30
ENDBRANCH   1  20
TORSDOF 6
ENDMDL
MODEL 5
REMARK VINA RESULT:      -8.5      2.740      4.907
REMARK  Name = 
REMARK  7 active torsions:
REMARK  status: ('A' for Active; 'I' for Inactive)
REMARK    1  A    between atoms: C_1  and  C_2
REMARK    2  A    between atoms: C_6  and  C_7
REMARK    3  A    between atoms: C_7  and  C_8
REMARK    4  A    between atoms: N_12  and  C_13
REMARK    5  A    between atoms: C_13  and  C_14
REMARK    6  A    between atoms: C_16  and  C_17
REMARK    7  A    between atoms: C_17  and  O_19
REMARK                            x       y       z     vdW  Elec       q    Type
REMARK                         _______ _______ _______ _____ _____    ______ ____
ROOT
ATOM      1  C   UNL     1       2.368   8.087  19.760  0.00  0.00    +0.000 C 
ENDROOT
BRANCH   1   2
ATOM      2  C   UNL     1       2.656   6.642  19.388  0.00  0.00    +0.000 A 
ATOM      3  C   UNL     1       2.013   5.656  20.248  0.00  0.00    +0.000 A 
ATOM      4  C   UNL     1       2.248   4.340  20.143  0.00  0.00    +0.000 A 
ATOM      5  C   UNL     1       3.152   3.871  19.065  0.00  0.00    +0.000 A 
ATOM      6  O   UNL     1       3.393   2.661  18.989  0.00  0.00    +0.000 OA
ATOM      7  N   UNL     1       3.666   4.839  18.198  0.00  0.00    +0.000 N 
ATOM      8  C   UNL     1       4.462   4.441  17.126  0.00  0.00    +0.000 A 
ATOM      9  C   UNL     1       5.025   5.287  16.253  0.00  0.00    +0.000 A 
ATOM     10  C   UNL     1       4.836   6.699  16.413  0.00  0.00    +0.000 A 
ATOM     11  C   UNL     1       4.081   7.143  17.425  0.00  0.00    +0.000 A 
ATOM     12  C   UNL     1       3.436   6.219  18.364  0.00  0.00    +0.000 A 
BRANCH   4  13
ATOM     13  C   UNL     1       1.600   3.425  21.112  0.00  0.00    +0.000 C 
ATOM     14  O   UNL     1       2.086   3.141  22.196  0.00  0.00    +0.000 OA
BRANCH  13  15
ATOM     15  O   UNL     1       0.422   2.905  20.705  0.00  0.00    +0.000 OA
ATOM     16  H   UNL     1       0.111   2.133  21.237  0.00  0.00    +0.000 HD
ENDBRANCH  13  15
ENDBRANCH   4  13
ENDBRANCH   1   2
BRANCH   1  20
ATOM     17  C   UNL     1       1.073  11.603  19.236  0.00  0.00    +0.000 C 
ATOM     18  C   UNL     1       0.853  10.754  20.516  0.00  0.00    +0.000 C 
ATOM     19  C   UNL     1       0.288   9.362  20.212  0.00  0.00    +0.000 C 
ATOM     20  N   UNL     1       1.080   8.593  19.245  0.00  0.00    +0.000 NA
ATOM     21  C   UNL     1       1.255   9.353  18.004  0.00  0.00    +0.000 C 
ATOM     22  C   UNL     1       1.880  10.728  18.231  0.00  0.00    +0.000 C 
BRANCH  17  28
ATOM     23  C   UNL     1       3.594  15.482  17.290  0.00  0.00    +0.000 C 
ATOM     24  C   UNL     1       3.105  14.789  18.526  0.00  0.00    +0.000 A 
ATOM     25  C   UNL     1       3.550  15.144  19.797  0.00  0.00    +0.000 A 
ATOM     26  C   UNL     1       3.108  14.436  20.915  0.00  0.00    +0.000 A 
ATOM     27  C   UNL     1       2.272  13.325  20.765  0.00  0.00    +0.000 A 
ATOM     28  C   UNL     1       1.859  12.906  19.491  0.00  0.00    +0.000 A 
ATOM     29  C   UNL     1       2.226  13.710  18.393  0.00  0.00    +0.000 A 
ENDBRANCH  17  28
BRANCH  17  30
ATOM     30  C   UNL     1      -0.248  11.949  18.653  0.00  0.00    +0.000 C 
ATOM     31  N   UNL     1      -1.295  12.213  18.220  0.00  0.00    +0.000 NA
ENDBRANCH  17  30
ENDBRANCH   1  20
TORSDOF 6
ENDMDL
MODEL 6
REMARK VINA RESULT:      -8.4      1.257      1.882
REMARK  Name = 
REMARK  7 active torsions:
REMARK  status: ('A' for Active; 'I' for Inactive)
REMARK    1  A    between atoms: C_1  and  C_2
REMARK    2  A    between atoms: C_6  and  C_7
REMARK    3  A    between atoms: C_7  and  C_8
REMARK    4  A    between atoms: N_12  and  C_13
REMARK    5  A    between atoms: C_13  and  C_14
REMARK    6  A    between atoms: C_16  and  C_17
REMARK    7  A    between atoms: C_17  and  O_19
REMARK                            x       y       z     vdW  Elec       q    Type
REMARK                         _______ _______ _______ _____ _____    ______ ____
ROOT
ATOM      1  C   UNL     1       1.538   7.193  19.067  0.00  0.00    +0.000 C 
ENDROOT
BRANCH   1   2
ATOM      2  C   UNL     1       2.672   6.181  19.111  0.00  0.00    +0.000 A 
ATOM      3  C   UNL     1       3.850   6.557  18.341  0.00  0.00    +0.000 A 
ATOM      4  C   UNL     1       4.896   5.737  18.169  0.00  0.00    +0.000 A 
ATOM      5  C   UNL     1       4.874   4.418  18.847  0.00  0.00    +0.000 A 
ATOM      6  O   UNL     1       5.824   3.650  18.662  0.00  0.00    +0.000 OA
ATOM      7  N   UNL     1       3.773   4.138  19.660  0.00  0.00    +0.000 N 
ATOM      8  C   UNL     1       3.739   2.942  20.375  0.00  0.00    +0.000 A 
ATOM      9  C   UNL     1       2.722   2.565  21.160  0.00  0.00    +0.000 A 
ATOM     10  C   UNL     1       1.569   3.409  21.280  0.00  0.00    +0.000 A 
ATOM     11  C   UNL     1       1.543   4.571  20.617  0.00  0.00    +0.000 A 
ATOM     12  C   UNL     1       2.667   5.003  19.782  0.00  0.00    +0.000 A 
BRANCH   4  13
ATOM     13  C   UNL     1       6.015   6.186  17.308  0.00  0.00    +0.000 C 
ATOM     14  O   UNL     1       5.858   6.637  16.183  0.00  0.00    +0.000 OA
BRANCH  13  15
ATOM     15  O   UNL     1       7.244   6.049  17.852  0.00  0.00    +0.000 OA
ATOM     16  H   UNL     1       7.245   5.936  18.833  0.00  0.00    +0.000 HD
ENDBRANCH  13  15
ENDBRANCH   4  13
ENDBRANCH   1   2
BRANCH   1  20
ATOM     17  C   UNL     1      -0.239  10.519  18.768  0.00  0.00    +0.000 C 
ATOM     18  C   UNL     1       0.750   9.940  17.721  0.00  0.00    +0.000 C 
ATOM     19  C   UNL     1       2.080   9.503  18.344  0.00  0.00    +0.000 C 
ATOM     20  N   UNL     1       1.939   8.558  19.458  0.00  0.00    +0.000 NA
ATOM     21  C   UNL     1       1.053   9.108  20.487  0.00  0.00    +0.000 C 
ATOM     22  C   UNL     1      -0.320   9.501  19.944  0.00  0.00    +0.000 C 
BRANCH  17  28
ATOM     23  C   UNL     1      -4.813  12.457  19.482  0.00  0.00    +0.000 C 
ATOM     24  C   UNL     1      -3.900  11.679  18.584  0.00  0.00    +0.000 A 
ATOM     25  C   UNL     1      -4.372  10.988  17.470  0.00  0.00    +0.000 A 
ATOM     26  C   UNL     1      -3.493  10.233  16.693  0.00  0.00    +0.000 A 
ATOM     27  C   UNL     1      -2.150  10.107  17.060  0.00  0.00    +0.000 A 
ATOM     28  C   UNL     1      -1.661  10.741  18.213  0.00  0.00    +0.000 A 
ATOM     29  C   UNL     1      -2.544  11.590  18.911  0.00  0.00    +0.000 A 
ENDBRANCH  17  28
BRANCH  17  30
ATOM     30  C   UNL     1       0.288  11.816  19.263  0.00  0.00    +0.000 C 
ATOM     31  N   UNL     1       0.722  12.830  19.632  0.00  0.00    +0.000 NA
ENDBRANCH  17  30
ENDBRANCH   1  20
TORSDOF 6
ENDMDL
MODEL 7
REMARK VINA RESULT:      -8.4      2.035      3.678
REMARK  Name = 
REMARK  7 active torsions:
REMARK  status: ('A' for Active; 'I' for Inactive)
REMARK    1  A    between atoms: C_1  and  C_2
REMARK    2  A    between atoms: C_6  and  C_7
REMARK    3  A    between atoms: C_7  and  C_8
REMARK    4  A    between atoms: N_12  and  C_13
REMARK    5  A    between atoms: C_13  and  C_14
REMARK    6  A    between atoms: C_16  and  C_17
REMARK    7  A    between atoms: C_17  and  O_19
REMARK                            x       y       z     vdW  Elec       q    Type
REMARK                         _______ _______ _______ _____ _____    ______ ____
ROOT
ATOM      1  C   UNL     1       1.936   7.211  18.272  0.00  0.00    +0.000 C 
ENDROOT
BRANCH   1   2
ATOM      2  C   UNL     1       2.800   5.996  18.568  0.00  0.00    +0.000 A 
ATOM      3  C   UNL     1       2.175   5.004  19.434  0.00  0.00    +0.000 A 
ATOM      4  C   UNL     1       2.830   3.929  19.895  0.00  0.00    +0.000 A 
ATOM      5  C   UNL     1       4.228   3.714  19.451  0.00  0.00    +0.000 A 
ATOM      6  O   UNL     1       4.841   2.740  19.902  0.00  0.00    +0.000 OA
ATOM      7  N   UNL     1       4.756   4.632  18.540  0.00  0.00    +0.000 N 
ATOM      8  C   UNL     1       6.040   4.433  18.037  0.00  0.00    +0.000 A 
ATOM      9  C   UNL     1       6.649   5.263  17.181  0.00  0.00    +0.000 A 
ATOM     10  C   UNL     1       5.977   6.454  16.750  0.00  0.00    +0.000 A 
ATOM     11  C   UNL     1       4.740   6.700  17.198  0.00  0.00    +0.000 A 
ATOM     12  C   UNL     1       4.057   5.777  18.110  0.00  0.00    +0.000 A 
BRANCH   4  13
ATOM     13  C   UNL     1       2.127   3.018  20.828  0.00  0.00    +0.000 C 
ATOM     14  O   UNL     1       1.033   2.527  20.592  0.00  0.00    +0.000 OA
BRANCH  13  15
ATOM     15  O   UNL     1       2.780   2.771  21.985  0.00  0.00    +0.000 OA
ATOM     16  H   UNL     1       2.330   3.125  22.790  0.00  0.00    +0.000 HD
ENDBRANCH  13  15
ENDBRANCH   4  13
ENDBRANCH   1   2
BRANCH   1  20
ATOM     17  C   UNL     1       0.100  10.441  18.986  0.00  0.00    +0.000 C 
ATOM     18  C   UNL     1       1.047  10.202  17.779  0.00  0.00    +0.000 C 
ATOM     19  C   UNL     1       2.411   9.645  18.201  0.00  0.00    +0.000 C 
ATOM     20  N   UNL     1       2.335   8.424  19.012  0.00  0.00    +0.000 NA
ATOM     21  C   UNL     1       1.490   8.643  20.189  0.00  0.00    +0.000 C 
ATOM     22  C   UNL     1       0.088   9.135  19.834  0.00  0.00    +0.000 C 
BRANCH  17  28
ATOM     23  C   UNL     1      -4.168  12.852  20.061  0.00  0.00    +0.000 C 
ATOM     24  C   UNL     1      -3.437  11.941  19.121  0.00  0.00    +0.000 A 
ATOM     25  C   UNL     1      -4.093  11.241  18.111  0.00  0.00    +0.000 A 
ATOM     26  C   UNL     1      -3.380  10.363  17.294  0.00  0.00    +0.000 A 
ATOM     27  C   UNL     1      -2.021  10.127  17.523  0.00  0.00    +0.000 A 
ATOM     28  C   UNL     1      -1.349  10.771  18.573  0.00  0.00    +0.000 A 
ATOM     29  C   UNL     1      -2.067  11.738  19.306  0.00  0.00    +0.000 A 
ENDBRANCH  17  28
BRANCH  17  30
ATOM     30  C   UNL     1       0.631  11.563  19.801  0.00  0.00    +0.000 C 
ATOM     31  N   UNL     1       1.041  12.460  20.418  0.00  0.00    +0.000 NA
ENDBRANCH  17  30
ENDBRANCH   1  20
TORSDOF 6
ENDMDL
MODEL 8
REMARK VINA RESULT:      -8.3      2.742      5.039
REMARK  Name = 
REMARK  7 active torsions:
REMARK  status: ('A' for Active; 'I' for Inactive)
REMARK    1  A    between atoms: C_1  and  C_2
REMARK    2  A    between atoms: C_6  and  C_7
REMARK    3  A    between atoms: C_7  and  C_8
REMARK    4  A    between atoms: N_12  and  C_13
REMARK    5  A    between atoms: C_13  and  C_14
REMARK    6  A    between atoms: C_16  and  C_17
REMARK    7  A    between atoms: C_17  and  O_19
REMARK                            x       y       z     vdW  Elec       q    Type
REMARK                         _______ _______ _______ _____ _____    ______ ____
ROOT
ATOM      1  C   UNL     1       2.297   8.024  19.915  0.00  0.00    +0.000 C 
ENDROOT
BRANCH   1   2
ATOM      2  C   UNL     1       2.591   6.589  19.508  0.00  0.00    +0.000 A 
ATOM      3  C   UNL     1       1.959   5.579  20.348  0.00  0.00    +0.000 A 
ATOM      4  C   UNL     1       2.200   4.268  20.212  0.00  0.00    +0.000 A 
ATOM      5  C   UNL     1       3.100   3.829  19.118  0.00  0.00    +0.000 A 
ATOM      6  O   UNL     1       3.348   2.623  19.012  0.00  0.00    +0.000 OA
ATOM      7  N   UNL     1       3.604   4.820  18.270  0.00  0.00    +0.000 N 
ATOM      8  C   UNL     1       4.395   4.451  17.184  0.00  0.00    +0.000 A 
ATOM      9  C   UNL     1       4.948   5.321  16.328  0.00  0.00    +0.000 A 
ATOM     10  C   UNL     1       4.752   6.728  16.523  0.00  0.00    +0.000 A 
ATOM     11  C   UNL     1       4.001   7.144  17.549  0.00  0.00    +0.000 A 
ATOM     12  C   UNL     1       3.367   6.195  18.469  0.00  0.00    +0.000 A 
BRANCH   4  13
ATOM     13  C   UNL     1       1.563   3.327  21.163  0.00  0.00    +0.000 C 
ATOM     14  O   UNL     1       1.994   3.112  22.285  0.00  0.00    +0.000 OA
BRANCH  13  15
ATOM     15  O   UNL     1       0.461   2.701  20.694  0.00  0.00    +0.000 OA
ATOM     16  H   UNL     1       0.503   1.715  20.737  0.00  0.00    +0.000 HD
ENDBRANCH  13  15
ENDBRANCH   4  13
ENDBRANCH   1   2
BRANCH   1  20
ATOM     17  C   UNL     1       1.098  11.530  19.150  0.00  0.00    +0.000 C 
ATOM     18  C   UNL     1       0.915  10.802  20.508  0.00  0.00    +0.000 C 
ATOM     19  C   UNL     1       0.288   9.412  20.354  0.00  0.00    +0.000 C 
ATOM     20  N   UNL     1       1.002   8.533  19.421  0.00  0.00    +0.000 NA
ATOM     21  C   UNL     1       1.138   9.177  18.112  0.00  0.00    +0.000 C 
ATOM     22  C   UNL     1       1.821  10.542  18.187  0.00  0.00    +0.000 C 
BRANCH  17  28
ATOM     23  C   UNL     1       2.736  15.305  22.022  0.00  0.00    +0.000 C 
ATOM     24  C   UNL     1       2.720  14.670  20.665  0.00  0.00    +0.000 A 
ATOM     25  C   UNL     1       3.199  15.328  19.535  0.00  0.00    +0.000 A 
ATOM     26  C   UNL     1       3.114  14.718  18.283  0.00  0.00    +0.000 A 
ATOM     27  C   UNL     1       2.489  13.476  18.140  0.00  0.00    +0.000 A 
ATOM     28  C   UNL     1       1.940  12.818  19.252  0.00  0.00    +0.000 A 
ATOM     29  C   UNL     1       2.145  13.404  20.518  0.00  0.00    +0.000 A 
ENDBRANCH  17  28
BRANCH  17  30
ATOM     30  C   UNL     1      -0.238  11.875  18.604  0.00  0.00    +0.000 C 
ATOM     31  N   UNL     1      -1.277  12.173  18.173  0.00  0.00    +0.000 NA
ENDBRANCH  17  30
ENDBRANCH   1  20
TORSDOF 6
ENDMDL
MODEL 9
REMARK VINA RESULT:      -8.1      2.087      3.834
REMARK  Name = 
REMARK  7 active torsions:
REMARK  status: ('A' for Active; 'I' for Inactive)
REMARK    1  A    between atoms: C_1  and  C_2
REMARK    2  A    between atoms: C_6  and  C_7
REMARK    3  A    between atoms: C_7  and  C_8
REMARK    4  A    between atoms: N_12  and  C_13
REMARK    5  A    between atoms: C_13  and  C_14
REMARK    6  A    between atoms: C_16  and  C_17
REMARK    7  A    between atoms: C_17  and  O_19
REMARK                            x       y       z     vdW  Elec       q    Type
REMARK                         _______ _______ _______ _____ _____    ______ ____
ROOT
ATOM      1  C   UNL     1       2.361   8.001  19.670  0.00  0.00    +0.000 C 
ENDROOT
BRANCH   1   2
ATOM      2  C   UNL     1       2.825   6.722  18.991  0.00  0.00    +0.000 A 
ATOM      3  C   UNL     1       3.832   6.918  17.955  0.00  0.00    +0.000 A 
ATOM      4  C   UNL     1       4.269   5.921  17.172  0.00  0.00    +0.000 A 
ATOM      5  C   UNL     1       3.749   4.554  17.418  0.00  0.00    +0.000 A 
ATOM      6  O   UNL     1       4.129   3.642  16.676  0.00  0.00    +0.000 OA
ATOM      7  N   UNL     1       2.864   4.392  18.488  0.00  0.00    +0.000 N 
ATOM      8  C   UNL     1       2.404   3.115  18.805  0.00  0.00    +0.000 A 
ATOM      9  C   UNL     1       1.536   2.853  19.790  0.00  0.00    +0.000 A 
ATOM     10  C   UNL     1       1.010   3.930  20.576  0.00  0.00    +0.000 A 
ATOM     11  C   UNL     1       1.414   5.180  20.319  0.00  0.00    +0.000 A 
ATOM     12  C   UNL     1       2.389   5.469  19.263  0.00  0.00    +0.000 A 
BRANCH   4  13
ATOM     13  C   UNL     1       5.241   6.237  16.100  0.00  0.00    +0.000 C 
ATOM     14  O   UNL     1       5.010   7.023  15.193  0.00  0.00    +0.000 OA
BRANCH  13  15
ATOM     15  O   UNL     1       6.417   5.578  16.184  0.00  0.00    +0.000 OA
ATOM     16  H   UNL     1       6.699   5.138  15.345  0.00  0.00    +0.000 HD
ENDBRANCH  13  15
ENDBRANCH   4  13
ENDBRANCH   1   2
BRANCH   1  20
ATOM     17  C   UNL     1       1.100  11.544  19.254  0.00  0.00    +0.000 C 
ATOM     18  C   UNL     1       0.837  10.644  20.490  0.00  0.00    +0.000 C 
ATOM     19  C   UNL     1       0.275   9.269  20.111  0.00  0.00    +0.000 C 
ATOM     20  N   UNL     1       1.093   8.535  19.138  0.00  0.00    +0.000 NA
ATOM     21  C   UNL     1       1.308   9.345  17.936  0.00  0.00    +0.000 C 
ATOM     22  C   UNL     1       1.933  10.706  18.238  0.00  0.00    +0.000 C 
BRANCH  17  28
ATOM     23  C   UNL     1       4.621  14.840  17.866  0.00  0.00    +0.000 C 
ATOM     24  C   UNL     1       3.622  14.425  18.903  0.00  0.00    +0.000 A 
ATOM     25  C   UNL     1       3.595  14.997  20.174  0.00  0.00    +0.000 A 
ATOM     26  C   UNL     1       2.681  14.541  21.124  0.00  0.00    +0.000 A 
ATOM     27  C   UNL     1       1.835  13.466  20.837  0.00  0.00    +0.000 A 
ATOM     28  C   UNL     1       1.884  12.830  19.587  0.00  0.00    +0.000 A 
ATOM     29  C   UNL     1       2.734  13.386  18.609  0.00  0.00    +0.000 A 
ENDBRANCH  17  28
BRANCH  17  30
ATOM     30  C   UNL     1      -0.200  11.921  18.646  0.00  0.00    +0.000 C 
ATOM     31  N   UNL     1      -1.207  12.220  18.144  0.00  0.00    +0.000 NA
ENDBRANCH  17  30
ENDBRANCH   1  20
TORSDOF 6
ENDMDL
