MODEL 1
REMARK VINA RESULT:      -7.6      0.000      0.000
REMARK  Name = 
REMARK  2 active torsions:
REMARK  status: ('A' for Active; 'I' for Inactive)
REMARK    1  A    between atoms: C_9  and  C_10
REMARK    2  A    between atoms: C_13  and  C_14
REMARK                            x       y       z     vdW  Elec       q    Type
REMARK                         _______ _______ _______ _____ _____    ______ ____
ROOT
ATOM      1  O   UNL     1       0.484  10.894  18.367  0.00  0.00    +0.000 OA
ATOM      2  C   UNL     1       0.607  10.162  19.339  0.00  0.00    +0.000 A 
ATOM      3  N   UNL     1       0.003  10.360  20.573  0.00  0.00    +0.000 N 
ATOM      4  C   UNL     1       0.075   9.591  21.714  0.00  0.00    +0.000 A 
ATOM      5  S   UNL     1      -0.726   9.972  23.110  0.00  0.00    +0.000 S 
ATOM      6  N   UNL     1       0.897   8.431  21.600  0.00  0.00    +0.000 N 
ATOM      7  C   UNL     1       1.522   8.190  20.402  0.00  0.00    +0.000 A 
ATOM      8  C   UNL     1       2.339   7.157  20.046  0.00  0.00    +0.000 A 
ATOM      9  C   UNL     1       2.670   7.418  18.682  0.00  0.00    +0.000 A 
ATOM     10  N   UNL     1       2.079   8.550  18.249  0.00  0.00    +0.000 NA
ATOM     11  N   UNL     1       1.391   9.004  19.317  0.00  0.00    +0.000 N 
ATOM     12  H   UNL     1      -0.577  11.188  20.627  0.00  0.00    +0.000 HD
ATOM     13  H   UNL     1       1.007   7.801  22.389  0.00  0.00    +0.000 HD
ENDROOT
BRANCH   9  14
ATOM     14  C   UNL     1       3.500   6.593  17.800  0.00  0.00    +0.000 A 
ATOM     15  C   UNL     1       4.431   7.188  16.939  0.00  0.00    +0.000 A 
ATOM     16  C   UNL     1       5.185   6.410  16.054  0.00  0.00    +0.000 A 
ATOM     17  C   UNL     1       5.032   5.018  16.020  0.00  0.00    +0.000 A 
ATOM     18  C   UNL     1       4.115   4.418  16.896  0.00  0.00    +0.000 A 
ATOM     19  C   UNL     1       3.357   5.198  17.777  0.00  0.00    +0.000 A 
BRANCH  17  20
ATOM     20  C   UNL     1       5.833   4.165  15.064  0.00  0.00    +0.000 C 
ATOM     21  F   UNL     1       6.008   2.885  15.492  0.00  0.00    +0.000 F 
ATOM     22  F   UNL     1       5.252   4.076  13.836  0.00  0.00    +0.000 F 
ATOM     23  F   UNL     1       7.083   4.664  14.853  0.00  0.00    +0.000 F 
ENDBRANCH  17  20
ENDBRANCH   9  14
TORSDOF 2
ENDMDL
MODEL 2
REMARK VINA RESULT:      -7.5      0.248      1.281
REMARK  Name = 
REMARK  2 active torsions:
REMARK  status: ('A' for Active; 'I' for Inactive)
REMARK    1  A    between atoms: C_9  and  C_10
REMARK    2  A    between atoms: C_13  and  C_14
REMARK                            x       y       z     vdW  Elec       q    Type
REMARK                         _______ _______ _______ _____ _____    ______ ____
ROOT
ATOM      1  O   UNL     1       0.566  10.935  18.465  0.00  0.00    +0.000 OA
ATOM      2  C   UNL     1       0.665  10.175  19.417  0.00  0.00    +0.000 A 
ATOM      3  N   UNL     1       0.055  10.351  20.651  0.00  0.00    +0.000 N 
ATOM      4  C   UNL     1       0.101   9.551  21.771  0.00  0.00    +0.000 A 
ATOM      5  S   UNL     1      -0.704   9.912  23.171  0.00  0.00    +0.000 S 
ATOM      6  N   UNL     1       0.898   8.376  21.633  0.00  0.00    +0.000 N 
ATOM      7  C   UNL     1       1.528   8.155  20.433  0.00  0.00    +0.000 A 
ATOM      8  C   UNL     1       2.326   7.114  20.056  0.00  0.00    +0.000 A 
ATOM      9  C   UNL     1       2.673   7.405  18.702  0.00  0.00    +0.000 A 
ATOM     10  N   UNL     1       2.112   8.560  18.296  0.00  0.00    +0.000 NA
ATOM     11  N   UNL     1       1.423   9.001  19.370  0.00  0.00    +0.000 N 
ATOM     12  H   UNL     1      -0.507  11.191  20.723  0.00  0.00    +0.000 HD
ATOM     13  H   UNL     1       0.987   7.723  22.405  0.00  0.00    +0.000 HD
ENDROOT
BRANCH   9  14
ATOM     14  C   UNL     1       3.493   6.586  17.804  0.00  0.00    +0.000 A 
ATOM     15  C   UNL     1       3.344   5.193  17.779  0.00  0.00    +0.000 A 
ATOM     16  C   UNL     1       4.162   4.401  16.966  0.00  0.00    +0.000 A 
ATOM     17  C   UNL     1       5.140   4.987  16.152  0.00  0.00    +0.000 A 
ATOM     18  C   UNL     1       5.276   6.384  16.160  0.00  0.00    +0.000 A 
ATOM     19  C   UNL     1       4.461   7.174  16.978  0.00  0.00    +0.000 A 
BRANCH  17  20
ATOM     20  C   UNL     1       6.036   4.146  15.275  0.00  0.00    +0.000 C 
ATOM     21  F   UNL     1       7.364   4.351  15.495  0.00  0.00    +0.000 F 
ATOM     22  F   UNL     1       5.828   2.811  15.450  0.00  0.00    +0.000 F 
ATOM     23  F   UNL     1       5.834   4.386  13.950  0.00  0.00    +0.000 F 
ENDBRANCH  17  20
ENDBRANCH   9  14
TORSDOF 2
ENDMDL
MODEL 3
REMARK VINA RESULT:      -7.3      2.723      3.557
REMARK  Name = 
REMARK  2 active torsions:
REMARK  status: ('A' for Active; 'I' for Inactive)
REMARK    1  A    between atoms: C_9  and  C_10
REMARK    2  A    between atoms: C_13  and  C_14
REMARK                            x       y       z     vdW  Elec       q    Type
REMARK                         _______ _______ _______ _____ _____    ______ ____
ROOT
ATOM      1  O   UNL     1       0.495  10.412  22.274  0.00  0.00    +0.000 OA
ATOM      2  C   UNL     1       0.659  10.670  21.090  0.00  0.00    +0.000 A 
ATOM      3  N   UNL     1       0.427  11.904  20.499  0.00  0.00    +0.000 N 
ATOM      4  C   UNL     1       0.591  12.288  19.186  0.00  0.00    +0.000 A 
ATOM      5  S   UNL     1       0.272  13.819  18.648  0.00  0.00    +0.000 S 
ATOM      6  N   UNL     1       1.062  11.259  18.317  0.00  0.00    +0.000 N 
ATOM      7  C   UNL     1       1.304  10.017  18.851  0.00  0.00    +0.000 A 
ATOM      8  C   UNL     1       1.761   8.888  18.237  0.00  0.00    +0.000 A 
ATOM      9  C   UNL     1       1.838   7.920  19.283  0.00  0.00    +0.000 A 
ATOM     10  N   UNL     1       1.445   8.447  20.460  0.00  0.00    +0.000 NA
ATOM     11  N   UNL     1       1.119   9.724  20.169  0.00  0.00    +0.000 N 
ATOM     12  H   UNL     1       0.096  12.618  21.136  0.00  0.00    +0.000 HD
ATOM     13  H   UNL     1       1.217  11.450  17.332  0.00  0.00    +0.000 HD
ENDROOT
BRANCH   9  14
ATOM     14  C   UNL     1       2.308   6.536  19.175  0.00  0.00    +0.000 A 
ATOM     15  C   UNL     1       2.930   6.086  18.002  0.00  0.00    +0.000 A 
ATOM     16  C   UNL     1       3.329   4.752  17.871  0.00  0.00    +0.000 A 
ATOM     17  C   UNL     1       3.123   3.841  18.915  0.00  0.00    +0.000 A 
ATOM     18  C   UNL     1       2.519   4.294  20.098  0.00  0.00    +0.000 A 
ATOM     19  C   UNL     1       2.116   5.628  20.226  0.00  0.00    +0.000 A 
BRANCH  17  20
ATOM     20  C   UNL     1       3.541   2.395  18.786  0.00  0.00    +0.000 C 
ATOM     21  F   UNL     1       2.528   1.513  19.010  0.00  0.00    +0.000 F 
ATOM     22  F   UNL     1       4.026   2.104  17.548  0.00  0.00    +0.000 F 
ATOM     23  F   UNL     1       4.528   2.063  19.664  0.00  0.00    +0.000 F 
ENDBRANCH  17  20
ENDBRANCH   9  14
TORSDOF 2
ENDMDL
MODEL 4
REMARK VINA RESULT:      -7.3      6.109      8.117
REMARK  Name = 
REMARK  2 active torsions:
REMARK  status: ('A' for Active; 'I' for Inactive)
REMARK    1  A    between atoms: C_9  and  C_10
REMARK    2  A    between atoms: C_13  and  C_14
REMARK                            x       y       z     vdW  Elec       q    Type
REMARK                         _______ _______ _______ _____ _____    ______ ____
ROOT
ATOM      1  O   UNL     1       4.160   3.381  19.679  0.00  0.00    +0.000 OA
ATOM      2  C   UNL     1       4.343   4.114  18.718  0.00  0.00    +0.000 A 
ATOM      3  N   UNL     1       5.104   3.798  17.601  0.00  0.00    +0.000 N 
ATOM      4  C   UNL     1       5.357   4.550  16.475  0.00  0.00    +0.000 A 
ATOM      5  S   UNL     1       6.290   4.008  15.221  0.00  0.00    +0.000 S 
ATOM      6  N   UNL     1       4.748   5.839  16.469  0.00  0.00    +0.000 N 
ATOM      7  C   UNL     1       3.987   6.205  17.552  0.00  0.00    +0.000 A 
ATOM      8  C   UNL     1       3.303   7.363  17.775  0.00  0.00    +0.000 A 
ATOM      9  C   UNL     1       2.682   7.172  19.046  0.00  0.00    +0.000 A 
ATOM     10  N   UNL     1       2.983   5.960  19.553  0.00  0.00    +0.000 NA
ATOM     11  N   UNL     1       3.783   5.392  18.627  0.00  0.00    +0.000 N 
ATOM     12  H   UNL     1       5.524   2.876  17.628  0.00  0.00    +0.000 HD
ATOM     13  H   UNL     1       4.874   6.463  15.678  0.00  0.00    +0.000 HD
ENDROOT
BRANCH   9  14
ATOM     14  C   UNL     1       1.795   8.105  19.747  0.00  0.00    +0.000 A 
ATOM     15  C   UNL     1       1.322   9.255  19.102  0.00  0.00    +0.000 A 
ATOM     16  C   UNL     1       0.521  10.178  19.783  0.00  0.00    +0.000 A 
ATOM     17  C   UNL     1       0.168   9.964  21.122  0.00  0.00    +0.000 A 
ATOM     18  C   UNL     1       0.624   8.802  21.763  0.00  0.00    +0.000 A 
ATOM     19  C   UNL     1       1.429   7.882  21.082  0.00  0.00    +0.000 A 
BRANCH  17  20
ATOM     20  C   UNL     1      -0.689  10.955  21.874  0.00  0.00    +0.000 C 
ATOM     21  F   UNL     1      -0.026  12.091  22.228  0.00  0.00    +0.000 F 
ATOM     22  F   UNL     1      -1.769  11.360  21.151  0.00  0.00    +0.000 F 
ATOM     23  F   UNL     1      -1.185  10.435  23.031  0.00  0.00    +0.000 F 
ENDBRANCH  17  20
ENDBRANCH   9  14
TORSDOF 2
ENDMDL
MODEL 5
REMARK VINA RESULT:      -7.3      1.604      2.128
REMARK  Name = 
REMARK  2 active torsions:
REMARK  status: ('A' for Active; 'I' for Inactive)
REMARK    1  A    between atoms: C_9  and  C_10
REMARK    2  A    between atoms: C_13  and  C_14
REMARK                            x       y       z     vdW  Elec       q    Type
REMARK                         _______ _______ _______ _____ _____    ______ ____
ROOT
ATOM      1  O   UNL     1       1.003   8.434  22.116  0.00  0.00    +0.000 OA
ATOM      2  C   UNL     1       0.790   9.081  21.101  0.00  0.00    +0.000 A 
ATOM      3  N   UNL     1      -0.019  10.206  21.022  0.00  0.00    +0.000 N 
ATOM      4  C   UNL     1      -0.310  10.999  19.933  0.00  0.00    +0.000 A 
ATOM      5  S   UNL     1      -1.298  12.323  20.020  0.00  0.00    +0.000 S 
ATOM      6  N   UNL     1       0.312  10.591  18.716  0.00  0.00    +0.000 N 
ATOM      7  C   UNL     1       1.120   9.481  18.737  0.00  0.00    +0.000 A 
ATOM      8  C   UNL     1       1.824   8.907  17.720  0.00  0.00    +0.000 A 
ATOM      9  C   UNL     1       2.493   7.803  18.329  0.00  0.00    +0.000 A 
ATOM     10  N   UNL     1       2.200   7.725  19.642  0.00  0.00    +0.000 NA
ATOM     11  N   UNL     1       1.358   8.755  19.865  0.00  0.00    +0.000 N 
ATOM     12  H   UNL     1      -0.447  10.476  21.899  0.00  0.00    +0.000 HD
ATOM     13  H   UNL     1       0.160  11.118  17.861  0.00  0.00    +0.000 HD
ENDROOT
BRANCH   9  14
ATOM     14  C   UNL     1       3.417   6.864  17.686  0.00  0.00    +0.000 A 
ATOM     15  C   UNL     1       4.496   7.337  16.926  0.00  0.00    +0.000 A 
ATOM     16  C   UNL     1       5.347   6.447  16.264  0.00  0.00    +0.000 A 
ATOM     17  C   UNL     1       5.144   5.064  16.355  0.00  0.00    +0.000 A 
ATOM     18  C   UNL     1       4.077   4.588  17.133  0.00  0.00    +0.000 A 
ATOM     19  C   UNL     1       3.223   5.480  17.791  0.00  0.00    +0.000 A 
BRANCH  17  20
ATOM     20  C   UNL     1       6.050   4.090  15.639  0.00  0.00    +0.000 C 
ATOM     21  F   UNL     1       5.992   4.188  14.283  0.00  0.00    +0.000 F 
ATOM     22  F   UNL     1       7.359   4.258  15.973  0.00  0.00    +0.000 F 
ATOM     23  F   UNL     1       5.751   2.794  15.934  0.00  0.00    +0.000 F 
ENDBRANCH  17  20
ENDBRANCH   9  14
TORSDOF 2
ENDMDL
MODEL 6
REMARK VINA RESULT:      -7.3      7.804      9.338
REMARK  Name = 
REMARK  2 active torsions:
REMARK  status: ('A' for Active; 'I' for Inactive)
REMARK    1  A    between atoms: C_9  and  C_10
REMARK    2  A    between atoms: C_13  and  C_14
REMARK                            x       y       z     vdW  Elec       q    Type
REMARK                         _______ _______ _______ _____ _____    ______ ____
ROOT
ATOM      1  O   UNL     1       8.133   5.212  20.219  0.00  0.00    +0.000 OA
ATOM      2  C   UNL     1       7.712   5.610  19.142  0.00  0.00    +0.000 A 
ATOM      3  N   UNL     1       6.950   4.864  18.254  0.00  0.00    +0.000 N 
ATOM      4  C   UNL     1       6.427   5.228  17.032  0.00  0.00    +0.000 A 
ATOM      5  S   UNL     1       5.524   4.204  16.097  0.00  0.00    +0.000 S 
ATOM      6  N   UNL     1       6.724   6.564  16.630  0.00  0.00    +0.000 N 
ATOM      7  C   UNL     1       7.478   7.345  17.470  0.00  0.00    +0.000 A 
ATOM      8  C   UNL     1       7.880   8.639  17.318  0.00  0.00    +0.000 A 
ATOM      9  C   UNL     1       8.613   8.927  18.508  0.00  0.00    +0.000 A 
ATOM     10  N   UNL     1       8.646   7.857  19.327  0.00  0.00    +0.000 NA
ATOM     11  N   UNL     1       7.952   6.904  18.670  0.00  0.00    +0.000 N 
ATOM     12  H   UNL     1       6.751   3.920  18.562  0.00  0.00    +0.000 HD
ATOM     13  H   UNL     1       6.376   6.923  15.746  0.00  0.00    +0.000 HD
ENDROOT
BRANCH   9  14
ATOM     14  C   UNL     1       9.239  10.200  18.875  0.00  0.00    +0.000 A 
ATOM     15  C   UNL     1       9.503  10.502  20.218  0.00  0.00    +0.000 A 
ATOM     16  C   UNL     1      10.048  11.738  20.579  0.00  0.00    +0.000 A 
ATOM     17  C   UNL     1      10.351  12.696  19.602  0.00  0.00    +0.000 A 
ATOM     18  C   UNL     1      10.107  12.389  18.256  0.00  0.00    +0.000 A 
ATOM     19  C   UNL     1       9.557  11.153  17.896  0.00  0.00    +0.000 A 
BRANCH  17  20
ATOM     20  C   UNL     1      10.933  14.039  19.977  0.00  0.00    +0.000 C 
ATOM     21  F   UNL     1      10.638  14.426  21.249  0.00  0.00    +0.000 F 
ATOM     22  F   UNL     1      12.291  14.061  19.883  0.00  0.00    +0.000 F 
ATOM     23  F   UNL     1      10.484  15.039  19.168  0.00  0.00    +0.000 F 
ENDBRANCH  17  20
ENDBRANCH   9  14
TORSDOF 2
ENDMDL
MODEL 7
REMARK VINA RESULT:      -7.3      1.672      2.459
REMARK  Name = 
REMARK  2 active torsions:
REMARK  status: ('A' for Active; 'I' for Inactive)
REMARK    1  A    between atoms: C_9  and  C_10
REMARK    2  A    between atoms: C_13  and  C_14
REMARK                            x       y       z     vdW  Elec       q    Type
REMARK                         _______ _______ _______ _____ _____    ______ ____
ROOT
ATOM      1  O   UNL     1       0.904   8.454  21.975  0.00  0.00    +0.000 OA
ATOM      2  C   UNL     1       0.718   9.105  20.958  0.00  0.00    +0.000 A 
ATOM      3  N   UNL     1      -0.110  10.215  20.856  0.00  0.00    +0.000 N 
ATOM      4  C   UNL     1      -0.373  11.011  19.763  0.00  0.00    +0.000 A 
ATOM      5  S   UNL     1      -1.390  12.315  19.821  0.00  0.00    +0.000 S 
ATOM      6  N   UNL     1       0.303  10.626  18.567  0.00  0.00    +0.000 N 
ATOM      7  C   UNL     1       1.132   9.532  18.611  0.00  0.00    +0.000 A 
ATOM      8  C   UNL     1       1.886   8.980  17.618  0.00  0.00    +0.000 A 
ATOM      9  C   UNL     1       2.553   7.884  18.245  0.00  0.00    +0.000 A 
ATOM     10  N   UNL     1       2.211   7.790  19.545  0.00  0.00    +0.000 NA
ATOM     11  N   UNL     1       1.340   8.801  19.743  0.00  0.00    +0.000 N 
ATOM     12  H   UNL     1      -0.576  10.469  21.718  0.00  0.00    +0.000 HD
ATOM     13  H   UNL     1       0.175  11.157  17.712  0.00  0.00    +0.000 HD
ENDROOT
BRANCH   9  14
ATOM     14  C   UNL     1       3.519   6.969  17.631  0.00  0.00    +0.000 A 
ATOM     15  C   UNL     1       3.425   5.588  17.846  0.00  0.00    +0.000 A 
ATOM     16  C   UNL     1       4.377   4.715  17.309  0.00  0.00    +0.000 A 
ATOM     17  C   UNL     1       5.439   5.205  16.537  0.00  0.00    +0.000 A 
ATOM     18  C   UNL     1       5.523   6.585  16.303  0.00  0.00    +0.000 A 
ATOM     19  C   UNL     1       4.573   7.458  16.845  0.00  0.00    +0.000 A 
BRANCH  17  20
ATOM     20  C   UNL     1       6.479   4.275  15.957  0.00  0.00    +0.000 C 
ATOM     21  F   UNL     1       7.071   4.754  14.829  0.00  0.00    +0.000 F 
ATOM     22  F   UNL     1       7.491   4.019  16.832  0.00  0.00    +0.000 F 
ATOM     23  F   UNL     1       5.958   3.063  15.621  0.00  0.00    +0.000 F 
ENDBRANCH  17  20
ENDBRANCH   9  14
TORSDOF 2
ENDMDL
MODEL 8
REMARK VINA RESULT:      -7.1      1.830      2.678
REMARK  Name = 
REMARK  2 active torsions:
REMARK  status: ('A' for Active; 'I' for Inactive)
REMARK    1  A    between atoms: C_9  and  C_10
REMARK    2  A    between atoms: C_13  and  C_14
REMARK                            x       y       z     vdW  Elec       q    Type
REMARK                         _______ _______ _______ _____ _____    ______ ____
ROOT
ATOM      1  O   UNL     1       0.914   9.430  22.689  0.00  0.00    +0.000 OA
ATOM      2  C   UNL     1       0.617   9.982  21.640  0.00  0.00    +0.000 A 
ATOM      3  N   UNL     1      -0.128  11.149  21.531  0.00  0.00    +0.000 N 
ATOM      4  C   UNL     1      -0.502  11.844  20.401  0.00  0.00    +0.000 A 
ATOM      5  S   UNL     1      -1.392  13.237  20.454  0.00  0.00    +0.000 S 
ATOM      6  N   UNL     1      -0.059  11.269  19.173  0.00  0.00    +0.000 N 
ATOM      7  C   UNL     1       0.678  10.112  19.224  0.00  0.00    +0.000 A 
ATOM      8  C   UNL     1       1.217   9.386  18.203  0.00  0.00    +0.000 A 
ATOM      9  C   UNL     1       1.890   8.306  18.850  0.00  0.00    +0.000 A 
ATOM     10  N   UNL     1       1.756   8.385  20.189  0.00  0.00    +0.000 NA
ATOM     11  N   UNL     1       1.009   9.491  20.391  0.00  0.00    +0.000 N 
ATOM     12  H   UNL     1      -0.428  11.538  22.416  0.00  0.00    +0.000 HD
ATOM     13  H   UNL     1      -0.283  11.715  18.288  0.00  0.00    +0.000 HD
ENDROOT
BRANCH   9  14
ATOM     14  C   UNL     1       2.670   7.242  18.213  0.00  0.00    +0.000 A 
ATOM     15  C   UNL     1       2.300   5.899  18.367  0.00  0.00    +0.000 A 
ATOM     16  C   UNL     1       3.073   4.876  17.809  0.00  0.00    +0.000 A 
ATOM     17  C   UNL     1       4.228   5.174  17.075  0.00  0.00    +0.000 A 
ATOM     18  C   UNL     1       4.589   6.519  16.901  0.00  0.00    +0.000 A 
ATOM     19  C   UNL     1       3.818   7.542  17.465  0.00  0.00    +0.000 A 
BRANCH  17  20
ATOM     20  C   UNL     1       5.078   4.080  16.473  0.00  0.00    +0.000 C 
ATOM     21  F   UNL     1       5.093   4.087  15.112  0.00  0.00    +0.000 F 
ATOM     22  F   UNL     1       6.380   4.161  16.863  0.00  0.00    +0.000 F 
ATOM     23  F   UNL     1       4.654   2.838  16.837  0.00  0.00    +0.000 F 
ENDBRANCH  17  20
ENDBRANCH   9  14
TORSDOF 2
ENDMDL
MODEL 9
REMARK VINA RESULT:      -7.1      2.776      3.787
REMARK  Name = 
REMARK  2 active torsions:
REMARK  status: ('A' for Active; 'I' for Inactive)
REMARK    1  A    between atoms: C_9  and  C_10
REMARK    2  A    between atoms: C_13  and  C_14
REMARK                            x       y       z     vdW  Elec       q    Type
REMARK                         _______ _______ _______ _____ _____    ______ ____
ROOT
ATOM      1  O   UNL     1       0.519  10.363  22.274  0.00  0.00    +0.000 OA
ATOM      2  C   UNL     1       0.755  10.637  21.107  0.00  0.00    +0.000 A 
ATOM      3  N   UNL     1       0.628  11.897  20.538  0.00  0.00    +0.000 N 
ATOM      4  C   UNL     1       0.878  12.300  19.244  0.00  0.00    +0.000 A 
ATOM      5  S   UNL     1       0.681  13.861  18.732  0.00  0.00    +0.000 S 
ATOM      6  N   UNL     1       1.327  11.264  18.372  0.00  0.00    +0.000 N 
ATOM      7  C   UNL     1       1.466   9.997  18.884  0.00  0.00    +0.000 A 
ATOM      8  C   UNL     1       1.883   8.857  18.263  0.00  0.00    +0.000 A 
ATOM      9  C   UNL     1       1.850   7.862  19.286  0.00  0.00    +0.000 A 
ATOM     10  N   UNL     1       1.433   8.385  20.456  0.00  0.00    +0.000 NA
ATOM     11  N   UNL     1       1.201   9.686  20.184  0.00  0.00    +0.000 N 
ATOM     12  H   UNL     1       0.311  12.615  21.177  0.00  0.00    +0.000 HD
ATOM     13  H   UNL     1       1.542  11.468  17.401  0.00  0.00    +0.000 HD
ENDROOT
BRANCH   9  14
ATOM     14  C   UNL     1       2.238   6.454  19.163  0.00  0.00    +0.000 A 
ATOM     15  C   UNL     1       1.927   5.540  20.179  0.00  0.00    +0.000 A 
ATOM     16  C   UNL     1       2.344   4.208  20.094  0.00  0.00    +0.000 A 
ATOM     17  C   UNL     1       3.073   3.758  18.985  0.00  0.00    +0.000 A 
ATOM     18  C   UNL     1       3.367   4.666  17.957  0.00  0.00    +0.000 A 
ATOM     19  C   UNL     1       2.953   6.000  18.046  0.00  0.00    +0.000 A 
BRANCH  17  20
ATOM     20  C   UNL     1       3.537   2.324  18.882  0.00  0.00    +0.000 C 
ATOM     21  F   UNL     1       3.958   1.975  17.636  0.00  0.00    +0.000 F 
ATOM     22  F   UNL     1       4.577   2.054  19.719  0.00  0.00    +0.000 F 
ATOM     23  F   UNL     1       2.554   1.439  19.207  0.00  0.00    +0.000 F 
ENDBRANCH  17  20
ENDBRANCH   9  14
TORSDOF 2
ENDMDL
