MODEL 1
REMARK VINA RESULT:      -5.9      0.000      0.000
REMARK  Name = 
REMARK  7 active torsions:
REMARK  status: ('A' for Active; 'I' for Inactive)
REMARK    1  A    between atoms: C_1  and  C_2
REMARK    2  A    between atoms: C_2  and  N_3
REMARK    3  A    between atoms: N_3  and  C_4
REMARK    4  A    between atoms: N_3  and  C_7
REMARK    5  A    between atoms: C_4  and  C_5
REMARK    6  A    between atoms: C_7  and  C_8
REMARK    7  A    between atoms: C_11  and  C_12
REMARK                            x       y       z     vdW  Elec       q    Type
REMARK                         _______ _______ _______ _____ _____    ______ ____
ROOT
ATOM      1  C   UNL     1       5.356   5.361  17.261  0.00  0.00    +0.000 C 
ENDROOT
BRANCH   1   2
ATOM      2  C   UNL     1       4.128   4.566  17.644  0.00  0.00    +0.000 A 
ATOM      3  C   UNL     1       4.166   3.161  17.654  0.00  0.00    +0.000 A 
ATOM      4  C   UNL     1       3.029   2.426  18.005  0.00  0.00    +0.000 A 
ATOM      5  C   UNL     1       1.840   3.085  18.352  0.00  0.00    +0.000 A 
ATOM      6  C   UNL     1       0.608   2.311  18.716  0.00  0.00    +0.000 C 
ATOM      7  C   UNL     1       1.803   4.487  18.355  0.00  0.00    +0.000 A 
ATOM      8  C   UNL     1       2.941   5.221  18.013  0.00  0.00    +0.000 A 
ENDBRANCH   1   2
BRANCH   1   9
ATOM      9  N   UNL     1       6.505   4.501  16.862  0.00  0.00    +0.000 NA
BRANCH   9  11
ATOM     10  C   UNL     1       5.984   4.247  14.377  0.00  0.00    +0.000 C 
ATOM     11  C   UNL     1       6.907   4.821  15.461  0.00  0.00    +0.000 C 
ENDBRANCH   9  11
BRANCH   9  12
ATOM     12  C   UNL     1       7.649   4.676  17.798  0.00  0.00    +0.000 C 
BRANCH  12  13
ATOM     13  C   UNL     1       7.434   5.773  18.852  0.00  0.00    +0.000 C 
ATOM     14 CL   UNL     1       8.102   7.332  18.299  0.00  0.00    +0.000 Cl
ENDBRANCH  12  13
ENDBRANCH   9  12
ENDBRANCH   1   9
TORSDOF 5
ENDMDL
MODEL 2
REMARK VINA RESULT:      -5.6      1.697      1.703
REMARK  Name = 
REMARK  7 active torsions:
REMARK  status: ('A' for Active; 'I' for Inactive)
REMARK    1  A    between atoms: C_1  and  C_2
REMARK    2  A    between atoms: C_2  and  N_3
REMARK    3  A    between atoms: N_3  and  C_4
REMARK    4  A    between atoms: N_3  and  C_7
REMARK    5  A    between atoms: C_4  and  C_5
REMARK    6  A    between atoms: C_7  and  C_8
REMARK    7  A    between atoms: C_11  and  C_12
REMARK                            x       y       z     vdW  Elec       q    Type
REMARK                         _______ _______ _______ _____ _____    ______ ____
ROOT
ATOM      1  C   UNL     1       5.170   5.328  18.039  0.00  0.00    +0.000 C 
ENDROOT
BRANCH   1   2
ATOM      2  C   UNL     1       4.235   4.640  19.009  0.00  0.00    +0.000 A 
ATOM      3  C   UNL     1       4.354   3.261  19.253  0.00  0.00    +0.000 A 
ATOM      4  C   UNL     1       3.487   2.626  20.148  0.00  0.00    +0.000 A 
ATOM      5  C   UNL     1       2.489   3.358  20.809  0.00  0.00    +0.000 A 
ATOM      6  C   UNL     1       1.542   2.688  21.759  0.00  0.00    +0.000 C 
ATOM      7  C   UNL     1       2.377   4.737  20.575  0.00  0.00    +0.000 A 
ATOM      8  C   UNL     1       3.249   5.373  19.690  0.00  0.00    +0.000 A 
ENDBRANCH   1   2
BRANCH   1   9
ATOM      9  N   UNL     1       6.201   4.411  17.475  0.00  0.00    +0.000 NA
BRANCH   9  11
ATOM     10  C   UNL     1       5.498   5.562  15.309  0.00  0.00    +0.000 C 
ATOM     11  C   UNL     1       6.008   4.291  16.000  0.00  0.00    +0.000 C 
ENDBRANCH   9  11
BRANCH   9  12
ATOM     12  C   UNL     1       7.572   4.892  17.797  0.00  0.00    +0.000 C 
BRANCH  12  13
ATOM     13  C   UNL     1       7.604   6.158  18.666  0.00  0.00    +0.000 C 
ATOM     14 CL   UNL     1       7.736   7.624  17.659  0.00  0.00    +0.000 Cl
ENDBRANCH  12  13
ENDBRANCH   9  12
ENDBRANCH   1   9
TORSDOF 5
ENDMDL
MODEL 3
REMARK VINA RESULT:      -5.6      1.297      1.469
REMARK  Name = 
REMARK  7 active torsions:
REMARK  status: ('A' for Active; 'I' for Inactive)
REMARK    1  A    between atoms: C_1  and  C_2
REMARK    2  A    between atoms: C_2  and  N_3
REMARK    3  A    between atoms: N_3  and  C_4
REMARK    4  A    between atoms: N_3  and  C_7
REMARK    5  A    between atoms: C_4  and  C_5
REMARK    6  A    between atoms: C_7  and  C_8
REMARK    7  A    between atoms: C_11  and  C_12
REMARK                            x       y       z     vdW  Elec       q    Type
REMARK                         _______ _______ _______ _____ _____    ______ ____
ROOT
ATOM      1  C   UNL     1       4.558   4.192  16.397  0.00  0.00    +0.000 C 
ENDROOT
BRANCH   1   2
ATOM      2  C   UNL     1       3.697   3.886  17.603  0.00  0.00    +0.000 A 
ATOM      3  C   UNL     1       4.235   3.195  18.702  0.00  0.00    +0.000 A 
ATOM      4  C   UNL     1       3.437   2.909  19.815  0.00  0.00    +0.000 A 
ATOM      5  C   UNL     1       2.093   3.310  19.845  0.00  0.00    +0.000 A 
ATOM      6  C   UNL     1       1.221   2.998  21.024  0.00  0.00    +0.000 C 
ATOM      7  C   UNL     1       1.558   4.011  18.753  0.00  0.00    +0.000 A 
ATOM      8  C   UNL     1       2.357   4.304  17.646  0.00  0.00    +0.000 A 
ENDBRANCH   1   2
BRANCH   1   9
ATOM      9  N   UNL     1       5.892   4.749  16.761  0.00  0.00    +0.000 NA
BRANCH   9  11
ATOM     10  C   UNL     1       6.216   3.947  14.361  0.00  0.00    +0.000 C 
ATOM     11  C   UNL     1       6.830   4.590  15.612  0.00  0.00    +0.000 C 
ENDBRANCH   9  11
BRANCH   9  12
ATOM     12  C   UNL     1       5.778   6.178  17.164  0.00  0.00    +0.000 C 
BRANCH  12  13
ATOM     13  C   UNL     1       7.129   6.878  17.375  0.00  0.00    +0.000 C 
ATOM     14 CL   UNL     1       7.929   6.294  18.858  0.00  0.00    +0.000 Cl
ENDBRANCH  12  13
ENDBRANCH   9  12
ENDBRANCH   1   9
TORSDOF 5
ENDMDL
MODEL 4
REMARK VINA RESULT:      -5.6      1.918      2.886
REMARK  Name = 
REMARK  7 active torsions:
REMARK  status: ('A' for Active; 'I' for Inactive)
REMARK    1  A    between atoms: C_1  and  C_2
REMARK    2  A    between atoms: C_2  and  N_3
REMARK    3  A    between atoms: N_3  and  C_4
REMARK    4  A    between atoms: N_3  and  C_7
REMARK    5  A    between atoms: C_4  and  C_5
REMARK    6  A    between atoms: C_7  and  C_8
REMARK    7  A    between atoms: C_11  and  C_12
REMARK                            x       y       z     vdW  Elec       q    Type
REMARK                         _______ _______ _______ _____ _____    ______ ____
ROOT
ATOM      1  C   UNL     1       6.152   5.259  19.297  0.00  0.00    +0.000 C 
ENDROOT
BRANCH   1   2
ATOM      2  C   UNL     1       4.799   4.614  19.097  0.00  0.00    +0.000 A 
ATOM      3  C   UNL     1       3.772   5.307  18.434  0.00  0.00    +0.000 A 
ATOM      4  C   UNL     1       2.520   4.711  18.253  0.00  0.00    +0.000 A 
ATOM      5  C   UNL     1       2.277   3.414  18.731  0.00  0.00    +0.000 A 
ATOM      6  C   UNL     1       0.936   2.767  18.558  0.00  0.00    +0.000 C 
ATOM      7  C   UNL     1       3.306   2.716  19.383  0.00  0.00    +0.000 A 
ATOM      8  C   UNL     1       4.558   3.308  19.555  0.00  0.00    +0.000 A 
ENDBRANCH   1   2
BRANCH   1   9
ATOM      9  N   UNL     1       6.734   5.794  18.033  0.00  0.00    +0.000 NA
BRANCH   9  11
ATOM     10  C   UNL     1       7.780   8.073  17.563  0.00  0.00    +0.000 C 
ATOM     11  C   UNL     1       7.825   6.760  18.355  0.00  0.00    +0.000 C 
ENDBRANCH   9  11
BRANCH   9  12
ATOM     12  C   UNL     1       7.236   4.689  17.171  0.00  0.00    +0.000 C 
BRANCH  12  13
ATOM     13  C   UNL     1       6.914   4.863  15.679  0.00  0.00    +0.000 C 
ATOM     14 CL   UNL     1       5.302   4.206  15.290  0.00  0.00    +0.000 Cl
ENDBRANCH  12  13
ENDBRANCH   9  12
ENDBRANCH   1   9
TORSDOF 5
ENDMDL
MODEL 5
REMARK VINA RESULT:      -5.5      0.970      1.054
REMARK  Name = 
REMARK  7 active torsions:
REMARK  status: ('A' for Active; 'I' for Inactive)
REMARK    1  A    between atoms: C_1  and  C_2
REMARK    2  A    between atoms: C_2  and  N_3
REMARK    3  A    between atoms: N_3  and  C_4
REMARK    4  A    between atoms: N_3  and  C_7
REMARK    5  A    between atoms: C_4  and  C_5
REMARK    6  A    between atoms: C_7  and  C_8
REMARK    7  A    between atoms: C_11  and  C_12
REMARK                            x       y       z     vdW  Elec       q    Type
REMARK                         _______ _______ _______ _____ _____    ______ ____
ROOT
ATOM      1  C   UNL     1       5.274   5.703  17.428  0.00  0.00    +0.000 C 
ENDROOT
BRANCH   1   2
ATOM      2  C   UNL     1       4.095   5.052  18.115  0.00  0.00    +0.000 A 
ATOM      3  C   UNL     1       3.307   4.108  17.433  0.00  0.00    +0.000 A 
ATOM      4  C   UNL     1       2.215   3.509  18.069  0.00  0.00    +0.000 A 
ATOM      5  C   UNL     1       1.895   3.844  19.393  0.00  0.00    +0.000 A 
ATOM      6  C   UNL     1       0.718   3.222  20.083  0.00  0.00    +0.000 C 
ATOM      7  C   UNL     1       2.688   4.776  20.080  0.00  0.00    +0.000 A 
ATOM      8  C   UNL     1       3.784   5.367  19.448  0.00  0.00    +0.000 A 
ENDBRANCH   1   2
BRANCH   1   9
ATOM      9  N   UNL     1       6.273   4.717  16.928  0.00  0.00    +0.000 NA
BRANCH   9  11
ATOM     10  C   UNL     1       5.661   4.265  14.493  0.00  0.00    +0.000 C 
ATOM     11  C   UNL     1       6.571   4.991  15.492  0.00  0.00    +0.000 C 
ENDBRANCH   9  11
BRANCH   9  12
ATOM     12  C   UNL     1       7.515   4.757  17.748  0.00  0.00    +0.000 C 
BRANCH  12  13
ATOM     13  C   UNL     1       7.490   5.806  18.871  0.00  0.00    +0.000 C 
ATOM     14 CL   UNL     1       8.140   7.367  18.304  0.00  0.00    +0.000 Cl
ENDBRANCH  12  13
ENDBRANCH   9  12
ENDBRANCH   1   9
TORSDOF 5
ENDMDL
MODEL 6
REMARK VINA RESULT:      -5.5      1.433      1.711
REMARK  Name = 
REMARK  7 active torsions:
REMARK  status: ('A' for Active; 'I' for Inactive)
REMARK    1  A    between atoms: C_1  and  C_2
REMARK    2  A    between atoms: C_2  and  N_3
REMARK    3  A    between atoms: N_3  and  C_4
REMARK    4  A    between atoms: N_3  and  C_7
REMARK    5  A    between atoms: C_4  and  C_5
REMARK    6  A    between atoms: C_7  and  C_8
REMARK    7  A    between atoms: C_11  and  C_12
REMARK                            x       y       z     vdW  Elec       q    Type
REMARK                         _______ _______ _______ _____ _____    ______ ____
ROOT
ATOM      1  C   UNL     1       4.607   5.588  16.869  0.00  0.00    +0.000 C 
ENDROOT
BRANCH   1   2
ATOM      2  C   UNL     1       3.667   4.986  17.891  0.00  0.00    +0.000 A 
ATOM      3  C   UNL     1       3.800   5.306  19.253  0.00  0.00    +0.000 A 
ATOM      4  C   UNL     1       2.933   4.746  20.197  0.00  0.00    +0.000 A 
ATOM      5  C   UNL     1       1.922   3.860  19.792  0.00  0.00    +0.000 A 
ATOM      6  C   UNL     1       0.994   3.240  20.794  0.00  0.00    +0.000 C 
ATOM      7  C   UNL     1       1.781   3.550  18.431  0.00  0.00    +0.000 A 
ATOM      8  C   UNL     1       2.640   4.117  17.488  0.00  0.00    +0.000 A 
ENDBRANCH   1   2
BRANCH   1   9
ATOM      9  N   UNL     1       5.941   4.926  16.845  0.00  0.00    +0.000 NA
BRANCH   9  11
ATOM     10  C   UNL     1       6.049   4.359  14.360  0.00  0.00    +0.000 C 
ATOM     11  C   UNL     1       5.948   3.855  15.805  0.00  0.00    +0.000 C 
ENDBRANCH   9  11
BRANCH   9  12
ATOM     12  C   UNL     1       7.022   5.918  16.596  0.00  0.00    +0.000 C 
BRANCH  12  13
ATOM     13  C   UNL     1       7.408   6.747  17.830  0.00  0.00    +0.000 C 
ATOM     14 CL   UNL     1       7.506   5.722  19.286  0.00  0.00    +0.000 Cl
ENDBRANCH  12  13
ENDBRANCH   9  12
ENDBRANCH   1   9
TORSDOF 5
ENDMDL
MODEL 7
REMARK VINA RESULT:      -5.4      1.368      1.811
REMARK  Name = 
REMARK  7 active torsions:
REMARK  status: ('A' for Active; 'I' for Inactive)
REMARK    1  A    between atoms: C_1  and  C_2
REMARK    2  A    between atoms: C_2  and  N_3
REMARK    3  A    between atoms: N_3  and  C_4
REMARK    4  A    between atoms: N_3  and  C_7
REMARK    5  A    between atoms: C_4  and  C_5
REMARK    6  A    between atoms: C_7  and  C_8
REMARK    7  A    between atoms: C_11  and  C_12
REMARK                            x       y       z     vdW  Elec       q    Type
REMARK                         _______ _______ _______ _____ _____    ______ ____
ROOT
ATOM      1  C   UNL     1       4.754   5.142  17.025  0.00  0.00    +0.000 C 
ENDROOT
BRANCH   1   2
ATOM      2  C   UNL     1       3.855   4.543  18.084  0.00  0.00    +0.000 A 
ATOM      3  C   UNL     1       2.523   4.974  18.211  0.00  0.00    +0.000 A 
ATOM      4  C   UNL     1       1.693   4.422  19.192  0.00  0.00    +0.000 A 
ATOM      5  C   UNL     1       2.182   3.432  20.058  0.00  0.00    +0.000 A 
ATOM      6  C   UNL     1       1.309   2.842  21.125  0.00  0.00    +0.000 C 
ATOM      7  C   UNL     1       3.508   2.992  19.925  0.00  0.00    +0.000 A 
ATOM      8  C   UNL     1       4.333   3.537  18.939  0.00  0.00    +0.000 A 
ENDBRANCH   1   2
BRANCH   1   9
ATOM      9  N   UNL     1       6.164   4.670  17.125  0.00  0.00    +0.000 NA
BRANCH   9  11
ATOM     10  C   UNL     1       5.653   4.487  14.632  0.00  0.00    +0.000 C 
ATOM     11  C   UNL     1       6.648   4.254  15.776  0.00  0.00    +0.000 C 
ENDBRANCH   9  11
BRANCH   9  12
ATOM     12  C   UNL     1       7.038   5.728  17.703  0.00  0.00    +0.000 C 
BRANCH  12  13
ATOM     13  C   UNL     1       6.689   7.151  17.241  0.00  0.00    +0.000 C 
ATOM     14 CL   UNL     1       7.943   8.314  17.744  0.00  0.00    +0.000 Cl
ENDBRANCH  12  13
ENDBRANCH   9  12
ENDBRANCH   1   9
TORSDOF 5
ENDMDL
MODEL 8
REMARK VINA RESULT:      -5.4      3.013      5.728
REMARK  Name = 
REMARK  7 active torsions:
REMARK  status: ('A' for Active; 'I' for Inactive)
REMARK    1  A    between atoms: C_1  and  C_2
REMARK    2  A    between atoms: C_2  and  N_3
REMARK    3  A    between atoms: N_3  and  C_4
REMARK    4  A    between atoms: N_3  and  C_7
REMARK    5  A    between atoms: C_4  and  C_5
REMARK    6  A    between atoms: C_7  and  C_8
REMARK    7  A    between atoms: C_11  and  C_12
REMARK                            x       y       z     vdW  Elec       q    Type
REMARK                         _______ _______ _______ _____ _____    ______ ____
ROOT
ATOM      1  C   UNL     1       2.152   5.222  19.095  0.00  0.00    +0.000 C 
ENDROOT
BRANCH   1   2
ATOM      2  C   UNL     1       3.551   5.609  18.673  0.00  0.00    +0.000 A 
ATOM      3  C   UNL     1       4.668   5.019  19.288  0.00  0.00    +0.000 A 
ATOM      4  C   UNL     1       5.962   5.380  18.899  0.00  0.00    +0.000 A 
ATOM      5  C   UNL     1       6.157   6.335  17.890  0.00  0.00    +0.000 A 
ATOM      6  C   UNL     1       7.538   6.745  17.472  0.00  0.00    +0.000 C 
ATOM      7  C   UNL     1       5.043   6.917  17.266  0.00  0.00    +0.000 A 
ATOM      8  C   UNL     1       3.752   6.549  17.648  0.00  0.00    +0.000 A 
ENDBRANCH   1   2
BRANCH   1   9
ATOM      9  N   UNL     1       2.037   3.788  19.484  0.00  0.00    +0.000 NA
BRANCH   9  11
ATOM     10  C   UNL     1       1.691   2.647  21.739  0.00  0.00    +0.000 C 
ATOM     11  C   UNL     1       1.193   3.668  20.708  0.00  0.00    +0.000 C 
ENDBRANCH   9  11
BRANCH   9  12
ATOM     12  C   UNL     1       1.477   2.978  18.367  0.00  0.00    +0.000 C 
BRANCH  12  13
ATOM     13  C   UNL     1       2.538   2.253  17.526  0.00  0.00    +0.000 C 
ATOM     14 CL   UNL     1       3.634   1.300  18.560  0.00  0.00    +0.000 Cl
ENDBRANCH  12  13
ENDBRANCH   9  12
ENDBRANCH   1   9
TORSDOF 5
ENDMDL
MODEL 9
REMARK VINA RESULT:      -5.4      1.968      2.267
REMARK  Name = 
REMARK  7 active torsions:
REMARK  status: ('A' for Active; 'I' for Inactive)
REMARK    1  A    between atoms: C_1  and  C_2
REMARK    2  A    between atoms: C_2  and  N_3
REMARK    3  A    between atoms: N_3  and  C_4
REMARK    4  A    between atoms: N_3  and  C_7
REMARK    5  A    between atoms: C_4  and  C_5
REMARK    6  A    between atoms: C_7  and  C_8
REMARK    7  A    between atoms: C_11  and  C_12
REMARK                            x       y       z     vdW  Elec       q    Type
REMARK                         _______ _______ _______ _____ _____    ______ ____
ROOT
ATOM      1  C   UNL     1       4.905   3.643  16.443  0.00  0.00    +0.000 C 
ENDROOT
BRANCH   1   2
ATOM      2  C   UNL     1       3.901   3.526  17.568  0.00  0.00    +0.000 A 
ATOM      3  C   UNL     1       4.333   3.499  18.905  0.00  0.00    +0.000 A 
ATOM      4  C   UNL     1       3.404   3.388  19.945  0.00  0.00    +0.000 A 
ATOM      5  C   UNL     1       2.032   3.303  19.663  0.00  0.00    +0.000 A 
ATOM      6  C   UNL     1       1.025   3.168  20.766  0.00  0.00    +0.000 C 
ATOM      7  C   UNL     1       1.598   3.342  18.329  0.00  0.00    +0.000 A 
ATOM      8  C   UNL     1       2.525   3.463  17.292  0.00  0.00    +0.000 A 
ENDBRANCH   1   2
BRANCH   1   9
ATOM      9  N   UNL     1       5.783   4.840  16.568  0.00  0.00    +0.000 NA
BRANCH   9  11
ATOM     10  C   UNL     1       6.740   4.664  14.210  0.00  0.00    +0.000 C 
ATOM     11  C   UNL     1       6.999   4.659  15.722  0.00  0.00    +0.000 C 
ENDBRANCH   9  11
BRANCH   9  12
ATOM     12  C   UNL     1       5.049   6.079  16.189  0.00  0.00    +0.000 C 
BRANCH  12  13
ATOM     13  C   UNL     1       4.836   7.060  17.352  0.00  0.00    +0.000 C 
ATOM     14 CL   UNL     1       3.146   7.022  17.921  0.00  0.00    +0.000 Cl
ENDBRANCH  12  13
ENDBRANCH   9  12
ENDBRANCH   1   9
TORSDOF 5
ENDMDL
