MODEL 1
REMARK VINA RESULT:      -7.4      0.000      0.000
REMARK  Name = 
REMARK  7 active torsions:
REMARK  status: ('A' for Active; 'I' for Inactive)
REMARK    1  A    between atoms: C_1  and  O_2
REMARK    2  A    between atoms: O_2  and  C_3
REMARK    3  A    between atoms: C_6  and  C_7
REMARK    4  A    between atoms: N_8  and  N_9
REMARK    5  A    between atoms: C_10  and  C_12
REMARK    6  A    between atoms: C_12  and  N_13
REMARK    7  A    between atoms: C_14  and  C_16
REMARK                            x       y       z     vdW  Elec       q    Type
REMARK                         _______ _______ _______ _____ _____    ______ ____
ROOT
ATOM      1  N   UNL     1       7.663   6.909  17.921  0.00  0.00    +0.000 N 
ATOM      2  C   UNL     1       7.684   5.699  18.607  0.00  0.00    +0.000 C 
ATOM      3  O   UNL     1       8.298   5.487  19.653  0.00  0.00    +0.000 OA
ATOM      4  H   UNL     1       7.260   6.973  16.990  0.00  0.00    +0.000 HD
ENDROOT
BRANCH   1   6
ATOM      5  C   UNL     1       8.143   9.132  17.928  0.00  0.00    +0.000 C 
ATOM      6  N   UNL     1       8.331   7.969  18.461  0.00  0.00    +0.000 NA
BRANCH   5  10
ATOM      7  C   UNL     1      10.206  12.553  19.482  0.00  0.00    +0.000 A 
ATOM      8  C   UNL     1       9.551  12.629  18.252  0.00  0.00    +0.000 A 
ATOM      9  C   UNL     1       8.860  11.522  17.749  0.00  0.00    +0.000 A 
ATOM     10  C   UNL     1       8.840  10.323  18.467  0.00  0.00    +0.000 A 
ATOM     11  C   UNL     1       9.501  10.239  19.697  0.00  0.00    +0.000 A 
ATOM     12  C   UNL     1      10.183  11.354  20.201  0.00  0.00    +0.000 A 
BRANCH   7  14
ATOM     13  C   UNL     1      12.054  13.985  19.128  0.00  0.00    +0.000 C 
ATOM     14  O   UNL     1      10.871  13.687  19.861  0.00  0.00    +0.000 OA
ENDBRANCH   7  14
ENDBRANCH   5  10
ENDBRANCH   1   6
BRANCH   2  15
ATOM     15  C   UNL     1       6.932   4.576  17.905  0.00  0.00    +0.000 C 
BRANCH  15  16
ATOM     16  N   UNL     1       5.813   4.126  18.704  0.00  0.00    +0.000 N 
ATOM     17  C   UNL     1       4.621   4.816  18.759  0.00  0.00    +0.000 C 
ATOM     18  O   UNL     1       4.471   5.863  18.132  0.00  0.00    +0.000 OA
ATOM     19  H   UNL     1       5.837   3.188  19.081  0.00  0.00    +0.000 HD
BRANCH  17  20
ATOM     20  C   UNL     1       3.586   4.214  19.593  0.00  0.00    +0.000 A 
ATOM     21  C   UNL     1       3.476   2.886  19.970  0.00  0.00    +0.000 A 
ATOM     22  C   UNL     1       2.340   2.641  20.798  0.00  0.00    +0.000 A 
ATOM     23  C   UNL     1       1.609   3.786  21.022  0.00  0.00    +0.000 A 
ATOM     24  S   UNL     1       2.292   5.141  20.241  0.00  0.00    +0.000 S 
ENDBRANCH  17  20
ENDBRANCH  15  16
ENDBRANCH   2  15
TORSDOF 6
ENDMDL
MODEL 2
REMARK VINA RESULT:      -7.2      1.088      1.581
REMARK  Name = 
REMARK  7 active torsions:
REMARK  status: ('A' for Active; 'I' for Inactive)
REMARK    1  A    between atoms: C_1  and  O_2
REMARK    2  A    between atoms: O_2  and  C_3
REMARK    3  A    between atoms: C_6  and  C_7
REMARK    4  A    between atoms: N_8  and  N_9
REMARK    5  A    between atoms: C_10  and  C_12
REMARK    6  A    between atoms: C_12  and  N_13
REMARK    7  A    between atoms: C_14  and  C_16
REMARK                            x       y       z     vdW  Elec       q    Type
REMARK                         _______ _______ _______ _____ _____    ______ ____
ROOT
ATOM      1  N   UNL     1       7.564   7.047  17.849  0.00  0.00    +0.000 N 
ATOM      2  C   UNL     1       7.434   5.862  18.566  0.00  0.00    +0.000 C 
ATOM      3  O   UNL     1       7.996   5.613  19.634  0.00  0.00    +0.000 OA
ATOM      4  H   UNL     1       7.193   7.128  16.906  0.00  0.00    +0.000 HD
ENDROOT
BRANCH   1   6
ATOM      5  C   UNL     1       8.102   9.252  17.988  0.00  0.00    +0.000 C 
ATOM      6  N   UNL     1       8.332   8.041  18.380  0.00  0.00    +0.000 NA
BRANCH   5  10
ATOM      7  C   UNL     1      10.373  12.537  19.547  0.00  0.00    +0.000 A 
ATOM      8  C   UNL     1      10.268  11.350  20.273  0.00  0.00    +0.000 A 
ATOM      9  C   UNL     1       9.545  10.268  19.762  0.00  0.00    +0.000 A 
ATOM     10  C   UNL     1       8.902  10.377  18.526  0.00  0.00    +0.000 A 
ATOM     11  C   UNL     1       8.998  11.566  17.795  0.00  0.00    +0.000 A 
ATOM     12  C   UNL     1       9.733  12.643  18.308  0.00  0.00    +0.000 A 
BRANCH   7  14
ATOM     13  C   UNL     1      10.311  14.480  20.891  0.00  0.00    +0.000 C 
ATOM     14  O   UNL     1      11.082  13.535  20.156  0.00  0.00    +0.000 OA
ENDBRANCH   7  14
ENDBRANCH   5  10
ENDBRANCH   1   6
BRANCH   2  15
ATOM     15  C   UNL     1       6.580   4.809  17.872  0.00  0.00    +0.000 C 
BRANCH  15  16
ATOM     16  N   UNL     1       5.393   4.516  18.646  0.00  0.00    +0.000 N 
ATOM     17  C   UNL     1       4.212   4.110  18.062  0.00  0.00    +0.000 C 
ATOM     18  O   UNL     1       4.122   3.994  16.841  0.00  0.00    +0.000 OA
ATOM     19  H   UNL     1       5.482   4.425  19.649  0.00  0.00    +0.000 HD
BRANCH  17  20
ATOM     20  C   UNL     1       3.118   3.832  18.987  0.00  0.00    +0.000 A 
ATOM     21  C   UNL     1       1.833   4.348  18.949  0.00  0.00    +0.000 A 
ATOM     22  C   UNL     1       1.012   3.858  20.008  0.00  0.00    +0.000 A 
ATOM     23  C   UNL     1       1.695   2.990  20.830  0.00  0.00    +0.000 A 
ATOM     24  S   UNL     1       3.310   2.770  20.324  0.00  0.00    +0.000 S 
ENDBRANCH  17  20
ENDBRANCH  15  16
ENDBRANCH   2  15
TORSDOF 6
ENDMDL
MODEL 3
REMARK VINA RESULT:      -7.1      1.534      1.838
REMARK  Name = 
REMARK  7 active torsions:
REMARK  status: ('A' for Active; 'I' for Inactive)
REMARK    1  A    between atoms: C_1  and  O_2
REMARK    2  A    between atoms: O_2  and  C_3
REMARK    3  A    between atoms: C_6  and  C_7
REMARK    4  A    between atoms: N_8  and  N_9
REMARK    5  A    between atoms: C_10  and  C_12
REMARK    6  A    between atoms: C_12  and  N_13
REMARK    7  A    between atoms: C_14  and  C_16
REMARK                            x       y       z     vdW  Elec       q    Type
REMARK                         _______ _______ _______ _____ _____    ______ ____
ROOT
ATOM      1  N   UNL     1       7.417   6.413  17.122  0.00  0.00    +0.000 N 
ATOM      2  C   UNL     1       6.348   6.009  16.328  0.00  0.00    +0.000 C 
ATOM      3  O   UNL     1       5.584   6.766  15.729  0.00  0.00    +0.000 OA
ATOM      4  H   UNL     1       7.914   5.745  17.705  0.00  0.00    +0.000 HD
ENDROOT
BRANCH   1   6
ATOM      5  C   UNL     1       8.315   8.161  18.265  0.00  0.00    +0.000 C 
ATOM      6  N   UNL     1       7.683   7.747  17.217  0.00  0.00    +0.000 NA
BRANCH   5  10
ATOM      7  C   UNL     1       9.285  12.311  18.727  0.00  0.00    +0.000 A 
ATOM      8  C   UNL     1       8.438  11.900  17.697  0.00  0.00    +0.000 A 
ATOM      9  C   UNL     1       8.103  10.550  17.553  0.00  0.00    +0.000 A 
ATOM     10  C   UNL     1       8.633   9.599  18.429  0.00  0.00    +0.000 A 
ATOM     11  C   UNL     1       9.487  10.004  19.460  0.00  0.00    +0.000 A 
ATOM     12  C   UNL     1       9.812  11.359  19.606  0.00  0.00    +0.000 A 
BRANCH   7  14
ATOM     13  C   UNL     1      10.662  14.069  17.951  0.00  0.00    +0.000 C 
ATOM     14  O   UNL     1       9.565  13.650  18.755  0.00  0.00    +0.000 OA
ENDBRANCH   7  14
ENDBRANCH   5  10
ENDBRANCH   1   6
BRANCH   2  15
ATOM     15  C   UNL     1       6.122   4.503  16.314  0.00  0.00    +0.000 C 
BRANCH  15  16
ATOM     16  N   UNL     1       4.849   4.167  16.915  0.00  0.00    +0.000 N 
ATOM     17  C   UNL     1       4.706   3.951  18.268  0.00  0.00    +0.000 C 
ATOM     18  O   UNL     1       5.674   4.023  19.022  0.00  0.00    +0.000 OA
ATOM     19  H   UNL     1       4.011   4.278  16.359  0.00  0.00    +0.000 HD
BRANCH  17  20
ATOM     20  C   UNL     1       3.350   3.645  18.714  0.00  0.00    +0.000 A 
ATOM     21  C   UNL     1       2.487   2.696  18.195  0.00  0.00    +0.000 A 
ATOM     22  C   UNL     1       1.234   2.658  18.876  0.00  0.00    +0.000 A 
ATOM     23  C   UNL     1       1.172   3.587  19.891  0.00  0.00    +0.000 A 
ATOM     24  S   UNL     1       2.614   4.491  20.017  0.00  0.00    +0.000 S 
ENDBRANCH  17  20
ENDBRANCH  15  16
ENDBRANCH   2  15
TORSDOF 6
ENDMDL
MODEL 4
REMARK VINA RESULT:      -7.1      1.615      2.100
REMARK  Name = 
REMARK  7 active torsions:
REMARK  status: ('A' for Active; 'I' for Inactive)
REMARK    1  A    between atoms: C_1  and  O_2
REMARK    2  A    between atoms: O_2  and  C_3
REMARK    3  A    between atoms: C_6  and  C_7
REMARK    4  A    between atoms: N_8  and  N_9
REMARK    5  A    between atoms: C_10  and  C_12
REMARK    6  A    between atoms: C_12  and  N_13
REMARK    7  A    between atoms: C_14  and  C_16
REMARK                            x       y       z     vdW  Elec       q    Type
REMARK                         _______ _______ _______ _____ _____    ______ ____
ROOT
ATOM      1  N   UNL     1       7.334   6.940  17.077  0.00  0.00    +0.000 N 
ATOM      2  C   UNL     1       5.998   6.551  17.039  0.00  0.00    +0.000 C 
ATOM      3  O   UNL     1       5.038   7.294  17.245  0.00  0.00    +0.000 OA
ATOM      4  H   UNL     1       8.078   6.248  17.045  0.00  0.00    +0.000 HD
ENDROOT
BRANCH   1   6
ATOM      5  C   UNL     1       8.451   8.527  18.261  0.00  0.00    +0.000 C 
ATOM      6  N   UNL     1       7.618   8.253  17.311  0.00  0.00    +0.000 NA
BRANCH   5  10
ATOM      7  C   UNL     1       9.411  12.609  19.151  0.00  0.00    +0.000 A 
ATOM      8  C   UNL     1       9.725  11.600  20.063  0.00  0.00    +0.000 A 
ATOM      9  C   UNL     1       9.431  10.265  19.770  0.00  0.00    +0.000 A 
ATOM     10  C   UNL     1       8.801   9.933  18.568  0.00  0.00    +0.000 A 
ATOM     11  C   UNL     1       8.478  10.940  17.652  0.00  0.00    +0.000 A 
ATOM     12  C   UNL     1       8.783  12.275  17.946  0.00  0.00    +0.000 A 
BRANCH   7  14
ATOM     13  C   UNL     1      10.327  13.989  20.837  0.00  0.00    +0.000 C 
ATOM     14  O   UNL     1       9.719  13.879  19.554  0.00  0.00    +0.000 OA
ENDBRANCH   7  14
ENDBRANCH   5  10
ENDBRANCH   1   6
BRANCH   2  15
ATOM     15  C   UNL     1       5.793   5.061  16.798  0.00  0.00    +0.000 C 
BRANCH  15  16
ATOM     16  N   UNL     1       4.538   4.616  17.363  0.00  0.00    +0.000 N 
ATOM     17  C   UNL     1       4.451   4.060  18.621  0.00  0.00    +0.000 C 
ATOM     18  O   UNL     1       5.457   3.907  19.312  0.00  0.00    +0.000 OA
ATOM     19  H   UNL     1       3.680   4.889  16.904  0.00  0.00    +0.000 HD
BRANCH  17  20
ATOM     20  C   UNL     1       3.107   3.686  19.050  0.00  0.00    +0.000 A 
ATOM     21  C   UNL     1       2.389   4.204  20.114  0.00  0.00    +0.000 A 
ATOM     22  C   UNL     1       1.097   3.613  20.247  0.00  0.00    +0.000 A 
ATOM     23  C   UNL     1       0.869   2.653  19.287  0.00  0.00    +0.000 A 
ATOM     24  S   UNL     1       2.202   2.472  18.237  0.00  0.00    +0.000 S 
ENDBRANCH  17  20
ENDBRANCH  15  16
ENDBRANCH   2  15
TORSDOF 6
ENDMDL
MODEL 5
REMARK VINA RESULT:      -7.0      1.218      1.687
REMARK  Name = 
REMARK  7 active torsions:
REMARK  status: ('A' for Active; 'I' for Inactive)
REMARK    1  A    between atoms: C_1  and  O_2
REMARK    2  A    between atoms: O_2  and  C_3
REMARK    3  A    between atoms: C_6  and  C_7
REMARK    4  A    between atoms: N_8  and  N_9
REMARK    5  A    between atoms: C_10  and  C_12
REMARK    6  A    between atoms: C_12  and  N_13
REMARK    7  A    between atoms: C_14  and  C_16
REMARK                            x       y       z     vdW  Elec       q    Type
REMARK                         _______ _______ _______ _____ _____    ______ ____
ROOT
ATOM      1  N   UNL     1       7.690   7.365  17.624  0.00  0.00    +0.000 N 
ATOM      2  C   UNL     1       7.583   6.102  18.199  0.00  0.00    +0.000 C 
ATOM      3  O   UNL     1       8.049   5.779  19.292  0.00  0.00    +0.000 OA
ATOM      4  H   UNL     1       7.415   7.522  16.659  0.00  0.00    +0.000 HD
ENDROOT
BRANCH   1   6
ATOM      5  C   UNL     1       8.345   9.534  17.823  0.00  0.00    +0.000 C 
ATOM      6  N   UNL     1       8.315   8.347  18.335  0.00  0.00    +0.000 NA
BRANCH   5  10
ATOM      7  C   UNL     1      10.224  12.774  19.907  0.00  0.00    +0.000 A 
ATOM      8  C   UNL     1      10.033  11.547  20.545  0.00  0.00    +0.000 A 
ATOM      9  C   UNL     1       9.438  10.480  19.864  0.00  0.00    +0.000 A 
ATOM     10  C   UNL     1       9.010  10.644  18.544  0.00  0.00    +0.000 A 
ATOM     11  C   UNL     1       9.193  11.873  17.902  0.00  0.00    +0.000 A 
ATOM     12  C   UNL     1       9.799  12.935  18.585  0.00  0.00    +0.000 A 
BRANCH   7  14
ATOM     13  C   UNL     1       9.953  14.306  21.687  0.00  0.00    +0.000 C 
ATOM     14  O   UNL     1      10.791  13.751  20.678  0.00  0.00    +0.000 OA
ENDBRANCH   7  14
ENDBRANCH   5  10
ENDBRANCH   1   6
BRANCH   2  15
ATOM     15  C   UNL     1       6.894   5.074  17.311  0.00  0.00    +0.000 C 
BRANCH  15  16
ATOM     16  N   UNL     1       5.627   4.669  17.880  0.00  0.00    +0.000 N 
ATOM     17  C   UNL     1       4.445   5.313  17.586  0.00  0.00    +0.000 C 
ATOM     18  O   UNL     1       4.429   6.281  16.827  0.00  0.00    +0.000 OA
ATOM     19  H   UNL     1       5.576   3.778  18.356  0.00  0.00    +0.000 HD
BRANCH  17  20
ATOM     20  C   UNL     1       3.254   4.763  18.224  0.00  0.00    +0.000 A 
ATOM     21  C   UNL     1       2.221   4.066  17.620  0.00  0.00    +0.000 A 
ATOM     22  C   UNL     1       1.212   3.666  18.546  0.00  0.00    +0.000 A 
ATOM     23  C   UNL     1       1.497   4.077  19.829  0.00  0.00    +0.000 A 
ATOM     24  S   UNL     1       2.970   4.935  19.911  0.00  0.00    +0.000 S 
ENDBRANCH  17  20
ENDBRANCH  15  16
ENDBRANCH   2  15
TORSDOF 6
ENDMDL
MODEL 6
REMARK VINA RESULT:      -7.0      1.509      1.951
REMARK  Name = 
REMARK  7 active torsions:
REMARK  status: ('A' for Active; 'I' for Inactive)
REMARK    1  A    between atoms: C_1  and  O_2
REMARK    2  A    between atoms: O_2  and  C_3
REMARK    3  A    between atoms: C_6  and  C_7
REMARK    4  A    between atoms: N_8  and  N_9
REMARK    5  A    between atoms: C_10  and  C_12
REMARK    6  A    between atoms: C_12  and  N_13
REMARK    7  A    between atoms: C_14  and  C_16
REMARK                            x       y       z     vdW  Elec       q    Type
REMARK                         _______ _______ _______ _____ _____    ______ ____
ROOT
ATOM      1  N   UNL     1       7.719   6.601  17.847  0.00  0.00    +0.000 N 
ATOM      2  C   UNL     1       6.949   6.039  16.834  0.00  0.00    +0.000 C 
ATOM      3  O   UNL     1       6.324   6.673  15.983  0.00  0.00    +0.000 OA
ATOM      4  H   UNL     1       8.085   6.027  18.602  0.00  0.00    +0.000 HD
ENDROOT
BRANCH   1   6
ATOM      5  C   UNL     1       8.718   8.460  18.696  0.00  0.00    +0.000 C 
ATOM      6  N   UNL     1       7.843   7.959  17.887  0.00  0.00    +0.000 NA
BRANCH   5  10
ATOM      7  C   UNL     1       9.192  12.712  18.959  0.00  0.00    +0.000 A 
ATOM      8  C   UNL     1       9.576  11.897  20.025  0.00  0.00    +0.000 A 
ATOM      9  C   UNL     1       9.441  10.507  19.938  0.00  0.00    +0.000 A 
ATOM     10  C   UNL     1       8.900   9.927  18.787  0.00  0.00    +0.000 A 
ATOM     11  C   UNL     1       8.509  10.739  17.718  0.00  0.00    +0.000 A 
ATOM     12  C   UNL     1       8.655  12.129  17.807  0.00  0.00    +0.000 A 
BRANCH   7  14
ATOM     13  C   UNL     1      10.572  14.615  18.712  0.00  0.00    +0.000 C 
ATOM     14  O   UNL     1       9.344  14.055  19.166  0.00  0.00    +0.000 OA
ENDBRANCH   7  14
ENDBRANCH   5  10
ENDBRANCH   1   6
BRANCH   2  15
ATOM     15  C   UNL     1       6.854   4.520  16.899  0.00  0.00    +0.000 C 
BRANCH  15  16
ATOM     16  N   UNL     1       5.512   4.102  17.241  0.00  0.00    +0.000 N 
ATOM     17  C   UNL     1       5.055   4.074  18.541  0.00  0.00    +0.000 C 
ATOM     18  O   UNL     1       5.791   4.397  19.472  0.00  0.00    +0.000 OA
ATOM     19  H   UNL     1       4.833   4.007  16.497  0.00  0.00    +0.000 HD
BRANCH  17  20
ATOM     20  C   UNL     1       3.669   3.650  18.711  0.00  0.00    +0.000 A 
ATOM     21  C   UNL     1       2.823   3.135  17.744  0.00  0.00    +0.000 A 
ATOM     22  C   UNL     1       1.529   2.818  18.256  0.00  0.00    +0.000 A 
ATOM     23  C   UNL     1       1.422   3.109  19.598  0.00  0.00    +0.000 A 
ATOM     24  S   UNL     1       2.869   3.756  20.228  0.00  0.00    +0.000 S 
ENDBRANCH  17  20
ENDBRANCH  15  16
ENDBRANCH   2  15
TORSDOF 6
ENDMDL
MODEL 7
REMARK VINA RESULT:      -6.9      1.642      2.018
REMARK  Name = 
REMARK  7 active torsions:
REMARK  status: ('A' for Active; 'I' for Inactive)
REMARK    1  A    between atoms: C_1  and  O_2
REMARK    2  A    between atoms: O_2  and  C_3
REMARK    3  A    between atoms: C_6  and  C_7
REMARK    4  A    between atoms: N_8  and  N_9
REMARK    5  A    between atoms: C_10  and  C_12
REMARK    6  A    between atoms: C_12  and  N_13
REMARK    7  A    between atoms: C_14  and  C_16
REMARK                            x       y       z     vdW  Elec       q    Type
REMARK                         _______ _______ _______ _____ _____    ______ ____
ROOT
ATOM      1  N   UNL     1       7.148   7.267  17.261  0.00  0.00    +0.000 N 
ATOM      2  C   UNL     1       7.442   6.113  17.981  0.00  0.00    +0.000 C 
ATOM      3  O   UNL     1       7.943   6.087  19.106  0.00  0.00    +0.000 OA
ATOM      4  H   UNL     1       6.876   7.215  16.284  0.00  0.00    +0.000 HD
ENDROOT
BRANCH   1   6
ATOM      5  C   UNL     1       8.585   8.944  17.803  0.00  0.00    +0.000 C 
ATOM      6  N   UNL     1       7.382   8.474  17.852  0.00  0.00    +0.000 NA
BRANCH   5  10
ATOM      7  C   UNL     1       9.460  12.732  19.608  0.00  0.00    +0.000 A 
ATOM      8  C   UNL     1       9.676  11.550  20.319  0.00  0.00    +0.000 A 
ATOM      9  C   UNL     1       9.410  10.311  19.729  0.00  0.00    +0.000 A 
ATOM     10  C   UNL     1       8.905  10.249  18.427  0.00  0.00    +0.000 A 
ATOM     11  C   UNL     1       8.681  11.430  17.712  0.00  0.00    +0.000 A 
ATOM     12  C   UNL     1       8.958  12.668  18.305  0.00  0.00    +0.000 A 
BRANCH   7  14
ATOM     13  C   UNL     1       9.829  15.065  19.505  0.00  0.00    +0.000 C 
ATOM     14  O   UNL     1       9.729  13.885  20.295  0.00  0.00    +0.000 OA
ENDBRANCH   7  14
ENDBRANCH   5  10
ENDBRANCH   1   6
BRANCH   2  15
ATOM     15  C   UNL     1       7.170   4.822  17.220  0.00  0.00    +0.000 C 
BRANCH  15  16
ATOM     16  N   UNL     1       5.907   4.243  17.621  0.00  0.00    +0.000 N 
ATOM     17  C   UNL     1       4.704   4.653  17.087  0.00  0.00    +0.000 C 
ATOM     18  O   UNL     1       4.663   5.551  16.247  0.00  0.00    +0.000 OA
ATOM     19  H   UNL     1       5.919   3.391  18.166  0.00  0.00    +0.000 HD
BRANCH  17  20
ATOM     20  C   UNL     1       3.525   3.950  17.583  0.00  0.00    +0.000 A 
ATOM     21  C   UNL     1       2.267   4.479  17.818  0.00  0.00    +0.000 A 
ATOM     22  C   UNL     1       1.341   3.505  18.298  0.00  0.00    +0.000 A 
ATOM     23  C   UNL     1       1.921   2.262  18.424  0.00  0.00    +0.000 A 
ATOM     24  S   UNL     1       3.565   2.275  17.966  0.00  0.00    +0.000 S 
ENDBRANCH  17  20
ENDBRANCH  15  16
ENDBRANCH   2  15
TORSDOF 6
ENDMDL
MODEL 8
REMARK VINA RESULT:      -6.9      1.619      2.058
REMARK  Name = 
REMARK  7 active torsions:
REMARK  status: ('A' for Active; 'I' for Inactive)
REMARK    1  A    between atoms: C_1  and  O_2
REMARK    2  A    between atoms: O_2  and  C_3
REMARK    3  A    between atoms: C_6  and  C_7
REMARK    4  A    between atoms: N_8  and  N_9
REMARK    5  A    between atoms: C_10  and  C_12
REMARK    6  A    between atoms: C_12  and  N_13
REMARK    7  A    between atoms: C_14  and  C_16
REMARK                            x       y       z     vdW  Elec       q    Type
REMARK                         _______ _______ _______ _____ _____    ______ ____
ROOT
ATOM      1  N   UNL     1       8.145   7.503  18.352  0.00  0.00    +0.000 N 
ATOM      2  C   UNL     1       7.278   6.843  17.487  0.00  0.00    +0.000 C 
ATOM      3  O   UNL     1       6.625   7.379  16.591  0.00  0.00    +0.000 OA
ATOM      4  H   UNL     1       8.536   7.027  19.160  0.00  0.00    +0.000 HD
ENDROOT
BRANCH   1   6
ATOM      5  C   UNL     1       9.100   9.455  19.020  0.00  0.00    +0.000 C 
ATOM      6  N   UNL     1       8.337   8.842  18.176  0.00  0.00    +0.000 NA
BRANCH   5  10
ATOM      7  C   UNL     1       9.764  13.673  18.644  0.00  0.00    +0.000 A 
ATOM      8  C   UNL     1      10.391  12.953  19.662  0.00  0.00    +0.000 A 
ATOM      9  C   UNL     1      10.193  11.574  19.779  0.00  0.00    +0.000 A 
ATOM     10  C   UNL     1       9.347  10.910  18.886  0.00  0.00    +0.000 A 
ATOM     11  C   UNL     1       8.712  11.627  17.867  0.00  0.00    +0.000 A 
ATOM     12  C   UNL     1       8.921  13.007  17.749  0.00  0.00    +0.000 A 
BRANCH   7  14
ATOM     13  C   UNL     1      10.628  15.534  17.469  0.00  0.00    +0.000 C 
ATOM     14  O   UNL     1      10.009  15.019  18.644  0.00  0.00    +0.000 OA
ENDBRANCH   7  14
ENDBRANCH   5  10
ENDBRANCH   1   6
BRANCH   2  15
ATOM     15  C   UNL     1       7.114   5.359  17.788  0.00  0.00    +0.000 C 
BRANCH  15  16
ATOM     16  N   UNL     1       5.771   5.069  18.239  0.00  0.00    +0.000 N 
ATOM     17  C   UNL     1       4.800   4.572  17.397  0.00  0.00    +0.000 C 
ATOM     18  O   UNL     1       5.043   4.368  16.209  0.00  0.00    +0.000 OA
ATOM     19  H   UNL     1       5.591   5.052  19.234  0.00  0.00    +0.000 HD
BRANCH  17  20
ATOM     20  C   UNL     1       3.504   4.311  18.017  0.00  0.00    +0.000 A 
ATOM     21  C   UNL     1       2.428   3.638  17.465  0.00  0.00    +0.000 A 
ATOM     22  C   UNL     1       1.314   3.559  18.353  0.00  0.00    +0.000 A 
ATOM     23  C   UNL     1       1.567   4.183  19.554  0.00  0.00    +0.000 A 
ATOM     24  S   UNL     1       3.136   4.854  19.606  0.00  0.00    +0.000 S 
ENDBRANCH  17  20
ENDBRANCH  15  16
ENDBRANCH   2  15
TORSDOF 6
ENDMDL
MODEL 9
REMARK VINA RESULT:      -6.9      1.865      2.212
REMARK  Name = 
REMARK  7 active torsions:
REMARK  status: ('A' for Active; 'I' for Inactive)
REMARK    1  A    between atoms: C_1  and  O_2
REMARK    2  A    between atoms: O_2  and  C_3
REMARK    3  A    between atoms: C_6  and  C_7
REMARK    4  A    between atoms: N_8  and  N_9
REMARK    5  A    between atoms: C_10  and  C_12
REMARK    6  A    between atoms: C_12  and  N_13
REMARK    7  A    between atoms: C_14  and  C_16
REMARK                            x       y       z     vdW  Elec       q    Type
REMARK                         _______ _______ _______ _____ _____    ______ ____
ROOT
ATOM      1  N   UNL     1       8.378   7.785  18.616  0.00  0.00    +0.000 N 
ATOM      2  C   UNL     1       7.665   7.032  17.687  0.00  0.00    +0.000 C 
ATOM      3  O   UNL     1       7.108   7.484  16.686  0.00  0.00    +0.000 OA
ATOM      4  H   UNL     1       8.684   7.374  19.494  0.00  0.00    +0.000 HD
ENDROOT
BRANCH   1   6
ATOM      5  C   UNL     1       9.292   9.787  19.186  0.00  0.00    +0.000 C 
ATOM      6  N   UNL     1       8.522   9.122  18.389  0.00  0.00    +0.000 NA
BRANCH   5  10
ATOM      7  C   UNL     1       9.915  13.990  18.622  0.00  0.00    +0.000 A 
ATOM      8  C   UNL     1       9.093  13.280  17.746  0.00  0.00    +0.000 A 
ATOM      9  C   UNL     1       8.871  11.912  17.936  0.00  0.00    +0.000 A 
ATOM     10  C   UNL     1       9.490  11.243  18.995  0.00  0.00    +0.000 A 
ATOM     11  C   UNL     1      10.319  11.948  19.873  0.00  0.00    +0.000 A 
ATOM     12  C   UNL     1      10.530  13.320  19.684  0.00  0.00    +0.000 A 
BRANCH   7  14
ATOM     13  C   UNL     1      10.875  15.595  17.176  0.00  0.00    +0.000 C 
ATOM     14  O   UNL     1      10.080  15.315  18.324  0.00  0.00    +0.000 OA
ENDBRANCH   7  14
ENDBRANCH   5  10
ENDBRANCH   1   6
BRANCH   2  15
ATOM     15  C   UNL     1       7.540   5.558  18.050  0.00  0.00    +0.000 C 
BRANCH  15  16
ATOM     16  N   UNL     1       6.202   5.075  17.789  0.00  0.00    +0.000 N 
ATOM     17  C   UNL     1       5.225   5.044  18.761  0.00  0.00    +0.000 C 
ATOM     18  O   UNL     1       5.466   5.420  19.907  0.00  0.00    +0.000 OA
ATOM     19  H   UNL     1       5.921   4.932  16.828  0.00  0.00    +0.000 HD
BRANCH  17  20
ATOM     20  C   UNL     1       3.922   4.550  18.326  0.00  0.00    +0.000 A 
ATOM     21  C   UNL     1       2.723   5.242  18.309  0.00  0.00    +0.000 A 
ATOM     22  C   UNL     1       1.640   4.455  17.815  0.00  0.00    +0.000 A 
ATOM     23  C   UNL     1       2.041   3.182  17.479  0.00  0.00    +0.000 A 
ATOM     24  S   UNL     1       3.708   2.943  17.755  0.00  0.00    +0.000 S 
ENDBRANCH  17  20
ENDBRANCH  15  16
ENDBRANCH   2  15
TORSDOF 6
ENDMDL
