MODEL 1
REMARK VINA RESULT:      -8.5      0.000      0.000
REMARK  Name = 
REMARK  12 active torsions:
REMARK  status: ('A' for Active; 'I' for Inactive)
REMARK    1  A    between atoms: C_1  and  C_2
REMARK    2  A    between atoms: C_2  and  C_3
REMARK    3  A    between atoms: C_3  and  C_4
REMARK    4  A    between atoms: C_4  and  C_5
REMARK    5  A    between atoms: N_7  and  C_8
REMARK    6  A    between atoms: C_8  and  C_9
REMARK    7  A    between atoms: C_9  and  C_10
REMARK    8  A    between atoms: C_10  and  C_11
REMARK    9  A    between atoms: N_14  and  C_15
REMARK   10  A    between atoms: C_15  and  C_16
REMARK   11  A    between atoms: C_19  and  C_20
REMARK   12  A    between atoms: C_25  and  C_26
REMARK                            x       y       z     vdW  Elec       q    Type
REMARK                         _______ _______ _______ _____ _____    ______ ____
ROOT
ATOM      1  C   UNL     1       1.273   8.822  19.815  0.00  0.00    +0.000 A 
ATOM      2  C   UNL     1       1.763   7.634  20.365  0.00  0.00    +0.000 A 
ATOM      3  C   UNL     1       2.591   6.795  19.609  0.00  0.00    +0.000 A 
ATOM      4  C   UNL     1       2.924   7.080  18.270  0.00  0.00    +0.000 A 
ATOM      5  C   UNL     1       2.400   8.271  17.740  0.00  0.00    +0.000 A 
ATOM      6  C   UNL     1       1.648   9.159  18.514  0.00  0.00    +0.000 A 
ENDROOT
BRANCH   4   7
ATOM      7  C   UNL     1       3.768   6.144  17.464  0.00  0.00    +0.000 A 
ATOM      8  C   UNL     1       4.844   6.695  16.720  0.00  0.00    +0.000 A 
ATOM      9  C   UNL     1       5.698   5.911  15.946  0.00  0.00    +0.000 A 
ATOM     10  C   UNL     1       5.536   4.535  15.924  0.00  0.00    +0.000 A 
ATOM     11  C   UNL     1       4.507   3.952  16.655  0.00  0.00    +0.000 A 
ATOM     12  C   UNL     1       3.606   4.736  17.403  0.00  0.00    +0.000 A 
BRANCH  12  13
ATOM     13  C   UNL     1       2.530   4.008  18.074  0.00  0.00    +0.000 A 
ATOM     14  N   UNL     1       1.273   3.880  17.524  0.00  0.00    +0.000 NA
ATOM     15  N   UNL     1       0.573   3.109  18.346  0.00  0.00    +0.000 NA
ATOM     16  N   UNL     1       1.422   2.819  19.338  0.00  0.00    +0.000 N 
ATOM     17  N   UNL     1       2.629   3.394  19.264  0.00  0.00    +0.000 NA
ATOM     18  H   UNL     1       1.169   2.187  20.093  0.00  0.00    +0.000 HD
ENDBRANCH  12  13
ENDBRANCH   4   7
BRANCH   1  19
ATOM     19  C   UNL     1       0.300   9.685  20.577  0.00  0.00    +0.000 C 
BRANCH  19  25
ATOM     20  C   UNL     1      -0.946  11.197  18.939  0.00  0.00    +0.000 A 
ATOM     21  N   UNL     1      -0.892  12.422  18.492  0.00  0.00    +0.000 NA
ATOM     22  N   UNL     1       0.134  12.981  19.212  0.00  0.00    +0.000 N 
ATOM     23  C   UNL     1       0.685  12.060  20.080  0.00  0.00    +0.000 A 
ATOM     24  O   UNL     1       1.641  12.223  20.828  0.00  0.00    +0.000 OA
ATOM     25  N   UNL     1      -0.046  10.910  19.896  0.00  0.00    +0.000 N 
BRANCH  20  26
ATOM     26  C   UNL     1      -1.966  10.209  18.422  0.00  0.00    +0.000 C 
BRANCH  26  27
ATOM     27  C   UNL     1      -1.785   9.899  16.933  0.00  0.00    +0.000 C 
BRANCH  27  29
ATOM     28  C   UNL     1      -3.078  10.464  14.837  0.00  0.00    +0.000 C 
ATOM     29  C   UNL     1      -3.120   9.781  16.195  0.00  0.00    +0.000 C 
ENDBRANCH  27  29
ENDBRANCH  26  27
ENDBRANCH  20  26
BRANCH  22  30
ATOM     30  C   UNL     1       0.598  14.336  19.021  0.00  0.00    +0.000 C 
BRANCH  30  31
ATOM     31  C   UNL     1      -0.475  15.383  19.316  0.00  0.00    +0.000 C 
BRANCH  31  32
ATOM     32  C   UNL     1       0.002  16.823  19.112  0.00  0.00    +0.000 C 
ATOM     33  C   UNL     1      -0.887  17.529  18.098  0.00  0.00    +0.000 C 
ENDBRANCH  31  32
ENDBRANCH  30  31
ENDBRANCH  22  30
ENDBRANCH  19  25
ENDBRANCH   1  19
TORSDOF 10
ENDMDL
MODEL 2
REMARK VINA RESULT:      -8.4      0.928      1.593
REMARK  Name = 
REMARK  12 active torsions:
REMARK  status: ('A' for Active; 'I' for Inactive)
REMARK    1  A    between atoms: C_1  and  C_2
REMARK    2  A    between atoms: C_2  and  C_3
REMARK    3  A    between atoms: C_3  and  C_4
REMARK    4  A    between atoms: C_4  and  C_5
REMARK    5  A    between atoms: N_7  and  C_8
REMARK    6  A    between atoms: C_8  and  C_9
REMARK    7  A    between atoms: C_9  and  C_10
REMARK    8  A    between atoms: C_10  and  C_11
REMARK    9  A    between atoms: N_14  and  C_15
REMARK   10  A    between atoms: C_15  and  C_16
REMARK   11  A    between atoms: C_19  and  C_20
REMARK   12  A    between atoms: C_25  and  C_26
REMARK                            x       y       z     vdW  Elec       q    Type
REMARK                         _______ _______ _______ _____ _____    ______ ____
ROOT
ATOM      1  C   UNL     1       1.169   8.848  19.894  0.00  0.00    +0.000 A 
ATOM      2  C   UNL     1       1.523   9.161  18.580  0.00  0.00    +0.000 A 
ATOM      3  C   UNL     1       2.320   8.283  17.834  0.00  0.00    +0.000 A 
ATOM      4  C   UNL     1       2.829   7.088  18.380  0.00  0.00    +0.000 A 
ATOM      5  C   UNL     1       2.470   6.810  19.710  0.00  0.00    +0.000 A 
ATOM      6  C   UNL     1       1.603   7.635  20.431  0.00  0.00    +0.000 A 
ENDROOT
BRANCH   4   7
ATOM      7  C   UNL     1       3.720   6.189  17.583  0.00  0.00    +0.000 A 
ATOM      8  C   UNL     1       4.794   6.784  16.869  0.00  0.00    +0.000 A 
ATOM      9  C   UNL     1       5.690   6.036  16.106  0.00  0.00    +0.000 A 
ATOM     10  C   UNL     1       5.573   4.656  16.064  0.00  0.00    +0.000 A 
ATOM     11  C   UNL     1       4.547   4.032  16.765  0.00  0.00    +0.000 A 
ATOM     12  C   UNL     1       3.605   4.778  17.501  0.00  0.00    +0.000 A 
BRANCH  12  13
ATOM     13  C   UNL     1       2.538   4.007  18.140  0.00  0.00    +0.000 A 
ATOM     14  N   UNL     1       1.306   3.828  17.550  0.00  0.00    +0.000 NA
ATOM     15  N   UNL     1       0.611   3.031  18.351  0.00  0.00    +0.000 NA
ATOM     16  N   UNL     1       1.438   2.776  19.370  0.00  0.00    +0.000 N 
ATOM     17  N   UNL     1       2.624   3.399  19.334  0.00  0.00    +0.000 NA
ATOM     18  H   UNL     1       1.187   2.136  20.118  0.00  0.00    +0.000 HD
ENDBRANCH  12  13
ENDBRANCH   4   7
BRANCH   1  19
ATOM     19  C   UNL     1       0.399   9.826  20.745  0.00  0.00    +0.000 C 
BRANCH  19  25
ATOM     20  C   UNL     1      -0.826  11.386  19.136  0.00  0.00    +0.000 A 
ATOM     21  N   UNL     1      -0.732  12.607  18.684  0.00  0.00    +0.000 NA
ATOM     22  N   UNL     1       0.336  13.123  19.374  0.00  0.00    +0.000 N 
ATOM     23  C   UNL     1       0.871  12.182  20.229  0.00  0.00    +0.000 A 
ATOM     24  O   UNL     1       1.853  12.306  20.951  0.00  0.00    +0.000 OA
ATOM     25  N   UNL     1       0.087  11.063  20.069  0.00  0.00    +0.000 N 
BRANCH  20  26
ATOM     26  C   UNL     1      -1.900  10.441  18.650  0.00  0.00    +0.000 C 
BRANCH  26  27
ATOM     27  C   UNL     1      -1.701  10.022  17.190  0.00  0.00    +0.000 C 
BRANCH  27  29
ATOM     28  C   UNL     1      -2.922  10.339  15.000  0.00  0.00    +0.000 C 
ATOM     29  C   UNL     1      -3.026   9.866  16.442  0.00  0.00    +0.000 C 
ENDBRANCH  27  29
ENDBRANCH  26  27
ENDBRANCH  20  26
BRANCH  22  30
ATOM     30  C   UNL     1       0.851  14.457  19.166  0.00  0.00    +0.000 C 
BRANCH  30  31
ATOM     31  C   UNL     1       2.152  14.479  18.366  0.00  0.00    +0.000 C 
BRANCH  31  32
ATOM     32  C   UNL     1       3.141  15.550  18.834  0.00  0.00    +0.000 C 
ATOM     33  C   UNL     1       4.480  14.912  19.175  0.00  0.00    +0.000 C 
ENDBRANCH  31  32
ENDBRANCH  30  31
ENDBRANCH  22  30
ENDBRANCH  19  25
ENDBRANCH   1  19
TORSDOF 10
ENDMDL
MODEL 3
REMARK VINA RESULT:      -8.4      2.593      9.091
REMARK  Name = 
REMARK  12 active torsions:
REMARK  status: ('A' for Active; 'I' for Inactive)
REMARK    1  A    between atoms: C_1  and  C_2
REMARK    2  A    between atoms: C_2  and  C_3
REMARK    3  A    between atoms: C_3  and  C_4
REMARK    4  A    between atoms: C_4  and  C_5
REMARK    5  A    between atoms: N_7  and  C_8
REMARK    6  A    between atoms: C_8  and  C_9
REMARK    7  A    between atoms: C_9  and  C_10
REMARK    8  A    between atoms: C_10  and  C_11
REMARK    9  A    between atoms: N_14  and  C_15
REMARK   10  A    between atoms: C_15  and  C_16
REMARK   11  A    between atoms: C_19  and  C_20
REMARK   12  A    between atoms: C_25  and  C_26
REMARK                            x       y       z     vdW  Elec       q    Type
REMARK                         _______ _______ _______ _____ _____    ______ ____
ROOT
ATOM      1  C   UNL     1       2.627   7.295  19.338  0.00  0.00    +0.000 A 
ATOM      2  C   UNL     1       2.452   7.909  18.096  0.00  0.00    +0.000 A 
ATOM      3  C   UNL     1       1.498   8.922  17.936  0.00  0.00    +0.000 A 
ATOM      4  C   UNL     1       0.655   9.329  18.988  0.00  0.00    +0.000 A 
ATOM      5  C   UNL     1       0.842   8.679  20.221  0.00  0.00    +0.000 A 
ATOM      6  C   UNL     1       1.852   7.732  20.413  0.00  0.00    +0.000 A 
ENDROOT
BRANCH   4   7
ATOM      7  C   UNL     1      -0.393  10.376  18.783  0.00  0.00    +0.000 A 
ATOM      8  C   UNL     1      -1.648   9.965  18.262  0.00  0.00    +0.000 A 
ATOM      9  C   UNL     1      -2.697  10.858  18.042  0.00  0.00    +0.000 A 
ATOM     10  C   UNL     1      -2.544  12.193  18.381  0.00  0.00    +0.000 A 
ATOM     11  C   UNL     1      -1.337  12.634  18.914  0.00  0.00    +0.000 A 
ATOM     12  C   UNL     1      -0.253  11.753  19.095  0.00  0.00    +0.000 A 
BRANCH  12  13
ATOM     13  C   UNL     1       0.980  12.353  19.602  0.00  0.00    +0.000 A 
ATOM     14  N   UNL     1       1.942  12.878  18.765  0.00  0.00    +0.000 NA
ATOM     15  N   UNL     1       2.881  13.401  19.542  0.00  0.00    +0.000 NA
ATOM     16  N   UNL     1       2.454  13.166  20.788  0.00  0.00    +0.000 N 
ATOM     17  N   UNL     1       1.317  12.467  20.897  0.00  0.00    +0.000 NA
ATOM     18  H   UNL     1       2.955  13.513  21.601  0.00  0.00    +0.000 HD
ENDBRANCH  12  13
ENDBRANCH   4   7
BRANCH   1  19
ATOM     19  C   UNL     1       3.576   6.136  19.504  0.00  0.00    +0.000 C 
BRANCH  19  25
ATOM     20  C   UNL     1       3.282   4.588  17.494  0.00  0.00    +0.000 A 
ATOM     21  N   UNL     1       3.975   4.149  16.479  0.00  0.00    +0.000 NA
ATOM     22  N   UNL     1       5.171   4.811  16.597  0.00  0.00    +0.000 N 
ATOM     23  C   UNL     1       5.170   5.636  17.703  0.00  0.00    +0.000 A 
ATOM     24  O   UNL     1       6.094   6.327  18.115  0.00  0.00    +0.000 OA
ATOM     25  N   UNL     1       3.923   5.487  18.262  0.00  0.00    +0.000 N 
BRANCH  20  26
ATOM     26  C   UNL     1       1.867   4.125  17.749  0.00  0.00    +0.000 C 
BRANCH  26  27
ATOM     27  C   UNL     1       1.780   3.072  18.858  0.00  0.00    +0.000 C 
BRANCH  27  29
ATOM     28  C   UNL     1       1.463   2.988  21.364  0.00  0.00    +0.000 C 
ATOM     29  C   UNL     1       0.942   3.545  20.047  0.00  0.00    +0.000 C 
ENDBRANCH  27  29
ENDBRANCH  26  27
ENDBRANCH  20  26
BRANCH  22  30
ATOM     30  C   UNL     1       6.289   4.603  15.705  0.00  0.00    +0.000 C 
BRANCH  30  31
ATOM     31  C   UNL     1       5.998   3.581  14.608  0.00  0.00    +0.000 C 
BRANCH  31  32
ATOM     32  C   UNL     1       6.514   3.999  13.229  0.00  0.00    +0.000 C 
ATOM     33  C   UNL     1       5.751   3.260  12.139  0.00  0.00    +0.000 C 
ENDBRANCH  31  32
ENDBRANCH  30  31
ENDBRANCH  22  30
ENDBRANCH  19  25
ENDBRANCH   1  19
TORSDOF 10
ENDMDL
MODEL 4
REMARK VINA RESULT:      -8.4      2.599      9.138
REMARK  Name = 
REMARK  12 active torsions:
REMARK  status: ('A' for Active; 'I' for Inactive)
REMARK    1  A    between atoms: C_1  and  C_2
REMARK    2  A    between atoms: C_2  and  C_3
REMARK    3  A    between atoms: C_3  and  C_4
REMARK    4  A    between atoms: C_4  and  C_5
REMARK    5  A    between atoms: N_7  and  C_8
REMARK    6  A    between atoms: C_8  and  C_9
REMARK    7  A    between atoms: C_9  and  C_10
REMARK    8  A    between atoms: C_10  and  C_11
REMARK    9  A    between atoms: N_14  and  C_15
REMARK   10  A    between atoms: C_15  and  C_16
REMARK   11  A    between atoms: C_19  and  C_20
REMARK   12  A    between atoms: C_25  and  C_26
REMARK                            x       y       z     vdW  Elec       q    Type
REMARK                         _______ _______ _______ _____ _____    ______ ____
ROOT
ATOM      1  C   UNL     1       2.699   7.501  18.991  0.00  0.00    +0.000 A 
ATOM      2  C   UNL     1       1.883   7.775  20.091  0.00  0.00    +0.000 A 
ATOM      3  C   UNL     1       0.832   8.694  19.981  0.00  0.00    +0.000 A 
ATOM      4  C   UNL     1       0.584   9.408  18.792  0.00  0.00    +0.000 A 
ATOM      5  C   UNL     1       1.434   9.125  17.709  0.00  0.00    +0.000 A 
ATOM      6  C   UNL     1       2.427   8.144  17.782  0.00  0.00    +0.000 A 
ENDROOT
BRANCH   4   7
ATOM      7  C   UNL     1      -0.511  10.424  18.710  0.00  0.00    +0.000 A 
ATOM      8  C   UNL     1      -1.755  10.015  18.163  0.00  0.00    +0.000 A 
ATOM      9  C   UNL     1      -2.844  10.879  18.052  0.00  0.00    +0.000 A 
ATOM     10  C   UNL     1      -2.744  12.175  18.529  0.00  0.00    +0.000 A 
ATOM     11  C   UNL     1      -1.549  12.611  19.092  0.00  0.00    +0.000 A 
ATOM     12  C   UNL     1      -0.425  11.764  19.166  0.00  0.00    +0.000 A 
BRANCH  12  13
ATOM     13  C   UNL     1       0.789  12.362  19.720  0.00  0.00    +0.000 A 
ATOM     14  N   UNL     1       1.059  12.360  21.072  0.00  0.00    +0.000 NA
ATOM     15  N   UNL     1       2.258  12.908  21.223  0.00  0.00    +0.000 NA
ATOM     16  N   UNL     1       2.645  13.215  19.980  0.00  0.00    +0.000 N 
ATOM     17  N   UNL     1       1.758  12.961  19.009  0.00  0.00    +0.000 NA
ATOM     18  H   UNL     1       3.564  13.603  19.784  0.00  0.00    +0.000 HD
ENDBRANCH  12  13
ENDBRANCH   4   7
BRANCH   1  19
ATOM     19  C   UNL     1       3.895   6.593  19.119  0.00  0.00    +0.000 C 
BRANCH  19  25
ATOM     20  C   UNL     1       3.226   4.605  17.662  0.00  0.00    +0.000 A 
ATOM     21  N   UNL     1       3.723   3.878  16.698  0.00  0.00    +0.000 NA
ATOM     22  N   UNL     1       4.934   4.471  16.441  0.00  0.00    +0.000 N 
ATOM     23  C   UNL     1       5.141   5.549  17.276  0.00  0.00    +0.000 A 
ATOM     24  O   UNL     1       6.135   6.263  17.337  0.00  0.00    +0.000 OA
ATOM     25  N   UNL     1       4.008   5.627  18.052  0.00  0.00    +0.000 N 
BRANCH  20  26
ATOM     26  C   UNL     1       1.868   4.313  18.256  0.00  0.00    +0.000 C 
BRANCH  26  27
ATOM     27  C   UNL     1       1.915   3.214  19.322  0.00  0.00    +0.000 C 
BRANCH  27  29
ATOM     28  C   UNL     1       1.449   2.645  21.740  0.00  0.00    +0.000 C 
ATOM     29  C   UNL     1       1.159   3.603  20.595  0.00  0.00    +0.000 C 
ENDBRANCH  27  29
ENDBRANCH  26  27
ENDBRANCH  20  26
BRANCH  22  30
ATOM     30  C   UNL     1       5.876   3.972  15.465  0.00  0.00    +0.000 C 
BRANCH  30  31
ATOM     31  C   UNL     1       5.540   4.401  14.037  0.00  0.00    +0.000 C 
BRANCH  31  32
ATOM     32  C   UNL     1       6.193   3.523  12.966  0.00  0.00    +0.000 C 
ATOM     33  C   UNL     1       5.181   3.180  11.883  0.00  0.00    +0.000 C 
ENDBRANCH  31  32
ENDBRANCH  30  31
ENDBRANCH  22  30
ENDBRANCH  19  25
ENDBRANCH   1  19
TORSDOF 10
ENDMDL
MODEL 5
REMARK VINA RESULT:      -8.3      2.781      9.145
REMARK  Name = 
REMARK  12 active torsions:
REMARK  status: ('A' for Active; 'I' for Inactive)
REMARK    1  A    between atoms: C_1  and  C_2
REMARK    2  A    between atoms: C_2  and  C_3
REMARK    3  A    between atoms: C_3  and  C_4
REMARK    4  A    between atoms: C_4  and  C_5
REMARK    5  A    between atoms: N_7  and  C_8
REMARK    6  A    between atoms: C_8  and  C_9
REMARK    7  A    between atoms: C_9  and  C_10
REMARK    8  A    between atoms: C_10  and  C_11
REMARK    9  A    between atoms: N_14  and  C_15
REMARK   10  A    between atoms: C_15  and  C_16
REMARK   11  A    between atoms: C_19  and  C_20
REMARK   12  A    between atoms: C_25  and  C_26
REMARK                            x       y       z     vdW  Elec       q    Type
REMARK                         _______ _______ _______ _____ _____    ______ ____
ROOT
ATOM      1  C   UNL     1       2.361   7.837  18.476  0.00  0.00    +0.000 A 
ATOM      2  C   UNL     1       2.121   7.501  19.810  0.00  0.00    +0.000 A 
ATOM      3  C   UNL     1       1.249   8.274  20.587  0.00  0.00    +0.000 A 
ATOM      4  C   UNL     1       0.621   9.430  20.083  0.00  0.00    +0.000 A 
ATOM      5  C   UNL     1       0.898   9.752  18.743  0.00  0.00    +0.000 A 
ATOM      6  C   UNL     1       1.695   8.937  17.934  0.00  0.00    +0.000 A 
ENDROOT
BRANCH   4   7
ATOM      7  C   UNL     1      -0.266  10.270  20.946  0.00  0.00    +0.000 A 
ATOM      8  C   UNL     1      -0.177  10.100  22.352  0.00  0.00    +0.000 A 
ATOM      9  C   UNL     1      -0.950  10.840  23.246  0.00  0.00    +0.000 A 
ATOM     10  C   UNL     1      -1.811  11.814  22.767  0.00  0.00    +0.000 A 
ATOM     11  C   UNL     1      -1.914  12.027  21.396  0.00  0.00    +0.000 A 
ATOM     12  C   UNL     1      -1.175  11.253  20.479  0.00  0.00    +0.000 A 
BRANCH  12  13
ATOM     13  C   UNL     1      -1.422  11.532  19.065  0.00  0.00    +0.000 A 
ATOM     14  N   UNL     1      -2.308  10.791  18.312  0.00  0.00    +0.000 NA
ATOM     15  N   UNL     1      -2.347  11.348  17.109  0.00  0.00    +0.000 NA
ATOM     16  N   UNL     1      -1.493  12.375  17.188  0.00  0.00    +0.000 N 
ATOM     17  N   UNL     1      -0.840  12.508  18.350  0.00  0.00    +0.000 NA
ATOM     18  H   UNL     1      -1.362  13.025  16.417  0.00  0.00    +0.000 HD
ENDBRANCH  12  13
ENDBRANCH   4   7
BRANCH   1  19
ATOM     19  C   UNL     1       3.373   7.079  17.655  0.00  0.00    +0.000 C 
BRANCH  19  25
ATOM     20  C   UNL     1       4.532   4.938  18.426  0.00  0.00    +0.000 A 
ATOM     21  N   UNL     1       4.266   3.668  18.563  0.00  0.00    +0.000 NA
ATOM     22  N   UNL     1       2.942   3.578  18.209  0.00  0.00    +0.000 N 
ATOM     23  C   UNL     1       2.443   4.814  17.854  0.00  0.00    +0.000 A 
ATOM     24  O   UNL     1       1.316   5.071  17.447  0.00  0.00    +0.000 OA
ATOM     25  N   UNL     1       3.492   5.687  18.019  0.00  0.00    +0.000 N 
BRANCH  20  26
ATOM     26  C   UNL     1       5.902   5.499  18.732  0.00  0.00    +0.000 C 
BRANCH  26  27
ATOM     27  C   UNL     1       6.922   5.196  17.630  0.00  0.00    +0.000 C 
BRANCH  27  29
ATOM     28  C   UNL     1       7.037   4.654  15.164  0.00  0.00    +0.000 C 
ATOM     29  C   UNL     1       6.386   5.518  16.233  0.00  0.00    +0.000 C 
ENDBRANCH  27  29
ENDBRANCH  26  27
ENDBRANCH  20  26
BRANCH  22  30
ATOM     30  C   UNL     1       2.212   2.332  18.162  0.00  0.00    +0.000 C 
BRANCH  30  31
ATOM     31  C   UNL     1       1.701   1.885  19.530  0.00  0.00    +0.000 C 
BRANCH  31  32
ATOM     32  C   UNL     1       1.129   3.028  20.373  0.00  0.00    +0.000 C 
ATOM     33  C   UNL     1       1.986   3.244  21.612  0.00  0.00    +0.000 C 
ENDBRANCH  31  32
ENDBRANCH  30  31
ENDBRANCH  22  30
ENDBRANCH  19  25
ENDBRANCH   1  19
TORSDOF 10
ENDMDL
MODEL 6
REMARK VINA RESULT:      -8.3      0.961      1.470
REMARK  Name = 
REMARK  12 active torsions:
REMARK  status: ('A' for Active; 'I' for Inactive)
REMARK    1  A    between atoms: C_1  and  C_2
REMARK    2  A    between atoms: C_2  and  C_3
REMARK    3  A    between atoms: C_3  and  C_4
REMARK    4  A    between atoms: C_4  and  C_5
REMARK    5  A    between atoms: N_7  and  C_8
REMARK    6  A    between atoms: C_8  and  C_9
REMARK    7  A    between atoms: C_9  and  C_10
REMARK    8  A    between atoms: C_10  and  C_11
REMARK    9  A    between atoms: N_14  and  C_15
REMARK   10  A    between atoms: C_15  and  C_16
REMARK   11  A    between atoms: C_19  and  C_20
REMARK   12  A    between atoms: C_25  and  C_26
REMARK                            x       y       z     vdW  Elec       q    Type
REMARK                         _______ _______ _______ _____ _____    ______ ____
ROOT
ATOM      1  C   UNL     1       0.881   9.373  20.113  0.00  0.00    +0.000 A 
ATOM      2  C   UNL     1       1.176   9.505  18.754  0.00  0.00    +0.000 A 
ATOM      3  C   UNL     1       1.926   8.523  18.095  0.00  0.00    +0.000 A 
ATOM      4  C   UNL     1       2.448   7.401  18.769  0.00  0.00    +0.000 A 
ATOM      5  C   UNL     1       2.150   7.307  20.139  0.00  0.00    +0.000 A 
ATOM      6  C   UNL     1       1.327   8.234  20.785  0.00  0.00    +0.000 A 
ENDROOT
BRANCH   4   7
ATOM      7  C   UNL     1       3.290   6.390  18.057  0.00  0.00    +0.000 A 
ATOM      8  C   UNL     1       4.221   6.863  17.095  0.00  0.00    +0.000 A 
ATOM      9  C   UNL     1       5.062   6.007  16.384  0.00  0.00    +0.000 A 
ATOM     10  C   UNL     1       5.035   4.646  16.643  0.00  0.00    +0.000 A 
ATOM     11  C   UNL     1       4.152   4.144  17.593  0.00  0.00    +0.000 A 
ATOM     12  C   UNL     1       3.262   4.991  18.284  0.00  0.00    +0.000 A 
BRANCH  12  13
ATOM     13  C   UNL     1       2.341   4.331  19.209  0.00  0.00    +0.000 A 
ATOM     14  N   UNL     1       2.689   4.038  20.510  0.00  0.00    +0.000 NA
ATOM     15  N   UNL     1       1.613   3.517  21.085  0.00  0.00    +0.000 NA
ATOM     16  N   UNL     1       0.686   3.514  20.121  0.00  0.00    +0.000 N 
ATOM     17  N   UNL     1       1.088   3.945  18.918  0.00  0.00    +0.000 NA
ATOM     18  H   UNL     1      -0.270   3.216  20.296  0.00  0.00    +0.000 HD
ENDBRANCH  12  13
ENDBRANCH   4   7
BRANCH   1  19
ATOM     19  C   UNL     1       0.164  10.468  20.861  0.00  0.00    +0.000 C 
BRANCH  19  25
ATOM     20  C   UNL     1      -0.893  12.004  19.116  0.00  0.00    +0.000 A 
ATOM     21  N   UNL     1      -0.682  13.173  18.575  0.00  0.00    +0.000 NA
ATOM     22  N   UNL     1       0.420  13.642  19.245  0.00  0.00    +0.000 N 
ATOM     23  C   UNL     1       0.856  12.725  20.179  0.00  0.00    +0.000 A 
ATOM     24  O   UNL     1       1.836  12.815  20.909  0.00  0.00    +0.000 OA
ATOM     25  N   UNL     1      -0.025  11.672  20.088  0.00  0.00    +0.000 N 
BRANCH  20  26
ATOM     26  C   UNL     1      -2.042  11.125  18.682  0.00  0.00    +0.000 C 
BRANCH  26  27
ATOM     27  C   UNL     1      -2.385  11.292  17.198  0.00  0.00    +0.000 C 
BRANCH  27  29
ATOM     28  C   UNL     1      -2.936  10.102  15.037  0.00  0.00    +0.000 C 
ATOM     29  C   UNL     1      -2.372   9.961  16.443  0.00  0.00    +0.000 C 
ENDBRANCH  27  29
ENDBRANCH  26  27
ENDBRANCH  20  26
BRANCH  22  30
ATOM     30  C   UNL     1       1.058  14.904  18.948  0.00  0.00    +0.000 C 
BRANCH  30  31
ATOM     31  C   UNL     1       0.060  16.035  18.700  0.00  0.00    +0.000 C 
BRANCH  31  32
ATOM     32  C   UNL     1       0.701  17.302  18.130  0.00  0.00    +0.000 C 
ATOM     33  C   UNL     1      -0.288  18.030  17.232  0.00  0.00    +0.000 C 
ENDBRANCH  31  32
ENDBRANCH  30  31
ENDBRANCH  22  30
ENDBRANCH  19  25
ENDBRANCH   1  19
TORSDOF 10
ENDMDL
MODEL 7
REMARK VINA RESULT:      -8.3      2.445      3.738
REMARK  Name = 
REMARK  12 active torsions:
REMARK  status: ('A' for Active; 'I' for Inactive)
REMARK    1  A    between atoms: C_1  and  C_2
REMARK    2  A    between atoms: C_2  and  C_3
REMARK    3  A    between atoms: C_3  and  C_4
REMARK    4  A    between atoms: C_4  and  C_5
REMARK    5  A    between atoms: N_7  and  C_8
REMARK    6  A    between atoms: C_8  and  C_9
REMARK    7  A    between atoms: C_9  and  C_10
REMARK    8  A    between atoms: C_10  and  C_11
REMARK    9  A    between atoms: N_14  and  C_15
REMARK   10  A    between atoms: C_15  and  C_16
REMARK   11  A    between atoms: C_19  and  C_20
REMARK   12  A    between atoms: C_25  and  C_26
REMARK                            x       y       z     vdW  Elec       q    Type
REMARK                         _______ _______ _______ _____ _____    ______ ____
ROOT
ATOM      1  C   UNL     1       1.643   9.222  18.753  0.00  0.00    +0.000 A 
ATOM      2  C   UNL     1       1.432   8.801  20.068  0.00  0.00    +0.000 A 
ATOM      3  C   UNL     1       1.689   7.474  20.436  0.00  0.00    +0.000 A 
ATOM      4  C   UNL     1       2.120   6.509  19.504  0.00  0.00    +0.000 A 
ATOM      5  C   UNL     1       2.305   6.959  18.185  0.00  0.00    +0.000 A 
ATOM      6  C   UNL     1       2.139   8.300  17.829  0.00  0.00    +0.000 A 
ENDROOT
BRANCH   4   7
ATOM      7  C   UNL     1       2.339   5.085  19.907  0.00  0.00    +0.000 A 
ATOM      8  C   UNL     1       1.301   4.432  20.621  0.00  0.00    +0.000 A 
ATOM      9  C   UNL     1       1.399   3.103  21.034  0.00  0.00    +0.000 A 
ATOM     10  C   UNL     1       2.522   2.362  20.704  0.00  0.00    +0.000 A 
ATOM     11  C   UNL     1       3.553   2.958  19.987  0.00  0.00    +0.000 A 
ATOM     12  C   UNL     1       3.490   4.314  19.606  0.00  0.00    +0.000 A 
BRANCH  12  13
ATOM     13  C   UNL     1       4.667   4.837  18.913  0.00  0.00    +0.000 A 
ATOM     14  N   UNL     1       5.731   5.395  19.588  0.00  0.00    +0.000 NA
ATOM     15  N   UNL     1       6.647   5.696  18.676  0.00  0.00    +0.000 NA
ATOM     16  N   UNL     1       6.099   5.320  17.515  0.00  0.00    +0.000 N 
ATOM     17  N   UNL     1       4.851   4.839  17.583  0.00  0.00    +0.000 NA
ATOM     18  H   UNL     1       6.608   5.381  16.637  0.00  0.00    +0.000 HD
ENDBRANCH  12  13
ENDBRANCH   4   7
BRANCH   1  19
ATOM     19  C   UNL     1       1.276  10.617  18.316  0.00  0.00    +0.000 C 
BRANCH  19  25
ATOM     20  C   UNL     1      -1.260  10.901  18.413  0.00  0.00    +0.000 A 
ATOM     21  N   UNL     1      -2.152  11.566  19.095  0.00  0.00    +0.000 NA
ATOM     22  N   UNL     1      -1.405  12.234  20.034  0.00  0.00    +0.000 N 
ATOM     23  C   UNL     1      -0.062  11.956  19.883  0.00  0.00    +0.000 A 
ATOM     24  O   UNL     1       0.870  12.422  20.526  0.00  0.00    +0.000 OA
ATOM     25  N   UNL     1       0.006  11.072  18.831  0.00  0.00    +0.000 N 
BRANCH  20  26
ATOM     26  C   UNL     1      -1.650   9.998  17.266  0.00  0.00    +0.000 C 
BRANCH  26  27
ATOM     27  C   UNL     1      -2.272  10.767  16.096  0.00  0.00    +0.000 C 
BRANCH  27  29
ATOM     28  C   UNL     1      -3.569   9.967  14.080  0.00  0.00    +0.000 C 
ATOM     29  C   UNL     1      -3.564  10.119  15.593  0.00  0.00    +0.000 C 
ENDBRANCH  27  29
ENDBRANCH  26  27
ENDBRANCH  20  26
BRANCH  22  30
ATOM     30  C   UNL     1      -1.970  13.150  20.998  0.00  0.00    +0.000 C 
BRANCH  30  31
ATOM     31  C   UNL     1      -2.549  12.446  22.224  0.00  0.00    +0.000 C 
BRANCH  31  32
ATOM     32  C   UNL     1      -1.496  12.077  23.272  0.00  0.00    +0.000 C 
ATOM     33  C   UNL     1      -1.123  10.608  23.143  0.00  0.00    +0.000 C 
ENDBRANCH  31  32
ENDBRANCH  30  31
ENDBRANCH  22  30
ENDBRANCH  19  25
ENDBRANCH   1  19
TORSDOF 10
ENDMDL
MODEL 8
REMARK VINA RESULT:      -8.3      0.434      1.194
REMARK  Name = 
REMARK  12 active torsions:
REMARK  status: ('A' for Active; 'I' for Inactive)
REMARK    1  A    between atoms: C_1  and  C_2
REMARK    2  A    between atoms: C_2  and  C_3
REMARK    3  A    between atoms: C_3  and  C_4
REMARK    4  A    between atoms: C_4  and  C_5
REMARK    5  A    between atoms: N_7  and  C_8
REMARK    6  A    between atoms: C_8  and  C_9
REMARK    7  A    between atoms: C_9  and  C_10
REMARK    8  A    between atoms: C_10  and  C_11
REMARK    9  A    between atoms: N_14  and  C_15
REMARK   10  A    between atoms: C_15  and  C_16
REMARK   11  A    between atoms: C_19  and  C_20
REMARK   12  A    between atoms: C_25  and  C_26
REMARK                            x       y       z     vdW  Elec       q    Type
REMARK                         _______ _______ _______ _____ _____    ______ ____
ROOT
ATOM      1  C   UNL     1       1.217   8.857  19.798  0.00  0.00    +0.000 A 
ATOM      2  C   UNL     1       1.539   9.127  18.466  0.00  0.00    +0.000 A 
ATOM      3  C   UNL     1       2.332   8.233  17.735  0.00  0.00    +0.000 A 
ATOM      4  C   UNL     1       2.871   7.066  18.312  0.00  0.00    +0.000 A 
ATOM      5  C   UNL     1       2.545   6.832  19.659  0.00  0.00    +0.000 A 
ATOM      6  C   UNL     1       1.681   7.671  20.369  0.00  0.00    +0.000 A 
ENDROOT
BRANCH   4   7
ATOM      7  C   UNL     1       3.758   6.151  17.529  0.00  0.00    +0.000 A 
ATOM      8  C   UNL     1       4.839   6.729  16.813  0.00  0.00    +0.000 A 
ATOM      9  C   UNL     1       5.732   5.967  16.061  0.00  0.00    +0.000 A 
ATOM     10  C   UNL     1       5.604   4.587  16.036  0.00  0.00    +0.000 A 
ATOM     11  C   UNL     1       4.571   3.979  16.741  0.00  0.00    +0.000 A 
ATOM     12  C   UNL     1       3.632   4.740  17.464  0.00  0.00    +0.000 A 
BRANCH  12  13
ATOM     13  C   UNL     1       2.558   3.985  18.108  0.00  0.00    +0.000 A 
ATOM     14  N   UNL     1       2.742   3.312  19.297  0.00  0.00    +0.000 NA
ATOM     15  N   UNL     1       1.564   2.804  19.634  0.00  0.00    +0.000 NA
ATOM     16  N   UNL     1       0.742   3.181  18.649  0.00  0.00    +0.000 N 
ATOM     17  N   UNL     1       1.305   3.860  17.642  0.00  0.00    +0.000 NA
ATOM     18  H   UNL     1      -0.254   2.976  18.673  0.00  0.00    +0.000 HD
ENDBRANCH  12  13
ENDBRANCH   4   7
BRANCH   1  19
ATOM     19  C   UNL     1       0.452   9.856  20.629  0.00  0.00    +0.000 C 
BRANCH  19  25
ATOM     20  C   UNL     1      -0.829  11.318  18.973  0.00  0.00    +0.000 A 
ATOM     21  N   UNL     1      -0.777  12.525  18.479  0.00  0.00    +0.000 NA
ATOM     22  N   UNL     1       0.277  13.099  19.146  0.00  0.00    +0.000 N 
ATOM     23  C   UNL     1       0.845  12.206  20.030  0.00  0.00    +0.000 A 
ATOM     24  O   UNL     1       1.825  12.386  20.743  0.00  0.00    +0.000 OA
ATOM     25  N   UNL     1       0.097  11.058  19.912  0.00  0.00    +0.000 N 
BRANCH  20  26
ATOM     26  C   UNL     1      -1.873  10.323  18.525  0.00  0.00    +0.000 C 
BRANCH  26  27
ATOM     27  C   UNL     1      -1.792  10.017  17.026  0.00  0.00    +0.000 C 
BRANCH  27  29
ATOM     28  C   UNL     1      -2.981  10.097  14.797  0.00  0.00    +0.000 C 
ATOM     29  C   UNL     1      -3.040  10.477  16.269  0.00  0.00    +0.000 C 
ENDBRANCH  27  29
ENDBRANCH  26  27
ENDBRANCH  20  26
BRANCH  22  30
ATOM     30  C   UNL     1       0.748  14.441  18.889  0.00  0.00    +0.000 C 
BRANCH  30  31
ATOM     31  C   UNL     1       0.202  15.466  19.882  0.00  0.00    +0.000 C 
BRANCH  31  32
ATOM     32  C   UNL     1       0.343  16.914  19.406  0.00  0.00    +0.000 C 
ATOM     33  C   UNL     1       1.580  17.059  18.532  0.00  0.00    +0.000 C 
ENDBRANCH  31  32
ENDBRANCH  30  31
ENDBRANCH  22  30
ENDBRANCH  19  25
ENDBRANCH   1  19
TORSDOF 10
ENDMDL
MODEL 9
REMARK VINA RESULT:      -8.3      2.771      9.042
REMARK  Name = 
REMARK  12 active torsions:
REMARK  status: ('A' for Active; 'I' for Inactive)
REMARK    1  A    between atoms: C_1  and  C_2
REMARK    2  A    between atoms: C_2  and  C_3
REMARK    3  A    between atoms: C_3  and  C_4
REMARK    4  A    between atoms: C_4  and  C_5
REMARK    5  A    between atoms: N_7  and  C_8
REMARK    6  A    between atoms: C_8  and  C_9
REMARK    7  A    between atoms: C_9  and  C_10
REMARK    8  A    between atoms: C_10  and  C_11
REMARK    9  A    between atoms: N_14  and  C_15
REMARK   10  A    between atoms: C_15  and  C_16
REMARK   11  A    between atoms: C_19  and  C_20
REMARK   12  A    between atoms: C_25  and  C_26
REMARK                            x       y       z     vdW  Elec       q    Type
REMARK                         _______ _______ _______ _____ _____    ______ ____
ROOT
ATOM      1  C   UNL     1       2.533   7.850  18.346  0.00  0.00    +0.000 A 
ATOM      2  C   UNL     1       2.143   7.650  19.673  0.00  0.00    +0.000 A 
ATOM      3  C   UNL     1       1.245   8.531  20.286  0.00  0.00    +0.000 A 
ATOM      4  C   UNL     1       0.737   9.665  19.622  0.00  0.00    +0.000 A 
ATOM      5  C   UNL     1       1.162   9.850  18.295  0.00  0.00    +0.000 A 
ATOM      6  C   UNL     1       1.987   8.927  17.646  0.00  0.00    +0.000 A 
ENDROOT
BRANCH   4   7
ATOM      7  C   UNL     1      -0.182  10.623  20.313  0.00  0.00    +0.000 A 
ATOM      8  C   UNL     1       0.154  11.028  21.632  0.00  0.00    +0.000 A 
ATOM      9  C   UNL     1      -0.627  11.925  22.360  0.00  0.00    +0.000 A 
ATOM     10  C   UNL     1      -1.751  12.488  21.777  0.00  0.00    +0.000 A 
ATOM     11  C   UNL     1      -2.104  12.133  20.480  0.00  0.00    +0.000 A 
ATOM     12  C   UNL     1      -1.352  11.192  19.749  0.00  0.00    +0.000 A 
BRANCH  12  13
ATOM     13  C   UNL     1      -1.864  10.857  18.421  0.00  0.00    +0.000 A 
ATOM     14  N   UNL     1      -1.853  11.760  17.379  0.00  0.00    +0.000 NA
ATOM     15  N   UNL     1      -2.314  11.119  16.313  0.00  0.00    +0.000 NA
ATOM     16  N   UNL     1      -2.583   9.885  16.754  0.00  0.00    +0.000 N 
ATOM     17  N   UNL     1      -2.387   9.674  18.062  0.00  0.00    +0.000 NA
ATOM     18  H   UNL     1      -2.902   9.150  16.130  0.00  0.00    +0.000 HD
ENDBRANCH  12  13
ENDBRANCH   4   7
BRANCH   1  19
ATOM     19  C   UNL     1       3.575   6.972  17.703  0.00  0.00    +0.000 C 
BRANCH  19  25
ATOM     20  C   UNL     1       4.630   4.972  18.890  0.00  0.00    +0.000 A 
ATOM     21  N   UNL     1       4.345   3.729  19.169  0.00  0.00    +0.000 NA
ATOM     22  N   UNL     1       3.071   3.575  18.681  0.00  0.00    +0.000 N 
ATOM     23  C   UNL     1       2.620   4.744  18.104  0.00  0.00    +0.000 A 
ATOM     24  O   UNL     1       1.549   4.929  17.539  0.00  0.00    +0.000 OA
ATOM     25  N   UNL     1       3.646   5.645  18.266  0.00  0.00    +0.000 N 
BRANCH  20  26
ATOM     26  C   UNL     1       5.957   5.586  19.270  0.00  0.00    +0.000 C 
BRANCH  26  27
ATOM     27  C   UNL     1       7.099   5.137  18.353  0.00  0.00    +0.000 C 
BRANCH  27  29
ATOM     28  C   UNL     1       7.024   4.779  15.853  0.00  0.00    +0.000 C 
ATOM     29  C   UNL     1       7.037   5.803  16.977  0.00  0.00    +0.000 C 
ENDBRANCH  27  29
ENDBRANCH  26  27
ENDBRANCH  20  26
BRANCH  22  30
ATOM     30  C   UNL     1       2.346   2.325  18.723  0.00  0.00    +0.000 C 
BRANCH  30  31
ATOM     31  C   UNL     1       0.965   2.455  19.363  0.00  0.00    +0.000 C 
BRANCH  31  32
ATOM     32  C   UNL     1       0.973   3.230  20.682  0.00  0.00    +0.000 C 
ATOM     33  C   UNL     1       1.862   2.527  21.697  0.00  0.00    +0.000 C 
ENDBRANCH  31  32
ENDBRANCH  30  31
ENDBRANCH  22  30
ENDBRANCH  19  25
ENDBRANCH   1  19
TORSDOF 10
ENDMDL
