MODEL 1
REMARK VINA RESULT:      -7.2      0.000      0.000
REMARK  Name = 
REMARK  8 active torsions:
REMARK  status: ('A' for Active; 'I' for Inactive)
REMARK    1  A    between atoms: C_1  and  N_2
REMARK    2  A    between atoms: N_2  and  C_3
REMARK    3  A    between atoms: C_9  and  C_10
REMARK    4  A    between atoms: N_14  and  C_15
REMARK    5  A    between atoms: C_17  and  C_18
REMARK    6  A    between atoms: C_18  and  O_19
REMARK    7  A    between atoms: C_20  and  O_21
REMARK    8  A    between atoms: C_22  and  O_23
REMARK                            x       y       z     vdW  Elec       q    Type
REMARK                         _______ _______ _______ _____ _____    ______ ____
ROOT
ATOM      1  C   UNL     1       4.369   3.837  18.800  0.00  0.00    +0.000 A 
ATOM      2  N   UNL     1       5.179   4.417  17.887  0.00  0.00    +0.000 NA
ATOM      3  C   UNL     1       5.005   5.724  17.589  0.00  0.00    +0.000 A 
ATOM      4  N   UNL     1       4.109   6.565  18.119  0.00  0.00    +0.000 NA
ATOM      5  C   UNL     1       3.355   5.975  19.052  0.00  0.00    +0.000 A 
ATOM      6  C   UNL     1       3.408   4.642  19.451  0.00  0.00    +0.000 A 
ATOM      7  C   UNL     1       2.398   4.462  20.462  0.00  0.00    +0.000 A 
ATOM      8  C   UNL     1       1.775   5.687  20.619  0.00  0.00    +0.000 A 
ATOM      9  N   UNL     1       2.395   6.602  19.805  0.00  0.00    +0.000 N 
ENDROOT
BRANCH   7  10
ATOM     10  C   UNL     1       2.009   3.286  21.239  0.00  0.00    +0.000 C 
ATOM     11  N   UNL     1       0.740   2.841  21.057  0.00  0.00    +0.000 N 
ATOM     12  O   UNL     1       2.777   2.695  21.983  0.00  0.00    +0.000 OA
ATOM     13  H   UNL     1       0.093   3.282  20.406  0.00  0.00    +0.000 HD
ATOM     14  H   UNL     1       0.468   1.990  21.528  0.00  0.00    +0.000 HD
ENDBRANCH   7  10
BRANCH   9  15
ATOM     15  C   UNL     1       2.047   8.014  19.765  0.00  0.00    +0.000 C 
ATOM     16  S   UNL     1       1.393   8.594  18.181  0.00  0.00    +0.000 S 
ATOM     17  C   UNL     1       0.614  10.041  18.927  0.00  0.00    +0.000 C 
ATOM     18  C   UNL     1       0.139   9.559  20.315  0.00  0.00    +0.000 C 
ATOM     19  C   UNL     1       1.066   8.445  20.860  0.00  0.00    +0.000 C 
BRANCH  18  20
ATOM     20  O   UNL     1       0.017  10.589  21.306  0.00  0.00    +0.000 OA
ATOM     21  H   UNL     1      -0.931  10.817  21.428  0.00  0.00    +0.000 HD
ENDBRANCH  18  20
BRANCH  19  22
ATOM     22  O   UNL     1       1.829   8.909  21.990  0.00  0.00    +0.000 OA
ATOM     23  H   UNL     1       2.465   9.569  21.642  0.00  0.00    +0.000 HD
ENDBRANCH  19  22
BRANCH  17  24
ATOM     24  C   UNL     1       1.591  11.216  18.953  0.00  0.00    +0.000 C 
BRANCH  24  25
ATOM     25  O   UNL     1       2.311  11.260  17.719  0.00  0.00    +0.000 OA
ATOM     26  H   UNL     1       1.718  10.917  17.023  0.00  0.00    +0.000 HD
ENDBRANCH  24  25
ENDBRANCH  17  24
ENDBRANCH   9  15
BRANCH   1  28
ATOM     27  C   UNL     1       3.571   1.614  18.360  0.00  0.00    +0.000 C 
ATOM     28  N   UNL     1       4.493   2.474  19.084  0.00  0.00    +0.000 N 
ATOM     29  H   UNL     1       4.428   2.351  20.096  0.00  0.00    +0.000 HD
ENDBRANCH   1  28
TORSDOF 7
ENDMDL
MODEL 2
REMARK VINA RESULT:      -6.9      1.207      1.207
REMARK  Name = 
REMARK  8 active torsions:
REMARK  status: ('A' for Active; 'I' for Inactive)
REMARK    1  A    between atoms: C_1  and  N_2
REMARK    2  A    between atoms: N_2  and  C_3
REMARK    3  A    between atoms: C_9  and  C_10
REMARK    4  A    between atoms: N_14  and  C_15
REMARK    5  A    between atoms: C_17  and  C_18
REMARK    6  A    between atoms: C_18  and  O_19
REMARK    7  A    between atoms: C_20  and  O_21
REMARK    8  A    between atoms: C_22  and  O_23
REMARK                            x       y       z     vdW  Elec       q    Type
REMARK                         _______ _______ _______ _____ _____    ______ ____
ROOT
ATOM      1  C   UNL     1       3.650   4.489  18.424  0.00  0.00    +0.000 A 
ATOM      2  N   UNL     1       4.334   5.154  17.466  0.00  0.00    +0.000 NA
ATOM      3  C   UNL     1       4.180   6.493  17.358  0.00  0.00    +0.000 A 
ATOM      4  N   UNL     1       3.421   7.287  18.122  0.00  0.00    +0.000 NA
ATOM      5  C   UNL     1       2.795   6.608  19.088  0.00  0.00    +0.000 A 
ATOM      6  C   UNL     1       2.844   5.234  19.313  0.00  0.00    +0.000 A 
ATOM      7  C   UNL     1       1.998   4.959  20.445  0.00  0.00    +0.000 A 
ATOM      8  C   UNL     1       1.469   6.173  20.845  0.00  0.00    +0.000 A 
ATOM      9  N   UNL     1       1.998   7.164  20.056  0.00  0.00    +0.000 N 
ENDROOT
BRANCH   7  10
ATOM     10  C   UNL     1       1.678   3.707  21.130  0.00  0.00    +0.000 C 
ATOM     11  N   UNL     1       0.717   2.940  20.558  0.00  0.00    +0.000 N 
ATOM     12  O   UNL     1       2.260   3.331  22.137  0.00  0.00    +0.000 OA
ATOM     13  H   UNL     1       0.250   3.203  19.692  0.00  0.00    +0.000 HD
ATOM     14  H   UNL     1       0.526   2.039  20.971  0.00  0.00    +0.000 HD
ENDBRANCH   7  10
BRANCH   9  15
ATOM     15  C   UNL     1       1.717   8.579  20.241  0.00  0.00    +0.000 C 
ATOM     16  S   UNL     1       0.832   9.367  18.874  0.00  0.00    +0.000 S 
ATOM     17  C   UNL     1       0.263  10.733  19.907  0.00  0.00    +0.000 C 
ATOM     18  C   UNL     1       0.009  10.099  21.291  0.00  0.00    +0.000 C 
ATOM     19  C   UNL     1       0.960   8.900  21.534  0.00  0.00    +0.000 C 
BRANCH  18  20
ATOM     20  O   UNL     1       0.109  11.004  22.401  0.00  0.00    +0.000 OA
ATOM     21  H   UNL     1       1.046  11.277  22.517  0.00  0.00    +0.000 HD
ENDBRANCH  18  20
BRANCH  19  22
ATOM     22  O   UNL     1       1.927   9.202  22.558  0.00  0.00    +0.000 OA
ATOM     23  H   UNL     1       2.754   9.449  22.094  0.00  0.00    +0.000 HD
ENDBRANCH  19  22
BRANCH  17  24
ATOM     24  C   UNL     1       1.287  11.869  19.896  0.00  0.00    +0.000 C 
BRANCH  24  25
ATOM     25  O   UNL     1       0.678  13.059  20.400  0.00  0.00    +0.000 OA
ATOM     26  H   UNL     1       0.336  13.558  19.634  0.00  0.00    +0.000 HD
ENDBRANCH  24  25
ENDBRANCH  17  24
ENDBRANCH   9  15
BRANCH   1  28
ATOM     27  C   UNL     1       2.800   2.361  17.703  0.00  0.00    +0.000 C 
ATOM     28  N   UNL     1       3.750   3.098  18.520  0.00  0.00    +0.000 N 
ATOM     29  H   UNL     1       3.697   2.841  19.507  0.00  0.00    +0.000 HD
ENDBRANCH   1  28
TORSDOF 7
ENDMDL
MODEL 3
REMARK VINA RESULT:      -6.8      3.161      6.628
REMARK  Name = 
REMARK  8 active torsions:
REMARK  status: ('A' for Active; 'I' for Inactive)
REMARK    1  A    between atoms: C_1  and  N_2
REMARK    2  A    between atoms: N_2  and  C_3
REMARK    3  A    between atoms: C_9  and  C_10
REMARK    4  A    between atoms: N_14  and  C_15
REMARK    5  A    between atoms: C_17  and  C_18
REMARK    6  A    between atoms: C_18  and  O_19
REMARK    7  A    between atoms: C_20  and  O_21
REMARK    8  A    between atoms: C_22  and  O_23
REMARK                            x       y       z     vdW  Elec       q    Type
REMARK                         _______ _______ _______ _____ _____    ______ ____
ROOT
ATOM      1  C   UNL     1       1.542   6.867  20.550  0.00  0.00    +0.000 A 
ATOM      2  N   UNL     1       1.723   5.721  21.245  0.00  0.00    +0.000 NA
ATOM      3  C   UNL     1       2.546   4.772  20.745  0.00  0.00    +0.000 A 
ATOM      4  N   UNL     1       3.254   4.827  19.611  0.00  0.00    +0.000 NA
ATOM      5  C   UNL     1       3.091   5.989  18.971  0.00  0.00    +0.000 A 
ATOM      6  C   UNL     1       2.270   7.048  19.353  0.00  0.00    +0.000 A 
ATOM      7  C   UNL     1       2.403   8.071  18.349  0.00  0.00    +0.000 A 
ATOM      8  C   UNL     1       3.286   7.582  17.403  0.00  0.00    +0.000 A 
ATOM      9  N   UNL     1       3.735   6.352  17.815  0.00  0.00    +0.000 N 
ENDROOT
BRANCH   7  10
ATOM     10  C   UNL     1       1.792   9.394  18.233  0.00  0.00    +0.000 C 
ATOM     11  N   UNL     1       2.566  10.366  17.687  0.00  0.00    +0.000 N 
ATOM     12  O   UNL     1       0.638   9.626  18.561  0.00  0.00    +0.000 OA
ATOM     13  H   UNL     1       3.514  10.191  17.358  0.00  0.00    +0.000 HD
ATOM     14  H   UNL     1       2.146  11.271  17.532  0.00  0.00    +0.000 HD
ENDBRANCH   7  10
BRANCH   9  15
ATOM     15  C   UNL     1       4.732   5.575  17.097  0.00  0.00    +0.000 C 
ATOM     16  S   UNL     1       5.257   6.281  15.517  0.00  0.00    +0.000 S 
ATOM     17  C   UNL     1       6.791   5.331  15.496  0.00  0.00    +0.000 C 
ATOM     18  C   UNL     1       7.224   5.252  16.976  0.00  0.00    +0.000 C 
ATOM     19  C   UNL     1       5.992   5.271  17.914  0.00  0.00    +0.000 C 
BRANCH  18  20
ATOM     20  O   UNL     1       8.045   4.123  17.309  0.00  0.00    +0.000 OA
ATOM     21  H   UNL     1       8.540   4.311  18.136  0.00  0.00    +0.000 HD
ENDBRANCH  18  20
BRANCH  19  22
ATOM     22  O   UNL     1       5.813   3.998  18.563  0.00  0.00    +0.000 OA
ATOM     23  H   UNL     1       5.546   3.366  17.862  0.00  0.00    +0.000 HD
ENDBRANCH  19  22
BRANCH  17  24
ATOM     24  C   UNL     1       6.570   3.979  14.817  0.00  0.00    +0.000 C 
BRANCH  24  25
ATOM     25  O   UNL     1       6.061   3.047  15.774  0.00  0.00    +0.000 OA
ATOM     26  H   UNL     1       5.301   2.592  15.362  0.00  0.00    +0.000 HD
ENDBRANCH  24  25
ENDBRANCH  17  24
ENDBRANCH   9  15
BRANCH   1  28
ATOM     27  C   UNL     1       1.240   8.814  21.925  0.00  0.00    +0.000 C 
ATOM     28  N   UNL     1       0.654   7.839  21.019  0.00  0.00    +0.000 N 
ATOM     29  H   UNL     1      -0.154   7.364  21.427  0.00  0.00    +0.000 HD
ENDBRANCH   1  28
TORSDOF 7
ENDMDL
MODEL 4
REMARK VINA RESULT:      -6.6      4.059      6.273
REMARK  Name = 
REMARK  8 active torsions:
REMARK  status: ('A' for Active; 'I' for Inactive)
REMARK    1  A    between atoms: C_1  and  N_2
REMARK    2  A    between atoms: N_2  and  C_3
REMARK    3  A    between atoms: C_9  and  C_10
REMARK    4  A    between atoms: N_14  and  C_15
REMARK    5  A    between atoms: C_17  and  C_18
REMARK    6  A    between atoms: C_18  and  O_19
REMARK    7  A    between atoms: C_20  and  O_21
REMARK    8  A    between atoms: C_22  and  O_23
REMARK                            x       y       z     vdW  Elec       q    Type
REMARK                         _______ _______ _______ _____ _____    ______ ____
ROOT
ATOM      1  C   UNL     1       6.642   4.837  15.198  0.00  0.00    +0.000 A 
ATOM      2  N   UNL     1       6.016   3.988  14.355  0.00  0.00    +0.000 NA
ATOM      3  C   UNL     1       4.983   3.246  14.814  0.00  0.00    +0.000 A 
ATOM      4  N   UNL     1       4.461   3.257  16.046  0.00  0.00    +0.000 NA
ATOM      5  C   UNL     1       5.070   4.140  16.843  0.00  0.00    +0.000 A 
ATOM      6  C   UNL     1       6.150   4.957  16.517  0.00  0.00    +0.000 A 
ATOM      7  C   UNL     1       6.476   5.720  17.695  0.00  0.00    +0.000 A 
ATOM      8  C   UNL     1       5.589   5.323  18.679  0.00  0.00    +0.000 A 
ATOM      9  N   UNL     1       4.714   4.412  18.140  0.00  0.00    +0.000 N 
ENDROOT
BRANCH   7  10
ATOM     10  C   UNL     1       7.502   6.734  17.935  0.00  0.00    +0.000 C 
ATOM     11  N   UNL     1       8.223   6.598  19.076  0.00  0.00    +0.000 N 
ATOM     12  O   UNL     1       7.744   7.636  17.147  0.00  0.00    +0.000 OA
ATOM     13  H   UNL     1       8.078   5.828  19.727  0.00  0.00    +0.000 HD
ATOM     14  H   UNL     1       8.983   7.243  19.232  0.00  0.00    +0.000 HD
ENDBRANCH   7  10
BRANCH   9  15
ATOM     15  C   UNL     1       3.598   3.834  18.872  0.00  0.00    +0.000 C 
ATOM     16  S   UNL     1       2.789   4.954  20.040  0.00  0.00    +0.000 S 
ATOM     17  C   UNL     1       1.276   3.972  20.078  0.00  0.00    +0.000 C 
ATOM     18  C   UNL     1       1.126   3.427  18.641  0.00  0.00    +0.000 C 
ATOM     19  C   UNL     1       2.511   3.230  17.977  0.00  0.00    +0.000 C 
BRANCH  18  20
ATOM     20  O   UNL     1       0.379   2.207  18.530  0.00  0.00    +0.000 OA
ATOM     21  H   UNL     1       0.628   1.745  17.699  0.00  0.00    +0.000 HD
ENDBRANCH  18  20
BRANCH  19  22
ATOM     22  O   UNL     1       2.806   1.832  17.793  0.00  0.00    +0.000 OA
ATOM     23  H   UNL     1       2.963   1.463  18.688  0.00  0.00    +0.000 HD
ENDBRANCH  19  22
BRANCH  17  24
ATOM     24  C   UNL     1       1.364   2.902  21.167  0.00  0.00    +0.000 C 
BRANCH  24  25
ATOM     25  O   UNL     1       2.270   3.336  22.183  0.00  0.00    +0.000 OA
ATOM     26  H   UNL     1       2.746   4.115  21.837  0.00  0.00    +0.000 HD
ENDBRANCH  24  25
ENDBRANCH  17  24
ENDBRANCH   9  15
BRANCH   1  28
ATOM     27  C   UNL     1       8.025   5.470  13.338  0.00  0.00    +0.000 C 
ATOM     28  N   UNL     1       7.747   5.574  14.761  0.00  0.00    +0.000 N 
ATOM     29  H   UNL     1       8.552   5.313  15.335  0.00  0.00    +0.000 HD
ENDBRANCH   1  28
TORSDOF 7
ENDMDL
MODEL 5
REMARK VINA RESULT:      -6.3      4.088      6.425
REMARK  Name = 
REMARK  8 active torsions:
REMARK  status: ('A' for Active; 'I' for Inactive)
REMARK    1  A    between atoms: C_1  and  N_2
REMARK    2  A    between atoms: N_2  and  C_3
REMARK    3  A    between atoms: C_9  and  C_10
REMARK    4  A    between atoms: N_14  and  C_15
REMARK    5  A    between atoms: C_17  and  C_18
REMARK    6  A    between atoms: C_18  and  O_19
REMARK    7  A    between atoms: C_20  and  O_21
REMARK    8  A    between atoms: C_22  and  O_23
REMARK                            x       y       z     vdW  Elec       q    Type
REMARK                         _______ _______ _______ _____ _____    ______ ____
ROOT
ATOM      1  C   UNL     1       7.380   6.371  17.969  0.00  0.00    +0.000 A 
ATOM      2  N   UNL     1       7.961   6.117  19.162  0.00  0.00    +0.000 NA
ATOM      3  C   UNL     1       7.275   5.416  20.092  0.00  0.00    +0.000 A 
ATOM      4  N   UNL     1       6.047   4.898  19.975  0.00  0.00    +0.000 NA
ATOM      5  C   UNL     1       5.518   5.124  18.769  0.00  0.00    +0.000 A 
ATOM      6  C   UNL     1       6.096   5.838  17.722  0.00  0.00    +0.000 A 
ATOM      7  C   UNL     1       5.150   5.835  16.634  0.00  0.00    +0.000 A 
ATOM      8  C   UNL     1       4.045   5.132  17.076  0.00  0.00    +0.000 A 
ATOM      9  N   UNL     1       4.299   4.662  18.341  0.00  0.00    +0.000 N 
ENDROOT
BRANCH   7  10
ATOM     10  C   UNL     1       5.220   6.415  15.294  0.00  0.00    +0.000 C 
ATOM     11  N   UNL     1       5.976   5.743  14.390  0.00  0.00    +0.000 N 
ATOM     12  O   UNL     1       4.607   7.421  14.970  0.00  0.00    +0.000 OA
ATOM     13  H   UNL     1       6.458   4.874  14.616  0.00  0.00    +0.000 HD
ATOM     14  H   UNL     1       5.986   6.082  13.439  0.00  0.00    +0.000 HD
ENDBRANCH   7  10
BRANCH   9  15
ATOM     15  C   UNL     1       3.380   3.818  19.088  0.00  0.00    +0.000 C 
ATOM     16  S   UNL     1       2.308   4.698  20.250  0.00  0.00    +0.000 S 
ATOM     17  C   UNL     1       1.111   3.349  20.311  0.00  0.00    +0.000 C 
ATOM     18  C   UNL     1       1.105   2.765  18.881  0.00  0.00    +0.000 C 
ATOM     19  C   UNL     1       2.490   2.935  18.209  0.00  0.00    +0.000 C 
BRANCH  18  20
ATOM     20  O   UNL     1       0.709   1.389  18.790  0.00  0.00    +0.000 OA
ATOM     21  H   UNL     1       0.074   1.280  18.047  0.00  0.00    +0.000 HD
ENDBRANCH  18  20
BRANCH  19  22
ATOM     22  O   UNL     1       3.145   1.663  18.038  0.00  0.00    +0.000 OA
ATOM     23  H   UNL     1       2.720   1.235  17.265  0.00  0.00    +0.000 HD
ENDBRANCH  19  22
BRANCH  17  24
ATOM     24  C   UNL     1       1.485   2.355  21.411  0.00  0.00    +0.000 C 
BRANCH  24  25
ATOM     25  O   UNL     1       2.473   2.941  22.261  0.00  0.00    +0.000 OA
ATOM     26  H   UNL     1       2.937   2.211  22.715  0.00  0.00    +0.000 HD
ENDBRANCH  24  25
ENDBRANCH  17  24
ENDBRANCH   9  15
BRANCH   1  28
ATOM     27  C   UNL     1       8.119   8.561  17.313  0.00  0.00    +0.000 C 
ATOM     28  N   UNL     1       8.048   7.141  17.012  0.00  0.00    +0.000 N 
ATOM     29  H   UNL     1       7.625   6.956  16.100  0.00  0.00    +0.000 HD
ENDBRANCH   1  28
TORSDOF 7
ENDMDL
MODEL 6
REMARK VINA RESULT:      -6.3      2.701      6.483
REMARK  Name = 
REMARK  8 active torsions:
REMARK  status: ('A' for Active; 'I' for Inactive)
REMARK    1  A    between atoms: C_1  and  N_2
REMARK    2  A    between atoms: N_2  and  C_3
REMARK    3  A    between atoms: C_9  and  C_10
REMARK    4  A    between atoms: N_14  and  C_15
REMARK    5  A    between atoms: C_17  and  C_18
REMARK    6  A    between atoms: C_18  and  O_19
REMARK    7  A    between atoms: C_20  and  O_21
REMARK    8  A    between atoms: C_22  and  O_23
REMARK                            x       y       z     vdW  Elec       q    Type
REMARK                         _______ _______ _______ _____ _____    ______ ____
ROOT
ATOM      1  C   UNL     1       1.163  10.355  19.540  0.00  0.00    +0.000 A 
ATOM      2  N   UNL     1       1.518  10.462  18.241  0.00  0.00    +0.000 NA
ATOM      3  C   UNL     1       2.019   9.380  17.604  0.00  0.00    +0.000 A 
ATOM      4  N   UNL     1       2.200   8.154  18.108  0.00  0.00    +0.000 NA
ATOM      5  C   UNL     1       1.796   8.067  19.379  0.00  0.00    +0.000 A 
ATOM      6  C   UNL     1       1.277   9.093  20.165  0.00  0.00    +0.000 A 
ATOM      7  C   UNL     1       1.006   8.536  21.465  0.00  0.00    +0.000 A 
ATOM      8  C   UNL     1       1.382   7.206  21.410  0.00  0.00    +0.000 A 
ATOM      9  N   UNL     1       1.805   6.922  20.135  0.00  0.00    +0.000 N 
ENDROOT
BRANCH   7  10
ATOM     10  C   UNL     1       0.450   9.138  22.676  0.00  0.00    +0.000 C 
ATOM     11  N   UNL     1      -0.894   9.039  22.831  0.00  0.00    +0.000 N 
ATOM     12  O   UNL     1       1.140   9.667  23.534  0.00  0.00    +0.000 OA
ATOM     13  H   UNL     1      -1.490   8.560  22.158  0.00  0.00    +0.000 HD
ATOM     14  H   UNL     1      -1.295   9.385  23.690  0.00  0.00    +0.000 HD
ENDBRANCH   7  10
BRANCH   9  15
ATOM     15  C   UNL     1       2.208   5.596  19.695  0.00  0.00    +0.000 C 
ATOM     16  S   UNL     1       3.981   5.397  19.395  0.00  0.00    +0.000 S 
ATOM     17  C   UNL     1       3.900   3.601  19.546  0.00  0.00    +0.000 C 
ATOM     18  C   UNL     1       2.833   3.346  20.632  0.00  0.00    +0.000 C 
ATOM     19  C   UNL     1       1.764   4.467  20.632  0.00  0.00    +0.000 C 
BRANCH  18  20
ATOM     20  O   UNL     1       2.173   2.074  20.548  0.00  0.00    +0.000 OA
ATOM     21  H   UNL     1       1.597   2.057  19.752  0.00  0.00    +0.000 HD
ENDBRANCH  18  20
BRANCH  19  22
ATOM     22  O   UNL     1       0.492   3.973  20.170  0.00  0.00    +0.000 OA
ATOM     23  H   UNL     1      -0.189   4.384  20.743  0.00  0.00    +0.000 HD
ENDBRANCH  19  22
BRANCH  17  24
ATOM     24  C   UNL     1       3.601   2.967  18.187  0.00  0.00    +0.000 C 
BRANCH  24  25
ATOM     25  O   UNL     1       3.957   1.583  18.222  0.00  0.00    +0.000 OA
ATOM     26  H   UNL     1       3.158   1.070  17.994  0.00  0.00    +0.000 HD
ENDBRANCH  24  25
ENDBRANCH  17  24
ENDBRANCH   9  15
BRANCH   1  28
ATOM     27  C   UNL     1       1.341  12.727  19.880  0.00  0.00    +0.000 C 
ATOM     28  N   UNL     1       0.695  11.474  20.235  0.00  0.00    +0.000 N 
ATOM     29  H   UNL     1       0.752  11.276  21.235  0.00  0.00    +0.000 HD
ENDBRANCH   1  28
TORSDOF 7
ENDMDL
MODEL 7
REMARK VINA RESULT:      -6.3      3.762      6.260
REMARK  Name = 
REMARK  8 active torsions:
REMARK  status: ('A' for Active; 'I' for Inactive)
REMARK    1  A    between atoms: C_1  and  N_2
REMARK    2  A    between atoms: N_2  and  C_3
REMARK    3  A    between atoms: C_9  and  C_10
REMARK    4  A    between atoms: N_14  and  C_15
REMARK    5  A    between atoms: C_17  and  C_18
REMARK    6  A    between atoms: C_18  and  O_19
REMARK    7  A    between atoms: C_20  and  O_21
REMARK    8  A    between atoms: C_22  and  O_23
REMARK                            x       y       z     vdW  Elec       q    Type
REMARK                         _______ _______ _______ _____ _____    ______ ____
ROOT
ATOM      1  C   UNL     1       6.976   5.057  14.946  0.00  0.00    +0.000 A 
ATOM      2  N   UNL     1       6.400   4.166  14.109  0.00  0.00    +0.000 NA
ATOM      3  C   UNL     1       5.352   3.434  14.547  0.00  0.00    +0.000 A 
ATOM      4  N   UNL     1       4.768   3.491  15.750  0.00  0.00    +0.000 NA
ATOM      5  C   UNL     1       5.329   4.413  16.538  0.00  0.00    +0.000 A 
ATOM      6  C   UNL     1       6.417   5.227  16.232  0.00  0.00    +0.000 A 
ATOM      7  C   UNL     1       6.677   6.041  17.392  0.00  0.00    +0.000 A 
ATOM      8  C   UNL     1       5.744   5.676  18.346  0.00  0.00    +0.000 A 
ATOM      9  N   UNL     1       4.905   4.734  17.803  0.00  0.00    +0.000 N 
ENDROOT
BRANCH   7  10
ATOM     10  C   UNL     1       7.681   7.074  17.640  0.00  0.00    +0.000 C 
ATOM     11  N   UNL     1       8.335   7.001  18.826  0.00  0.00    +0.000 N 
ATOM     12  O   UNL     1       7.962   7.939  16.824  0.00  0.00    +0.000 OA
ATOM     13  H   UNL     1       8.158   6.263  19.505  0.00  0.00    +0.000 HD
ATOM     14  H   UNL     1       9.081   7.660  18.994  0.00  0.00    +0.000 HD
ENDBRANCH   7  10
BRANCH   9  15
ATOM     15  C   UNL     1       3.759   4.176  18.502  0.00  0.00    +0.000 C 
ATOM     16  S   UNL     1       4.129   2.758  19.563  0.00  0.00    +0.000 S 
ATOM     17  C   UNL     1       2.623   2.974  20.534  0.00  0.00    +0.000 C 
ATOM     18  C   UNL     1       2.419   4.503  20.606  0.00  0.00    +0.000 C 
ATOM     19  C   UNL     1       2.982   5.196  19.340  0.00  0.00    +0.000 C 
BRANCH  18  20
ATOM     20  O   UNL     1       1.061   4.925  20.801  0.00  0.00    +0.000 OA
ATOM     21  H   UNL     1       0.736   5.370  19.988  0.00  0.00    +0.000 HD
ENDBRANCH  18  20
BRANCH  19  22
ATOM     22  O   UNL     1       1.923   5.734  18.526  0.00  0.00    +0.000 OA
ATOM     23  H   UNL     1       1.399   4.967  18.211  0.00  0.00    +0.000 HD
ENDBRANCH  19  22
BRANCH  17  24
ATOM     24  C   UNL     1       1.467   2.198  19.903  0.00  0.00    +0.000 C 
BRANCH  24  25
ATOM     25  O   UNL     1       1.959   1.430  18.802  0.00  0.00    +0.000 OA
ATOM     26  H   UNL     1       2.594   0.781  19.161  0.00  0.00    +0.000 HD
ENDBRANCH  24  25
ENDBRANCH  17  24
ENDBRANCH   9  15
BRANCH   1  28
ATOM     27  C   UNL     1       8.373   5.723  13.109  0.00  0.00    +0.000 C 
ATOM     28  N   UNL     1       8.096   5.786  14.534  0.00  0.00    +0.000 N 
ATOM     29  H   UNL     1       8.894   5.492  15.100  0.00  0.00    +0.000 HD
ENDBRANCH   1  28
TORSDOF 7
ENDMDL
MODEL 8
REMARK VINA RESULT:      -6.2      1.835      3.218
REMARK  Name = 
REMARK  8 active torsions:
REMARK  status: ('A' for Active; 'I' for Inactive)
REMARK    1  A    between atoms: C_1  and  N_2
REMARK    2  A    between atoms: N_2  and  C_3
REMARK    3  A    between atoms: C_9  and  C_10
REMARK    4  A    between atoms: N_14  and  C_15
REMARK    5  A    between atoms: C_17  and  C_18
REMARK    6  A    between atoms: C_18  and  O_19
REMARK    7  A    between atoms: C_20  and  O_21
REMARK    8  A    between atoms: C_22  and  O_23
REMARK                            x       y       z     vdW  Elec       q    Type
REMARK                         _______ _______ _______ _____ _____    ______ ____
ROOT
ATOM      1  C   UNL     1       3.402   3.876  19.132  0.00  0.00    +0.000 A 
ATOM      2  N   UNL     1       2.701   3.511  20.228  0.00  0.00    +0.000 NA
ATOM      3  C   UNL     1       2.035   4.457  20.928  0.00  0.00    +0.000 A 
ATOM      4  N   UNL     1       1.958   5.765  20.654  0.00  0.00    +0.000 NA
ATOM      5  C   UNL     1       2.621   6.087  19.540  0.00  0.00    +0.000 A 
ATOM      6  C   UNL     1       3.361   5.229  18.729  0.00  0.00    +0.000 A 
ATOM      7  C   UNL     1       3.910   6.025  17.661  0.00  0.00    +0.000 A 
ATOM      8  C   UNL     1       3.488   7.324  17.881  0.00  0.00    +0.000 A 
ATOM      9  N   UNL     1       2.669   7.339  18.983  0.00  0.00    +0.000 N 
ENDROOT
BRANCH   7  10
ATOM     10  C   UNL     1       4.751   5.662  16.521  0.00  0.00    +0.000 C 
ATOM     11  N   UNL     1       5.474   6.667  15.966  0.00  0.00    +0.000 N 
ATOM     12  O   UNL     1       4.847   4.519  16.101  0.00  0.00    +0.000 OA
ATOM     13  H   UNL     1       5.454   7.620  16.326  0.00  0.00    +0.000 HD
ATOM     14  H   UNL     1       6.115   6.431  15.223  0.00  0.00    +0.000 HD
ENDBRANCH   7  10
BRANCH   9  15
ATOM     15  C   UNL     1       1.986   8.529  19.464  0.00  0.00    +0.000 C 
ATOM     16  S   UNL     1       1.022   9.414  18.214  0.00  0.00    +0.000 S 
ATOM     17  C   UNL     1       0.012  10.253  19.453  0.00  0.00    +0.000 C 
ATOM     18  C   UNL     1      -0.158   9.218  20.587  0.00  0.00    +0.000 C 
ATOM     19  C   UNL     1       1.072   8.280  20.668  0.00  0.00    +0.000 C 
BRANCH  18  20
ATOM     20  O   UNL     1      -0.403   9.776  21.885  0.00  0.00    +0.000 OA
ATOM     21  H   UNL     1      -0.638   9.057  22.512  0.00  0.00    +0.000 HD
ENDBRANCH  18  20
BRANCH  19  22
ATOM     22  O   UNL     1       1.832   8.521  21.868  0.00  0.00    +0.000 OA
ATOM     23  H   UNL     1       1.947   7.649  22.301  0.00  0.00    +0.000 HD
ENDBRANCH  19  22
BRANCH  17  24
ATOM     24  C   UNL     1       0.671  11.567  19.874  0.00  0.00    +0.000 C 
BRANCH  24  25
ATOM     25  O   UNL     1      -0.281  12.369  20.576  0.00  0.00    +0.000 OA
ATOM     26  H   UNL     1      -1.132  11.889  20.564  0.00  0.00    +0.000 HD
ENDBRANCH  24  25
ENDBRANCH  17  24
ENDBRANCH   9  15
BRANCH   1  28
ATOM     27  C   UNL     1       3.472   1.652  18.227  0.00  0.00    +0.000 C 
ATOM     28  N   UNL     1       4.144   2.926  18.424  0.00  0.00    +0.000 N 
ATOM     29  H   UNL     1       5.051   2.821  18.883  0.00  0.00    +0.000 HD
ENDBRANCH   1  28
TORSDOF 7
ENDMDL
MODEL 9
REMARK VINA RESULT:      -6.1      2.139      3.653
REMARK  Name = 
REMARK  8 active torsions:
REMARK  status: ('A' for Active; 'I' for Inactive)
REMARK    1  A    between atoms: C_1  and  N_2
REMARK    2  A    between atoms: N_2  and  C_3
REMARK    3  A    between atoms: C_9  and  C_10
REMARK    4  A    between atoms: N_14  and  C_15
REMARK    5  A    between atoms: C_17  and  C_18
REMARK    6  A    between atoms: C_18  and  O_19
REMARK    7  A    between atoms: C_20  and  O_21
REMARK    8  A    between atoms: C_22  and  O_23
REMARK                            x       y       z     vdW  Elec       q    Type
REMARK                         _______ _______ _______ _____ _____    ______ ____
ROOT
ATOM      1  C   UNL     1       3.480   4.007  19.287  0.00  0.00    +0.000 A 
ATOM      2  N   UNL     1       2.737   3.583  20.334  0.00  0.00    +0.000 NA
ATOM      3  C   UNL     1       1.892   4.451  20.934  0.00  0.00    +0.000 A 
ATOM      4  N   UNL     1       1.667   5.727  20.601  0.00  0.00    +0.000 NA
ATOM      5  C   UNL     1       2.380   6.102  19.534  0.00  0.00    +0.000 A 
ATOM      6  C   UNL     1       3.296   5.329  18.825  0.00  0.00    +0.000 A 
ATOM      7  C   UNL     1       3.829   6.160  17.776  0.00  0.00    +0.000 A 
ATOM      8  C   UNL     1       3.221   7.395  17.905  0.00  0.00    +0.000 A 
ATOM      9  N   UNL     1       2.312   7.333  18.932  0.00  0.00    +0.000 N 
ENDROOT
BRANCH   7  10
ATOM     10  C   UNL     1       4.809   5.880  16.728  0.00  0.00    +0.000 C 
ATOM     11  N   UNL     1       5.687   6.876  16.447  0.00  0.00    +0.000 N 
ATOM     12  O   UNL     1       4.881   4.804  16.153  0.00  0.00    +0.000 OA
ATOM     13  H   UNL     1       5.684   7.765  16.944  0.00  0.00    +0.000 HD
ATOM     14  H   UNL     1       6.417   6.684  15.778  0.00  0.00    +0.000 HD
ENDBRANCH   7  10
BRANCH   9  15
ATOM     15  C   UNL     1       1.437   8.433  19.303  0.00  0.00    +0.000 C 
ATOM     16  S   UNL     1       1.636   9.027  21.000  0.00  0.00    +0.000 S 
ATOM     17  C   UNL     1       0.873  10.621  20.631  0.00  0.00    +0.000 C 
ATOM     18  C   UNL     1       1.319  10.944  19.189  0.00  0.00    +0.000 C 
ATOM     19  C   UNL     1       1.530   9.646  18.371  0.00  0.00    +0.000 C 
BRANCH  18  20
ATOM     20  O   UNL     1       0.438  11.813  18.462  0.00  0.00    +0.000 OA
ATOM     21  H   UNL     1       0.964  12.378  17.854  0.00  0.00    +0.000 HD
ENDBRANCH  18  20
BRANCH  19  22
ATOM     22  O   UNL     1       0.525   9.506  17.348  0.00  0.00    +0.000 OA
ATOM     23  H   UNL     1       0.548   8.567  17.065  0.00  0.00    +0.000 HD
ENDBRANCH  19  22
BRANCH  17  24
ATOM     24  C   UNL     1      -0.640  10.545  20.836  0.00  0.00    +0.000 C 
BRANCH  24  25
ATOM     25  O   UNL     1      -1.179  11.868  20.869  0.00  0.00    +0.000 OA
ATOM     26  H   UNL     1      -0.483  12.475  20.551  0.00  0.00    +0.000 HD
ENDBRANCH  24  25
ENDBRANCH  17  24
ENDBRANCH   9  15
BRANCH   1  28
ATOM     27  C   UNL     1       3.845   1.882  18.226  0.00  0.00    +0.000 C 
ATOM     28  N   UNL     1       4.401   3.144  18.685  0.00  0.00    +0.000 N 
ATOM     29  H   UNL     1       5.185   3.015  19.327  0.00  0.00    +0.000 HD
ENDBRANCH   1  28
TORSDOF 7
ENDMDL
