MODEL 1
REMARK VINA RESULT:      -7.9      0.000      0.000
REMARK  Name = 
REMARK  11 active torsions:
REMARK  status: ('A' for Active; 'I' for Inactive)
REMARK    1  A    between atoms: C_1  and  C_2
REMARK    2  A    between atoms: C_2  and  C_3
REMARK    3  A    between atoms: C_2  and  C_4
REMARK    4  A    between atoms: C_2  and  C_27
REMARK    5  A    between atoms: C_4  and  C_5
REMARK    6  A    between atoms: C_5  and  N_6
REMARK    7  A    between atoms: C_7  and  C_9
REMARK    8  A    between atoms: C_14  and  O_15
REMARK    9  A    between atoms: O_15  and  C_16
REMARK   10  A    between atoms: C_25  and  O_26
REMARK   11  A    between atoms: C_27  and  O_29
REMARK                            x       y       z     vdW  Elec       q    Type
REMARK                         _______ _______ _______ _____ _____    ______ ____
ROOT
ATOM      1  C   UNL     1       1.923   7.893  19.404  0.00  0.00    +0.000 A 
ATOM      2  N   UNL     1       1.767   8.953  18.559  0.00  0.00    +0.000 NA
ATOM      3  C   UNL     1       1.056  10.000  19.041  0.00  0.00    +0.000 A 
ATOM      4  C   UNL     1       0.513  10.073  20.329  0.00  0.00    +0.000 A 
ATOM      5  C   UNL     1      -0.173  11.215  20.789  0.00  0.00    +0.000 A 
ATOM      6  C   UNL     1      -0.649  11.271  22.099  0.00  0.00    +0.000 A 
ATOM      7  C   UNL     1      -0.542  10.146  22.917  0.00  0.00    +0.000 A 
ATOM      8  C   UNL     1       0.169   9.029  22.487  0.00  0.00    +0.000 A 
ATOM      9  C   UNL     1       0.710   8.967  21.189  0.00  0.00    +0.000 A 
ATOM     10  C   UNL     1       1.444   7.864  20.712  0.00  0.00    +0.000 A 
ENDROOT
BRANCH   1  12
ATOM     11  N   UNL     1       3.791   6.348  19.513  0.00  0.00    +0.000 N 
ATOM     12  C   UNL     1       2.644   6.713  18.834  0.00  0.00    +0.000 C 
ATOM     13  O   UNL     1       2.255   6.117  17.829  0.00  0.00    +0.000 OA
ATOM     14  H   UNL     1       4.073   6.923  20.303  0.00  0.00    +0.000 HD
BRANCH  11  15
ATOM     15  C   UNL     1       4.511   5.144  19.174  0.00  0.00    +0.000 C 
BRANCH  15  16
ATOM     16  C   UNL     1       5.819   5.450  18.446  0.00  0.00    +0.000 C 
BRANCH  16  18
ATOM     17  C   UNL     1       4.870   3.990  16.604  0.00  0.00    +0.000 C 
ATOM     18  C   UNL     1       5.779   5.195  16.917  0.00  0.00    +0.000 C 
ATOM     19  C   UNL     1       5.255   6.412  16.137  0.00  0.00    +0.000 C 
BRANCH  18  20
ATOM     20  C   UNL     1       7.195   4.863  16.426  0.00  0.00    +0.000 C 
ATOM     21  O   UNL     1       8.018   4.226  17.066  0.00  0.00    +0.000 OA
BRANCH  20  22
ATOM     22  O   UNL     1       7.487   5.329  15.189  0.00  0.00    +0.000 OA
ATOM     23  H   UNL     1       7.834   6.239  15.156  0.00  0.00    +0.000 HD
ENDBRANCH  20  22
ENDBRANCH  18  20
ENDBRANCH  16  18
ENDBRANCH  15  16
ENDBRANCH  11  15
ENDBRANCH   1  12
BRANCH  10  24
ATOM     24  O   UNL     1       1.756   6.812  21.531  0.00  0.00    +0.000 OA
ATOM     25  H   UNL     1       0.972   6.264  21.680  0.00  0.00    +0.000 HD
ENDBRANCH  10  24
BRANCH   6  26
ATOM     26  O   UNL     1      -1.199  12.466  22.520  0.00  0.00    +0.000 OA
BRANCH  26  27
ATOM     27  C   UNL     1      -2.576  12.578  22.528  0.00  0.00    +0.000 A 
ATOM     28  C   UNL     1      -3.344  12.720  21.366  0.00  0.00    +0.000 A 
ATOM     29  C   UNL     1      -4.707  12.994  21.455  0.00  0.00    +0.000 A 
ATOM     30  C   UNL     1      -5.324  13.036  22.703  0.00  0.00    +0.000 A 
ATOM     31  C   UNL     1      -4.581  12.785  23.858  0.00  0.00    +0.000 A 
ATOM     32  C   UNL     1      -3.205  12.558  23.772  0.00  0.00    +0.000 A 
ENDBRANCH  26  27
ENDBRANCH   6  26
TORSDOF 9
ENDMDL
MODEL 2
REMARK VINA RESULT:      -7.9      1.299      1.667
REMARK  Name = 
REMARK  11 active torsions:
REMARK  status: ('A' for Active; 'I' for Inactive)
REMARK    1  A    between atoms: C_1  and  C_2
REMARK    2  A    between atoms: C_2  and  C_3
REMARK    3  A    between atoms: C_2  and  C_4
REMARK    4  A    between atoms: C_2  and  C_27
REMARK    5  A    between atoms: C_4  and  C_5
REMARK    6  A    between atoms: C_5  and  N_6
REMARK    7  A    between atoms: C_7  and  C_9
REMARK    8  A    between atoms: C_14  and  O_15
REMARK    9  A    between atoms: O_15  and  C_16
REMARK   10  A    between atoms: C_25  and  O_26
REMARK   11  A    between atoms: C_27  and  O_29
REMARK                            x       y       z     vdW  Elec       q    Type
REMARK                         _______ _______ _______ _____ _____    ______ ____
ROOT
ATOM      1  C   UNL     1       1.944   8.174  19.200  0.00  0.00    +0.000 A 
ATOM      2  N   UNL     1       1.743   9.270  18.413  0.00  0.00    +0.000 NA
ATOM      3  C   UNL     1       1.025  10.277  18.966  0.00  0.00    +0.000 A 
ATOM      4  C   UNL     1       0.515  10.274  20.269  0.00  0.00    +0.000 A 
ATOM      5  C   UNL     1      -0.182  11.377  20.804  0.00  0.00    +0.000 A 
ATOM      6  C   UNL     1      -0.623  11.357  22.127  0.00  0.00    +0.000 A 
ATOM      7  C   UNL     1      -0.471  10.196  22.884  0.00  0.00    +0.000 A 
ATOM      8  C   UNL     1       0.252   9.118  22.381  0.00  0.00    +0.000 A 
ATOM      9  C   UNL     1       0.758   9.131  21.067  0.00  0.00    +0.000 A 
ATOM     10  C   UNL     1       1.502   8.070  20.517  0.00  0.00    +0.000 A 
ENDROOT
BRANCH   1  12
ATOM     11  N   UNL     1       3.643   7.415  17.642  0.00  0.00    +0.000 N 
ATOM     12  C   UNL     1       2.674   7.040  18.553  0.00  0.00    +0.000 C 
ATOM     13  O   UNL     1       2.425   5.860  18.804  0.00  0.00    +0.000 OA
ATOM     14  H   UNL     1       3.750   8.408  17.453  0.00  0.00    +0.000 HD
BRANCH  11  15
ATOM     15  C   UNL     1       4.529   6.443  17.049  0.00  0.00    +0.000 C 
BRANCH  15  16
ATOM     16  C   UNL     1       5.993   6.734  17.375  0.00  0.00    +0.000 C 
BRANCH  16  18
ATOM     17  C   UNL     1       5.734   4.791  18.983  0.00  0.00    +0.000 C 
ATOM     18  C   UNL     1       6.728   5.583  18.111  0.00  0.00    +0.000 C 
ATOM     19  C   UNL     1       7.403   4.605  17.136  0.00  0.00    +0.000 C 
BRANCH  18  20
ATOM     20  C   UNL     1       7.799   6.182  19.035  0.00  0.00    +0.000 C 
ATOM     21  O   UNL     1       8.438   7.194  18.788  0.00  0.00    +0.000 OA
BRANCH  20  22
ATOM     22  O   UNL     1       7.995   5.500  20.187  0.00  0.00    +0.000 OA
ATOM     23  H   UNL     1       7.202   5.075  20.562  0.00  0.00    +0.000 HD
ENDBRANCH  20  22
ENDBRANCH  18  20
ENDBRANCH  16  18
ENDBRANCH  15  16
ENDBRANCH  11  15
ENDBRANCH   1  12
BRANCH  10  24
ATOM     24  O   UNL     1       1.858   6.986  21.274  0.00  0.00    +0.000 OA
ATOM     25  H   UNL     1       2.820   6.883  21.274  0.00  0.00    +0.000 HD
ENDBRANCH  10  24
BRANCH   6  26
ATOM     26  O   UNL     1      -1.186  12.518  22.621  0.00  0.00    +0.000 OA
BRANCH  26  27
ATOM     27  C   UNL     1      -2.563  12.584  22.708  0.00  0.00    +0.000 A 
ATOM     28  C   UNL     1      -3.400  12.728  21.593  0.00  0.00    +0.000 A 
ATOM     29  C   UNL     1      -4.763  12.955  21.765  0.00  0.00    +0.000 A 
ATOM     30  C   UNL     1      -5.310  12.945  23.046  0.00  0.00    +0.000 A 
ATOM     31  C   UNL     1      -4.497  12.690  24.151  0.00  0.00    +0.000 A 
ATOM     32  C   UNL     1      -3.121  12.512  23.983  0.00  0.00    +0.000 A 
ENDBRANCH  26  27
ENDBRANCH   6  26
TORSDOF 9
ENDMDL
MODEL 3
REMARK VINA RESULT:      -7.8      0.844      1.398
REMARK  Name = 
REMARK  11 active torsions:
REMARK  status: ('A' for Active; 'I' for Inactive)
REMARK    1  A    between atoms: C_1  and  C_2
REMARK    2  A    between atoms: C_2  and  C_3
REMARK    3  A    between atoms: C_2  and  C_4
REMARK    4  A    between atoms: C_2  and  C_27
REMARK    5  A    between atoms: C_4  and  C_5
REMARK    6  A    between atoms: C_5  and  N_6
REMARK    7  A    between atoms: C_7  and  C_9
REMARK    8  A    between atoms: C_14  and  O_15
REMARK    9  A    between atoms: O_15  and  C_16
REMARK   10  A    between atoms: C_25  and  O_26
REMARK   11  A    between atoms: C_27  and  O_29
REMARK                            x       y       z     vdW  Elec       q    Type
REMARK                         _______ _______ _______ _____ _____    ______ ____
ROOT
ATOM      1  C   UNL     1       1.790   8.362  19.379  0.00  0.00    +0.000 A 
ATOM      2  N   UNL     1       1.580   9.470  18.611  0.00  0.00    +0.000 NA
ATOM      3  C   UNL     1       0.836  10.452  19.173  0.00  0.00    +0.000 A 
ATOM      4  C   UNL     1       0.308  10.414  20.469  0.00  0.00    +0.000 A 
ATOM      5  C   UNL     1      -0.416  11.492  21.016  0.00  0.00    +0.000 A 
ATOM      6  C   UNL     1      -0.875  11.438  22.332  0.00  0.00    +0.000 A 
ATOM      7  C   UNL     1      -0.711  10.265  23.068  0.00  0.00    +0.000 A 
ATOM      8  C   UNL     1       0.038   9.211  22.554  0.00  0.00    +0.000 A 
ATOM      9  C   UNL     1       0.562   9.260  21.248  0.00  0.00    +0.000 A 
ATOM     10  C   UNL     1       1.332   8.224  20.687  0.00  0.00    +0.000 A 
ENDROOT
BRANCH   1  12
ATOM     11  N   UNL     1       3.376   7.650  17.685  0.00  0.00    +0.000 N 
ATOM     12  C   UNL     1       2.550   7.254  18.720  0.00  0.00    +0.000 C 
ATOM     13  O   UNL     1       2.441   6.077  19.063  0.00  0.00    +0.000 OA
ATOM     14  H   UNL     1       3.370   8.634  17.429  0.00  0.00    +0.000 HD
BRANCH  11  15
ATOM     15  C   UNL     1       4.281   6.721  17.053  0.00  0.00    +0.000 C 
BRANCH  15  16
ATOM     16  C   UNL     1       5.717   6.899  17.545  0.00  0.00    +0.000 C 
BRANCH  16  18
ATOM     17  C   UNL     1       7.294   5.820  19.210  0.00  0.00    +0.000 C 
ATOM     18  C   UNL     1       6.421   5.583  17.963  0.00  0.00    +0.000 C 
ATOM     19  C   UNL     1       5.418   4.461  18.280  0.00  0.00    +0.000 C 
BRANCH  18  20
ATOM     20  C   UNL     1       7.337   5.119  16.821  0.00  0.00    +0.000 C 
ATOM     21  O   UNL     1       7.398   5.653  15.723  0.00  0.00    +0.000 OA
BRANCH  20  22
ATOM     22  O   UNL     1       8.110   4.049  17.117  0.00  0.00    +0.000 OA
ATOM     23  H   UNL     1       7.935   3.248  16.590  0.00  0.00    +0.000 HD
ENDBRANCH  20  22
ENDBRANCH  18  20
ENDBRANCH  16  18
ENDBRANCH  15  16
ENDBRANCH  11  15
ENDBRANCH   1  12
BRANCH  10  24
ATOM     24  O   UNL     1       1.698   7.131  21.427  0.00  0.00    +0.000 OA
ATOM     25  H   UNL     1       2.420   7.364  22.028  0.00  0.00    +0.000 HD
ENDBRANCH  10  24
BRANCH   6  26
ATOM     26  O   UNL     1      -1.465  12.578  22.841  0.00  0.00    +0.000 OA
BRANCH  26  27
ATOM     27  C   UNL     1      -2.846  12.633  22.874  0.00  0.00    +0.000 A 
ATOM     28  C   UNL     1      -3.638  12.818  21.734  0.00  0.00    +0.000 A 
ATOM     29  C   UNL     1      -5.009  13.029  21.860  0.00  0.00    +0.000 A 
ATOM     30  C   UNL     1      -5.607  12.964  23.116  0.00  0.00    +0.000 A 
ATOM     31  C   UNL     1      -4.836  12.669  24.242  0.00  0.00    +0.000 A 
ATOM     32  C   UNL     1      -3.454  12.506  24.123  0.00  0.00    +0.000 A 
ENDBRANCH  26  27
ENDBRANCH   6  26
TORSDOF 9
ENDMDL
MODEL 4
REMARK VINA RESULT:      -7.8      2.114      2.576
REMARK  Name = 
REMARK  11 active torsions:
REMARK  status: ('A' for Active; 'I' for Inactive)
REMARK    1  A    between atoms: C_1  and  C_2
REMARK    2  A    between atoms: C_2  and  C_3
REMARK    3  A    between atoms: C_2  and  C_4
REMARK    4  A    between atoms: C_2  and  C_27
REMARK    5  A    between atoms: C_4  and  C_5
REMARK    6  A    between atoms: C_5  and  N_6
REMARK    7  A    between atoms: C_7  and  C_9
REMARK    8  A    between atoms: C_14  and  O_15
REMARK    9  A    between atoms: O_15  and  C_16
REMARK   10  A    between atoms: C_25  and  O_26
REMARK   11  A    between atoms: C_27  and  O_29
REMARK                            x       y       z     vdW  Elec       q    Type
REMARK                         _______ _______ _______ _____ _____    ______ ____
ROOT
ATOM      1  C   UNL     1       1.685   8.609  19.233  0.00  0.00    +0.000 A 
ATOM      2  N   UNL     1       1.342   9.692  18.477  0.00  0.00    +0.000 NA
ATOM      3  C   UNL     1       0.567  10.622  19.084  0.00  0.00    +0.000 A 
ATOM      4  C   UNL     1       0.133  10.557  20.413  0.00  0.00    +0.000 A 
ATOM      5  C   UNL     1      -0.631  11.584  21.003  0.00  0.00    +0.000 A 
ATOM      6  C   UNL     1      -0.994  11.508  22.348  0.00  0.00    +0.000 A 
ATOM      7  C   UNL     1      -0.696  10.357  23.076  0.00  0.00    +0.000 A 
ATOM      8  C   UNL     1       0.092   9.355  22.516  0.00  0.00    +0.000 A 
ATOM      9  C   UNL     1       0.522   9.431  21.177  0.00  0.00    +0.000 A 
ATOM     10  C   UNL     1       1.327   8.449  20.569  0.00  0.00    +0.000 A 
ENDROOT
BRANCH   1  12
ATOM     11  N   UNL     1       2.060   6.258  18.763  0.00  0.00    +0.000 N 
ATOM     12  C   UNL     1       2.478   7.554  18.528  0.00  0.00    +0.000 C 
ATOM     13  O   UNL     1       3.437   7.817  17.802  0.00  0.00    +0.000 OA
ATOM     14  H   UNL     1       1.293   6.122  19.416  0.00  0.00    +0.000 HD
BRANCH  11  15
ATOM     15  C   UNL     1       2.629   5.146  18.041  0.00  0.00    +0.000 C 
BRANCH  15  16
ATOM     16  C   UNL     1       3.475   4.251  18.946  0.00  0.00    +0.000 C 
BRANCH  16  18
ATOM     17  C   UNL     1       1.956   2.705  20.261  0.00  0.00    +0.000 C 
ATOM     18  C   UNL     1       2.950   2.799  19.087  0.00  0.00    +0.000 C 
ATOM     19  C   UNL     1       2.241   2.310  17.813  0.00  0.00    +0.000 C 
BRANCH  18  20
ATOM     20  C   UNL     1       4.131   1.865  19.387  0.00  0.00    +0.000 C 
ATOM     21  O   UNL     1       4.915   2.017  20.312  0.00  0.00    +0.000 OA
BRANCH  20  22
ATOM     22  O   UNL     1       4.252   0.818  18.538  0.00  0.00    +0.000 OA
ATOM     23  H   UNL     1       4.855   0.110  18.830  0.00  0.00    +0.000 HD
ENDBRANCH  20  22
ENDBRANCH  18  20
ENDBRANCH  16  18
ENDBRANCH  15  16
ENDBRANCH  11  15
ENDBRANCH   1  12
BRANCH  10  24
ATOM     24  O   UNL     1       1.821   7.393  21.287  0.00  0.00    +0.000 OA
ATOM     25  H   UNL     1       2.671   7.111  20.920  0.00  0.00    +0.000 HD
ENDBRANCH  10  24
BRANCH   6  26
ATOM     26  O   UNL     1      -1.632  12.606  22.891  0.00  0.00    +0.000 OA
BRANCH  26  27
ATOM     27  C   UNL     1      -3.013  12.608  22.914  0.00  0.00    +0.000 A 
ATOM     28  C   UNL     1      -3.803  12.732  21.764  0.00  0.00    +0.000 A 
ATOM     29  C   UNL     1      -5.182  12.893  21.874  0.00  0.00    +0.000 A 
ATOM     30  C   UNL     1      -5.787  12.838  23.128  0.00  0.00    +0.000 A 
ATOM     31  C   UNL     1      -5.014  12.603  24.267  0.00  0.00    +0.000 A 
ATOM     32  C   UNL     1      -3.626  12.491  24.161  0.00  0.00    +0.000 A 
ENDBRANCH  26  27
ENDBRANCH   6  26
TORSDOF 9
ENDMDL
MODEL 5
REMARK VINA RESULT:      -7.7      1.113      1.609
REMARK  Name = 
REMARK  11 active torsions:
REMARK  status: ('A' for Active; 'I' for Inactive)
REMARK    1  A    between atoms: C_1  and  C_2
REMARK    2  A    between atoms: C_2  and  C_3
REMARK    3  A    between atoms: C_2  and  C_4
REMARK    4  A    between atoms: C_2  and  C_27
REMARK    5  A    between atoms: C_4  and  C_5
REMARK    6  A    between atoms: C_5  and  N_6
REMARK    7  A    between atoms: C_7  and  C_9
REMARK    8  A    between atoms: C_14  and  O_15
REMARK    9  A    between atoms: O_15  and  C_16
REMARK   10  A    between atoms: C_25  and  O_26
REMARK   11  A    between atoms: C_27  and  O_29
REMARK                            x       y       z     vdW  Elec       q    Type
REMARK                         _______ _______ _______ _____ _____    ______ ____
ROOT
ATOM      1  C   UNL     1       2.376   7.075  18.939  0.00  0.00    +0.000 A 
ATOM      2  N   UNL     1       2.385   8.008  17.944  0.00  0.00    +0.000 NA
ATOM      3  C   UNL     1       1.810   9.199  18.238  0.00  0.00    +0.000 A 
ATOM      4  C   UNL     1       1.248   9.532  19.476  0.00  0.00    +0.000 A 
ATOM      5  C   UNL     1       0.710  10.809  19.736  0.00  0.00    +0.000 A 
ATOM      6  C   UNL     1       0.213  11.119  21.001  0.00  0.00    +0.000 A 
ATOM      7  C   UNL     1       0.147  10.124  21.976  0.00  0.00    +0.000 A 
ATOM      8  C   UNL     1       0.713   8.874  21.745  0.00  0.00    +0.000 A 
ATOM      9  C   UNL     1       1.273   8.550  20.494  0.00  0.00    +0.000 A 
ATOM     10  C   UNL     1       1.865   7.303  20.214  0.00  0.00    +0.000 A 
ENDROOT
BRANCH   1  12
ATOM     11  N   UNL     1       4.310   5.733  18.350  0.00  0.00    +0.000 N 
ATOM     12  C   UNL     1       2.947   5.740  18.578  0.00  0.00    +0.000 C 
ATOM     13  O   UNL     1       2.256   4.726  18.480  0.00  0.00    +0.000 OA
ATOM     14  H   UNL     1       4.800   6.622  18.400  0.00  0.00    +0.000 HD
BRANCH  11  15
ATOM     15  C   UNL     1       5.026   4.498  18.138  0.00  0.00    +0.000 C 
BRANCH  15  16
ATOM     16  C   UNL     1       4.954   4.040  16.682  0.00  0.00    +0.000 C 
BRANCH  16  18
ATOM     17  C   UNL     1       6.171   3.969  14.460  0.00  0.00    +0.000 C 
ATOM     18  C   UNL     1       5.890   4.813  15.718  0.00  0.00    +0.000 C 
ATOM     19  C   UNL     1       5.288   6.157  15.275  0.00  0.00    +0.000 C 
BRANCH  18  20
ATOM     20  C   UNL     1       7.228   5.078  16.423  0.00  0.00    +0.000 C 
ATOM     21  O   UNL     1       7.993   4.205  16.806  0.00  0.00    +0.000 OA
BRANCH  20  22
ATOM     22  O   UNL     1       7.527   6.386  16.594  0.00  0.00    +0.000 OA
ATOM     23  H   UNL     1       8.476   6.591  16.684  0.00  0.00    +0.000 HD
ENDBRANCH  20  22
ENDBRANCH  18  20
ENDBRANCH  16  18
ENDBRANCH  15  16
ENDBRANCH  11  15
ENDBRANCH   1  12
BRANCH  10  24
ATOM     24  O   UNL     1       2.012   6.353  21.190  0.00  0.00    +0.000 OA
ATOM     25  H   UNL     1       1.593   6.652  22.010  0.00  0.00    +0.000 HD
ENDBRANCH  10  24
BRANCH   6  26
ATOM     26  O   UNL     1      -0.182  12.424  21.220  0.00  0.00    +0.000 OA
BRANCH  26  27
ATOM     27  C   UNL     1      -1.440  12.641  21.749  0.00  0.00    +0.000 A 
ATOM     28  C   UNL     1      -1.674  12.878  23.109  0.00  0.00    +0.000 A 
ATOM     29  C   UNL     1      -2.977  12.923  23.600  0.00  0.00    +0.000 A 
ATOM     30  C   UNL     1      -4.051  12.824  22.718  0.00  0.00    +0.000 A 
ATOM     31  C   UNL     1      -3.821  12.700  21.347  0.00  0.00    +0.000 A 
ATOM     32  C   UNL     1      -2.515  12.605  20.861  0.00  0.00    +0.000 A 
ENDBRANCH  26  27
ENDBRANCH   6  26
TORSDOF 9
ENDMDL
MODEL 6
REMARK VINA RESULT:      -7.7      2.093     10.176
REMARK  Name = 
REMARK  11 active torsions:
REMARK  status: ('A' for Active; 'I' for Inactive)
REMARK    1  A    between atoms: C_1  and  C_2
REMARK    2  A    between atoms: C_2  and  C_3
REMARK    3  A    between atoms: C_2  and  C_4
REMARK    4  A    between atoms: C_2  and  C_27
REMARK    5  A    between atoms: C_4  and  C_5
REMARK    6  A    between atoms: C_5  and  N_6
REMARK    7  A    between atoms: C_7  and  C_9
REMARK    8  A    between atoms: C_14  and  O_15
REMARK    9  A    between atoms: O_15  and  C_16
REMARK   10  A    between atoms: C_25  and  O_26
REMARK   11  A    between atoms: C_27  and  O_29
REMARK                            x       y       z     vdW  Elec       q    Type
REMARK                         _______ _______ _______ _____ _____    ______ ____
ROOT
ATOM      1  C   UNL     1       1.137   9.971  19.706  0.00  0.00    +0.000 A 
ATOM      2  N   UNL     1       1.606  10.065  18.428  0.00  0.00    +0.000 NA
ATOM      3  C   UNL     1       2.194   8.952  17.926  0.00  0.00    +0.000 A 
ATOM      4  C   UNL     1       2.319   7.737  18.608  0.00  0.00    +0.000 A 
ATOM      5  C   UNL     1       2.896   6.598  18.010  0.00  0.00    +0.000 A 
ATOM      6  C   UNL     1       2.949   5.389  18.704  0.00  0.00    +0.000 A 
ATOM      7  C   UNL     1       2.531   5.341  20.033  0.00  0.00    +0.000 A 
ATOM      8  C   UNL     1       1.922   6.446  20.619  0.00  0.00    +0.000 A 
ATOM      9  C   UNL     1       1.804   7.665  19.924  0.00  0.00    +0.000 A 
ATOM     10  C   UNL     1       1.189   8.808  20.470  0.00  0.00    +0.000 A 
ENDROOT
BRANCH   1  12
ATOM     11  N   UNL     1      -0.416  11.824  19.497  0.00  0.00    +0.000 N 
ATOM     12  C   UNL     1       0.558  11.228  20.275  0.00  0.00    +0.000 C 
ATOM     13  O   UNL     1       0.926  11.702  21.350  0.00  0.00    +0.000 OA
ATOM     14  H   UNL     1      -0.626  11.398  18.598  0.00  0.00    +0.000 HD
BRANCH  11  15
ATOM     15  C   UNL     1      -1.169  12.956  19.979  0.00  0.00    +0.000 C 
BRANCH  15  16
ATOM     16  C   UNL     1      -2.441  12.525  20.708  0.00  0.00    +0.000 C 
BRANCH  16  18
ATOM     17  C   UNL     1      -1.445  14.103  22.424  0.00  0.00    +0.000 C 
ATOM     18  C   UNL     1      -2.620  13.155  22.114  0.00  0.00    +0.000 C 
ATOM     19  C   UNL     1      -3.930  13.952  22.233  0.00  0.00    +0.000 C 
BRANCH  18  20
ATOM     20  C   UNL     1      -2.622  12.038  23.168  0.00  0.00    +0.000 C 
ATOM     21  O   UNL     1      -3.544  11.813  23.937  0.00  0.00    +0.000 OA
BRANCH  20  22
ATOM     22  O   UNL     1      -1.499  11.282  23.190  0.00  0.00    +0.000 OA
ATOM     23  H   UNL     1      -0.965  11.301  22.375  0.00  0.00    +0.000 HD
ENDBRANCH  20  22
ENDBRANCH  18  20
ENDBRANCH  16  18
ENDBRANCH  15  16
ENDBRANCH  11  15
ENDBRANCH   1  12
BRANCH  10  24
ATOM     24  O   UNL     1       0.579   8.768  21.696  0.00  0.00    +0.000 OA
ATOM     25  H   UNL     1      -0.059   9.491  21.773  0.00  0.00    +0.000 HD
ENDBRANCH  10  24
BRANCH   6  26
ATOM     26  O   UNL     1       3.412   4.286  18.013  0.00  0.00    +0.000 OA
BRANCH  26  27
ATOM     27  C   UNL     1       4.707   4.319  17.533  0.00  0.00    +0.000 A 
ATOM     28  C   UNL     1       5.827   4.517  18.351  0.00  0.00    +0.000 A 
ATOM     29  C   UNL     1       7.086   4.704  17.783  0.00  0.00    +0.000 A 
ATOM     30  C   UNL     1       7.244   4.601  16.403  0.00  0.00    +0.000 A 
ATOM     31  C   UNL     1       6.149   4.292  15.595  0.00  0.00    +0.000 A 
ATOM     32  C   UNL     1       4.878   4.154  16.159  0.00  0.00    +0.000 A 
ENDBRANCH  26  27
ENDBRANCH   6  26
TORSDOF 9
ENDMDL
MODEL 7
REMARK VINA RESULT:      -7.7      1.329      1.733
REMARK  Name = 
REMARK  11 active torsions:
REMARK  status: ('A' for Active; 'I' for Inactive)
REMARK    1  A    between atoms: C_1  and  C_2
REMARK    2  A    between atoms: C_2  and  C_3
REMARK    3  A    between atoms: C_2  and  C_4
REMARK    4  A    between atoms: C_2  and  C_27
REMARK    5  A    between atoms: C_4  and  C_5
REMARK    6  A    between atoms: C_5  and  N_6
REMARK    7  A    between atoms: C_7  and  C_9
REMARK    8  A    between atoms: C_14  and  O_15
REMARK    9  A    between atoms: O_15  and  C_16
REMARK   10  A    between atoms: C_25  and  O_26
REMARK   11  A    between atoms: C_27  and  O_29
REMARK                            x       y       z     vdW  Elec       q    Type
REMARK                         _______ _______ _______ _____ _____    ______ ____
ROOT
ATOM      1  C   UNL     1       2.336   6.879  18.745  0.00  0.00    +0.000 A 
ATOM      2  N   UNL     1       2.197   7.892  17.841  0.00  0.00    +0.000 NA
ATOM      3  C   UNL     1       1.657   9.041  18.312  0.00  0.00    +0.000 A 
ATOM      4  C   UNL     1       1.272   9.259  19.640  0.00  0.00    +0.000 A 
ATOM      5  C   UNL     1       0.763  10.498  20.080  0.00  0.00    +0.000 A 
ATOM      6  C   UNL     1       0.445  10.692  21.424  0.00  0.00    +0.000 A 
ATOM      7  C   UNL     1       0.526   9.618  22.310  0.00  0.00    +0.000 A 
ATOM      8  C   UNL     1       1.066   8.404  21.897  0.00  0.00    +0.000 A 
ATOM      9  C   UNL     1       1.448   8.196  20.558  0.00  0.00    +0.000 A 
ATOM     10  C   UNL     1       2.006   6.990  20.093  0.00  0.00    +0.000 A 
ENDROOT
BRANCH   1  12
ATOM     11  N   UNL     1       4.210   5.373  18.414  0.00  0.00    +0.000 N 
ATOM     12  C   UNL     1       2.863   5.591  18.196  0.00  0.00    +0.000 C 
ATOM     13  O   UNL     1       2.155   4.789  17.586  0.00  0.00    +0.000 OA
ATOM     14  H   UNL     1       4.736   6.108  18.880  0.00  0.00    +0.000 HD
BRANCH  11  15
ATOM     15  C   UNL     1       4.829   4.115  18.076  0.00  0.00    +0.000 C 
BRANCH  15  16
ATOM     16  C   UNL     1       5.223   4.052  16.600  0.00  0.00    +0.000 C 
BRANCH  16  18
ATOM     17  C   UNL     1       7.616   4.601  17.231  0.00  0.00    +0.000 C 
ATOM     18  C   UNL     1       6.476   4.888  16.234  0.00  0.00    +0.000 C 
ATOM     19  C   UNL     1       6.986   4.584  14.815  0.00  0.00    +0.000 C 
BRANCH  18  20
ATOM     20  C   UNL     1       6.127   6.381  16.326  0.00  0.00    +0.000 C 
ATOM     21  O   UNL     1       6.721   7.188  17.026  0.00  0.00    +0.000 OA
BRANCH  20  22
ATOM     22  O   UNL     1       5.088   6.767  15.550  0.00  0.00    +0.000 OA
ATOM     23  H   UNL     1       5.289   7.460  14.895  0.00  0.00    +0.000 HD
ENDBRANCH  20  22
ENDBRANCH  18  20
ENDBRANCH  16  18
ENDBRANCH  15  16
ENDBRANCH  11  15
ENDBRANCH   1  12
BRANCH  10  24
ATOM     24  O   UNL     1       2.297   5.966  20.954  0.00  0.00    +0.000 OA
ATOM     25  H   UNL     1       2.772   5.263  20.486  0.00  0.00    +0.000 HD
ENDBRANCH  10  24
BRANCH   6  26
ATOM     26  O   UNL     1       0.073  11.966  21.805  0.00  0.00    +0.000 OA
BRANCH  26  27
ATOM     27  C   UNL     1      -1.277  12.240  21.917  0.00  0.00    +0.000 A 
ATOM     28  C   UNL     1      -2.056  12.719  20.856  0.00  0.00    +0.000 A 
ATOM     29  C   UNL     1      -3.368  13.132  21.080  0.00  0.00    +0.000 A 
ATOM     30  C   UNL     1      -3.934  12.980  22.343  0.00  0.00    +0.000 A 
ATOM     31  C   UNL     1      -3.195  12.398  23.376  0.00  0.00    +0.000 A 
ATOM     32  C   UNL     1      -1.864  12.031  23.164  0.00  0.00    +0.000 A 
ENDBRANCH  26  27
ENDBRANCH   6  26
TORSDOF 9
ENDMDL
MODEL 8
REMARK VINA RESULT:      -7.6      2.840     10.748
REMARK  Name = 
REMARK  11 active torsions:
REMARK  status: ('A' for Active; 'I' for Inactive)
REMARK    1  A    between atoms: C_1  and  C_2
REMARK    2  A    between atoms: C_2  and  C_3
REMARK    3  A    between atoms: C_2  and  C_4
REMARK    4  A    between atoms: C_2  and  C_27
REMARK    5  A    between atoms: C_4  and  C_5
REMARK    6  A    between atoms: C_5  and  N_6
REMARK    7  A    between atoms: C_7  and  C_9
REMARK    8  A    between atoms: C_14  and  O_15
REMARK    9  A    between atoms: O_15  and  C_16
REMARK   10  A    between atoms: C_25  and  O_26
REMARK   11  A    between atoms: C_27  and  O_29
REMARK                            x       y       z     vdW  Elec       q    Type
REMARK                         _______ _______ _______ _____ _____    ______ ____
ROOT
ATOM      1  C   UNL     1      -0.541  11.381  20.645  0.00  0.00    +0.000 A 
ATOM      2  N   UNL     1      -0.364  10.643  21.779  0.00  0.00    +0.000 NA
ATOM      3  C   UNL     1       0.346   9.498  21.640  0.00  0.00    +0.000 A 
ATOM      4  C   UNL     1       0.920   9.053  20.444  0.00  0.00    +0.000 A 
ATOM      5  C   UNL     1       1.693   7.876  20.376  0.00  0.00    +0.000 A 
ATOM      6  C   UNL     1       2.296   7.498  19.177  0.00  0.00    +0.000 A 
ATOM      7  C   UNL     1       2.038   8.229  18.018  0.00  0.00    +0.000 A 
ATOM      8  C   UNL     1       1.311   9.414  18.081  0.00  0.00    +0.000 A 
ATOM      9  C   UNL     1       0.737   9.851  19.290  0.00  0.00    +0.000 A 
ATOM     10  C   UNL     1       0.001  11.046  19.407  0.00  0.00    +0.000 A 
ENDROOT
BRANCH   1  12
ATOM     11  N   UNL     1      -2.657  12.375  21.297  0.00  0.00    +0.000 N 
ATOM     12  C   UNL     1      -1.390  12.604  20.796  0.00  0.00    +0.000 C 
ATOM     13  O   UNL     1      -0.995  13.729  20.488  0.00  0.00    +0.000 OA
ATOM     14  H   UNL     1      -2.924  11.410  21.477  0.00  0.00    +0.000 HD
BRANCH  11  15
ATOM     15  C   UNL     1      -3.536  13.467  21.637  0.00  0.00    +0.000 C 
BRANCH  15  16
ATOM     16  C   UNL     1      -4.896  12.972  22.129  0.00  0.00    +0.000 C 
BRANCH  16  18
ATOM     17  C   UNL     1      -4.226  12.595  24.544  0.00  0.00    +0.000 C 
ATOM     18  C   UNL     1      -5.210  13.321  23.607  0.00  0.00    +0.000 C 
ATOM     19  C   UNL     1      -5.117  14.831  23.882  0.00  0.00    +0.000 C 
BRANCH  18  20
ATOM     20  C   UNL     1      -6.630  12.842  23.944  0.00  0.00    +0.000 C 
ATOM     21  O   UNL     1      -7.112  11.786  23.564  0.00  0.00    +0.000 OA
BRANCH  20  22
ATOM     22  O   UNL     1      -7.339  13.688  24.726  0.00  0.00    +0.000 OA
ATOM     23  H   UNL     1      -8.258  13.848  24.443  0.00  0.00    +0.000 HD
ENDBRANCH  20  22
ENDBRANCH  18  20
ENDBRANCH  16  18
ENDBRANCH  15  16
ENDBRANCH  11  15
ENDBRANCH   1  12
BRANCH  10  24
ATOM     24  O   UNL     1      -0.120  11.910  18.352  0.00  0.00    +0.000 OA
ATOM     25  H   UNL     1      -0.961  11.761  17.896  0.00  0.00    +0.000 HD
ENDBRANCH  10  24
BRANCH   6  26
ATOM     26  O   UNL     1       3.140   6.406  19.213  0.00  0.00    +0.000 OA
BRANCH  26  27
ATOM     27  C   UNL     1       2.611   5.167  18.905  0.00  0.00    +0.000 A 
ATOM     28  C   UNL     1       1.740   4.469  19.751  0.00  0.00    +0.000 A 
ATOM     29  C   UNL     1       1.377   3.157  19.456  0.00  0.00    +0.000 A 
ATOM     30  C   UNL     1       1.807   2.571  18.268  0.00  0.00    +0.000 A 
ATOM     31  C   UNL     1       2.583   3.304  17.368  0.00  0.00    +0.000 A 
ATOM     32  C   UNL     1       2.989   4.602  17.687  0.00  0.00    +0.000 A 
ENDBRANCH  26  27
ENDBRANCH   6  26
TORSDOF 9
ENDMDL
MODEL 9
REMARK VINA RESULT:      -7.6      3.145     10.724
REMARK  Name = 
REMARK  11 active torsions:
REMARK  status: ('A' for Active; 'I' for Inactive)
REMARK    1  A    between atoms: C_1  and  C_2
REMARK    2  A    between atoms: C_2  and  C_3
REMARK    3  A    between atoms: C_2  and  C_4
REMARK    4  A    between atoms: C_2  and  C_27
REMARK    5  A    between atoms: C_4  and  C_5
REMARK    6  A    between atoms: C_5  and  N_6
REMARK    7  A    between atoms: C_7  and  C_9
REMARK    8  A    between atoms: C_14  and  O_15
REMARK    9  A    between atoms: O_15  and  C_16
REMARK   10  A    between atoms: C_25  and  O_26
REMARK   11  A    between atoms: C_27  and  O_29
REMARK                            x       y       z     vdW  Elec       q    Type
REMARK                         _______ _______ _______ _____ _____    ______ ____
ROOT
ATOM      1  C   UNL     1      -0.968  11.365  22.412  0.00  0.00    +0.000 A 
ATOM      2  N   UNL     1      -0.673  10.444  23.375  0.00  0.00    +0.000 NA
ATOM      3  C   UNL     1       0.043   9.368  22.970  0.00  0.00    +0.000 A 
ATOM      4  C   UNL     1       0.510   9.162  21.667  0.00  0.00    +0.000 A 
ATOM      5  C   UNL     1       1.296   8.044  21.320  0.00  0.00    +0.000 A 
ATOM      6  C   UNL     1       1.791   7.905  20.024  0.00  0.00    +0.000 A 
ATOM      7  C   UNL     1       1.412   8.821  19.043  0.00  0.00    +0.000 A 
ATOM      8  C   UNL     1       0.672   9.950  19.382  0.00  0.00    +0.000 A 
ATOM      9  C   UNL     1       0.205  10.145  20.696  0.00  0.00    +0.000 A 
ATOM     10  C   UNL     1      -0.538  11.274  21.091  0.00  0.00    +0.000 A 
ENDROOT
BRANCH   1  12
ATOM     11  N   UNL     1      -3.148  12.431  22.475  0.00  0.00    +0.000 N 
ATOM     12  C   UNL     1      -1.822  12.511  22.855  0.00  0.00    +0.000 C 
ATOM     13  O   UNL     1      -1.377  13.461  23.500  0.00  0.00    +0.000 OA
ATOM     14  H   UNL     1      -3.424  11.640  21.898  0.00  0.00    +0.000 HD
BRANCH  11  15
ATOM     15  C   UNL     1      -4.122  13.382  22.951  0.00  0.00    +0.000 C 
BRANCH  15  16
ATOM     16  C   UNL     1      -5.201  13.665  21.906  0.00  0.00    +0.000 C 
BRANCH  16  18
ATOM     17  C   UNL     1      -6.726  14.225  23.851  0.00  0.00    +0.000 C 
ATOM     18  C   UNL     1      -6.652  13.596  22.446  0.00  0.00    +0.000 C 
ATOM     19  C   UNL     1      -7.649  14.330  21.534  0.00  0.00    +0.000 C 
BRANCH  18  20
ATOM     20  C   UNL     1      -7.075  12.124  22.561  0.00  0.00    +0.000 C 
ATOM     21  O   UNL     1      -7.069  11.329  21.634  0.00  0.00    +0.000 OA
BRANCH  20  22
ATOM     22  O   UNL     1      -7.463  11.744  23.801  0.00  0.00    +0.000 OA
ATOM     23  H   UNL     1      -7.184  10.850  24.071  0.00  0.00    +0.000 HD
ENDBRANCH  20  22
ENDBRANCH  18  20
ENDBRANCH  16  18
ENDBRANCH  15  16
ENDBRANCH  11  15
ENDBRANCH   1  12
BRANCH  10  24
ATOM     24  O   UNL     1      -0.773  12.307  20.223  0.00  0.00    +0.000 OA
ATOM     25  H   UNL     1      -0.100  12.316  19.527  0.00  0.00    +0.000 HD
ENDBRANCH  10  24
BRANCH   6  26
ATOM     26  O   UNL     1       2.655   6.854  19.788  0.00  0.00    +0.000 OA
BRANCH  26  27
ATOM     27  C   UNL     1       2.109   5.624  19.476  0.00  0.00    +0.000 A 
ATOM     28  C   UNL     1       1.521   4.778  20.426  0.00  0.00    +0.000 A 
ATOM     29  C   UNL     1       1.141   3.485  20.073  0.00  0.00    +0.000 A 
ATOM     30  C   UNL     1       1.261   3.066  18.751  0.00  0.00    +0.000 A 
ATOM     31  C   UNL     1       1.742   3.945  17.779  0.00  0.00    +0.000 A 
ATOM     32  C   UNL     1       2.170   5.225  18.142  0.00  0.00    +0.000 A 
ENDBRANCH  26  27
ENDBRANCH   6  26
TORSDOF 9
ENDMDL
