MODEL 1
REMARK VINA RESULT:      -7.7      0.000      0.000
REMARK  Name = 
REMARK  4 active torsions:
REMARK  status: ('A' for Active; 'I' for Inactive)
REMARK    1  A    between atoms: C_1  and  C_2
REMARK    2  A    between atoms: C_12  and  C_13
REMARK    3  A    between atoms: C_13  and  C_14
REMARK    4  A    between atoms: C_27  and  C_28
REMARK                            x       y       z     vdW  Elec       q    Type
REMARK                         _______ _______ _______ _____ _____    ______ ____
ROOT
ATOM      1  C   UNL     1      -3.716  11.063  15.619  0.00  0.00    +0.000 C 
ATOM      2  C   UNL     1      -4.227  11.413  16.993  0.00  0.00    +0.000 A 
ATOM      3  C   UNL     1      -5.614  11.425  17.196  0.00  0.00    +0.000 A 
ATOM      4  C   UNL     1      -6.138  11.746  18.442  0.00  0.00    +0.000 A 
ATOM      5  C   UNL     1      -5.276  12.061  19.491  0.00  0.00    +0.000 A 
ATOM      6  C   UNL     1      -5.840  12.400  20.797  0.00  0.00    +0.000 A 
ATOM      7  O   UNL     1      -7.047  12.421  20.991  0.00  0.00    +0.000 OA
ATOM      8  C   UNL     1      -4.900  12.712  21.874  0.00  0.00    +0.000 A 
ATOM      9  C   UNL     1      -5.389  13.004  23.151  0.00  0.00    +0.000 A 
ATOM     10  C   UNL     1      -4.498  13.291  24.178  0.00  0.00    +0.000 A 
ATOM     11  C   UNL     1      -3.128  13.285  23.921  0.00  0.00    +0.000 A 
ATOM     12  C   UNL     1      -2.630  12.980  22.637  0.00  0.00    +0.000 A 
ATOM     13  C   UNL     1      -3.533  12.694  21.599  0.00  0.00    +0.000 A 
ATOM     14  O   UNL     1      -3.024  12.386  20.353  0.00  0.00    +0.000 OA
ATOM     15  C   UNL     1      -3.891  12.063  19.326  0.00  0.00    +0.000 A 
ATOM     16  C   UNL     1      -3.349  11.729  18.065  0.00  0.00    +0.000 A 
ATOM     17  C   UNL     1      -1.859  11.698  17.837  0.00  0.00    +0.000 C 
ENDROOT
BRANCH  12  18
ATOM     18  C   UNL     1      -1.136  12.913  22.442  0.00  0.00    +0.000 C 
BRANCH  18  19
ATOM     19  C   UNL     1      -0.494  11.563  22.205  0.00  0.00    +0.000 C 
ATOM     20  O   UNL     1      -0.082  10.929  23.181  0.00  0.00    +0.000 OA
ATOM     21  N   UNL     1      -0.429  11.094  20.909  0.00  0.00    +0.000 N 
ATOM     22  C   UNL     1       0.162   9.855  20.623  0.00  0.00    +0.000 A 
ATOM     23  C   UNL     1      -0.092   8.731  21.409  0.00  0.00    +0.000 A 
ATOM     24  C   UNL     1       0.652   7.573  21.199  0.00  0.00    +0.000 A 
ATOM     25  C   UNL     1       1.626   7.575  20.213  0.00  0.00    +0.000 A 
ATOM     26 CL   UNL     1       2.649   6.217  19.992  0.00  0.00    +0.000 Cl
ATOM     27  C   UNL     1       1.762   8.714  19.429  0.00  0.00    +0.000 A 
ATOM     28  N   UNL     1       1.024   9.844  19.588  0.00  0.00    +0.000 NA
ATOM     29  H   UNL     1      -0.312  11.773  20.168  0.00  0.00    +0.000 HD
ENDBRANCH  18  19
ENDBRANCH  12  18
TORSDOF 2
ENDMDL
MODEL 2
REMARK VINA RESULT:      -7.7      5.115      9.759
REMARK  Name = 
REMARK  4 active torsions:
REMARK  status: ('A' for Active; 'I' for Inactive)
REMARK    1  A    between atoms: C_1  and  C_2
REMARK    2  A    between atoms: C_12  and  C_13
REMARK    3  A    between atoms: C_13  and  C_14
REMARK    4  A    between atoms: C_27  and  C_28
REMARK                            x       y       z     vdW  Elec       q    Type
REMARK                         _______ _______ _______ _____ _____    ______ ____
ROOT
ATOM      1  C   UNL     1       7.488   5.625  14.857  0.00  0.00    +0.000 C 
ATOM      2  C   UNL     1       6.352   4.984  15.613  0.00  0.00    +0.000 A 
ATOM      3  C   UNL     1       6.014   3.661  15.296  0.00  0.00    +0.000 A 
ATOM      4  C   UNL     1       4.972   3.025  15.958  0.00  0.00    +0.000 A 
ATOM      5  C   UNL     1       4.260   3.712  16.941  0.00  0.00    +0.000 A 
ATOM      6  C   UNL     1       3.163   3.032  17.630  0.00  0.00    +0.000 A 
ATOM      7  O   UNL     1       2.851   1.881  17.362  0.00  0.00    +0.000 OA
ATOM      8  C   UNL     1       2.450   3.784  18.662  0.00  0.00    +0.000 A 
ATOM      9  C   UNL     1       1.420   3.164  19.377  0.00  0.00    +0.000 A 
ATOM     10  C   UNL     1       0.748   3.873  20.365  0.00  0.00    +0.000 A 
ATOM     11  C   UNL     1       1.109   5.193  20.630  0.00  0.00    +0.000 A 
ATOM     12  C   UNL     1       2.155   5.819  19.920  0.00  0.00    +0.000 A 
ATOM     13  C   UNL     1       2.832   5.101  18.918  0.00  0.00    +0.000 A 
ATOM     14  O   UNL     1       3.860   5.727  18.244  0.00  0.00    +0.000 OA
ATOM     15  C   UNL     1       4.565   5.029  17.282  0.00  0.00    +0.000 A 
ATOM     16  C   UNL     1       5.629   5.681  16.619  0.00  0.00    +0.000 A 
ATOM     17  C   UNL     1       6.013   7.098  16.961  0.00  0.00    +0.000 C 
ENDROOT
BRANCH  12  18
ATOM     18  C   UNL     1       2.550   7.222  20.307  0.00  0.00    +0.000 C 
BRANCH  18  19
ATOM     19  C   UNL     1       1.464   8.265  20.463  0.00  0.00    +0.000 C 
ATOM     20  O   UNL     1       0.865   8.331  21.541  0.00  0.00    +0.000 OA
ATOM     21  N   UNL     1       1.220   9.111  19.401  0.00  0.00    +0.000 N 
ATOM     22  C   UNL     1       0.222  10.093  19.480  0.00  0.00    +0.000 A 
ATOM     23  C   UNL     1       0.066  10.879  20.621  0.00  0.00    +0.000 A 
ATOM     24  C   UNL     1      -1.046  11.711  20.726  0.00  0.00    +0.000 A 
ATOM     25  C   UNL     1      -1.967  11.729  19.690  0.00  0.00    +0.000 A 
ATOM     26 CL   UNL     1      -3.411  12.644  19.820  0.00  0.00    +0.000 Cl
ATOM     27  C   UNL     1      -1.695  10.968  18.561  0.00  0.00    +0.000 A 
ATOM     28  N   UNL     1      -0.600  10.177  18.416  0.00  0.00    +0.000 NA
ATOM     29  H   UNL     1       1.346   8.743  18.468  0.00  0.00    +0.000 HD
ENDBRANCH  18  19
ENDBRANCH  12  18
TORSDOF 2
ENDMDL
MODEL 3
REMARK VINA RESULT:      -7.6      4.997      9.668
REMARK  Name = 
REMARK  4 active torsions:
REMARK  status: ('A' for Active; 'I' for Inactive)
REMARK    1  A    between atoms: C_1  and  C_2
REMARK    2  A    between atoms: C_12  and  C_13
REMARK    3  A    between atoms: C_13  and  C_14
REMARK    4  A    between atoms: C_27  and  C_28
REMARK                            x       y       z     vdW  Elec       q    Type
REMARK                         _______ _______ _______ _____ _____    ______ ____
ROOT
ATOM      1  C   UNL     1       6.793   4.975  13.862  0.00  0.00    +0.000 C 
ATOM      2  C   UNL     1       6.012   4.725  15.127  0.00  0.00    +0.000 A 
ATOM      3  C   UNL     1       6.076   3.446  15.697  0.00  0.00    +0.000 A 
ATOM      4  C   UNL     1       5.372   3.160  16.860  0.00  0.00    +0.000 A 
ATOM      5  C   UNL     1       4.595   4.153  17.456  0.00  0.00    +0.000 A 
ATOM      6  C   UNL     1       3.856   3.839  18.678  0.00  0.00    +0.000 A 
ATOM      7  O   UNL     1       3.895   2.728  19.186  0.00  0.00    +0.000 OA
ATOM      8  C   UNL     1       3.063   4.913  19.278  0.00  0.00    +0.000 A 
ATOM      9  C   UNL     1       2.370   4.674  20.469  0.00  0.00    +0.000 A 
ATOM     10  C   UNL     1       1.625   5.694  21.046  0.00  0.00    +0.000 A 
ATOM     11  C   UNL     1       1.578   6.943  20.430  0.00  0.00    +0.000 A 
ATOM     12  C   UNL     1       2.284   7.193  19.234  0.00  0.00    +0.000 A 
ATOM     13  C   UNL     1       3.035   6.158  18.650  0.00  0.00    +0.000 A 
ATOM     14  O   UNL     1       3.729   6.426  17.488  0.00  0.00    +0.000 OA
ATOM     15  C   UNL     1       4.505   5.436  16.916  0.00  0.00    +0.000 A 
ATOM     16  C   UNL     1       5.225   5.737  15.739  0.00  0.00    +0.000 A 
ATOM     17  C   UNL     1       5.177   7.113  15.123  0.00  0.00    +0.000 C 
ENDROOT
BRANCH  12  18
ATOM     18  C   UNL     1       2.257   8.587  18.659  0.00  0.00    +0.000 C 
BRANCH  18  19
ATOM     19  C   UNL     1       1.010   9.426  18.848  0.00  0.00    +0.000 C 
ATOM     20  O   UNL     1       0.819   9.952  19.949  0.00  0.00    +0.000 OA
ATOM     21  N   UNL     1       0.167   9.586  17.769  0.00  0.00    +0.000 N 
ATOM     22  C   UNL     1      -1.008  10.344  17.882  0.00  0.00    +0.000 A 
ATOM     23  C   UNL     1      -1.018  11.572  18.543  0.00  0.00    +0.000 A 
ATOM     24  C   UNL     1      -2.236  12.201  18.790  0.00  0.00    +0.000 A 
ATOM     25  C   UNL     1      -3.404  11.583  18.369  0.00  0.00    +0.000 A 
ATOM     26 CL   UNL     1      -4.934  12.256  18.750  0.00  0.00    +0.000 Cl
ATOM     27  C   UNL     1      -3.295  10.397  17.655  0.00  0.00    +0.000 A 
ATOM     28  N   UNL     1      -2.118   9.781  17.368  0.00  0.00    +0.000 NA
ATOM     29  H   UNL     1       0.084   8.817  17.117  0.00  0.00    +0.000 HD
ENDBRANCH  18  19
ENDBRANCH  12  18
TORSDOF 2
ENDMDL
MODEL 4
REMARK VINA RESULT:      -7.6      2.621      5.137
REMARK  Name = 
REMARK  4 active torsions:
REMARK  status: ('A' for Active; 'I' for Inactive)
REMARK    1  A    between atoms: C_1  and  C_2
REMARK    2  A    between atoms: C_12  and  C_13
REMARK    3  A    between atoms: C_13  and  C_14
REMARK    4  A    between atoms: C_27  and  C_28
REMARK                            x       y       z     vdW  Elec       q    Type
REMARK                         _______ _______ _______ _____ _____    ______ ____
ROOT
ATOM      1  C   UNL     1      -2.560  15.052  23.948  0.00  0.00    +0.000 C 
ATOM      2  C   UNL     1      -2.909  14.292  22.694  0.00  0.00    +0.000 A 
ATOM      3  C   UNL     1      -4.206  14.432  22.179  0.00  0.00    +0.000 A 
ATOM      4  C   UNL     1      -4.582  13.751  21.029  0.00  0.00    +0.000 A 
ATOM      5  C   UNL     1      -3.662  12.920  20.389  0.00  0.00    +0.000 A 
ATOM      6  C   UNL     1      -4.071  12.206  19.181  0.00  0.00    +0.000 A 
ATOM      7  O   UNL     1      -5.198  12.311  18.721  0.00  0.00    +0.000 OA
ATOM      8  C   UNL     1      -3.072  11.355  18.534  0.00  0.00    +0.000 A 
ATOM      9  C   UNL     1      -3.402  10.682  17.353  0.00  0.00    +0.000 A 
ATOM     10  C   UNL     1      -2.452   9.882  16.731  0.00  0.00    +0.000 A 
ATOM     11  C   UNL     1      -1.182   9.759  17.293  0.00  0.00    +0.000 A 
ATOM     12  C   UNL     1      -0.841  10.445  18.477  0.00  0.00    +0.000 A 
ATOM     13  C   UNL     1      -1.805  11.252  19.107  0.00  0.00    +0.000 A 
ATOM     14  O   UNL     1      -1.447  11.924  20.258  0.00  0.00    +0.000 OA
ATOM     15  C   UNL     1      -2.364  12.753  20.874  0.00  0.00    +0.000 A 
ATOM     16  C   UNL     1      -1.971  13.450  22.038  0.00  0.00    +0.000 A 
ATOM     17  C   UNL     1      -0.576  13.319  22.593  0.00  0.00    +0.000 C 
ENDROOT
BRANCH  12  18
ATOM     18  C   UNL     1       0.573  10.334  18.992  0.00  0.00    +0.000 C 
BRANCH  18  19
ATOM     19  C   UNL     1       1.491   9.299  18.376  0.00  0.00    +0.000 C 
ATOM     20  O   UNL     1       1.957   9.522  17.255  0.00  0.00    +0.000 OA
ATOM     21  N   UNL     1       1.784   8.171  19.114  0.00  0.00    +0.000 N 
ATOM     22  C   UNL     1       2.620   7.172  18.595  0.00  0.00    +0.000 A 
ATOM     23  C   UNL     1       3.800   7.490  17.923  0.00  0.00    +0.000 A 
ATOM     24  C   UNL     1       4.503   6.480  17.270  0.00  0.00    +0.000 A 
ATOM     25  C   UNL     1       4.004   5.187  17.308  0.00  0.00    +0.000 A 
ATOM     26 CL   UNL     1       4.766   3.931  16.424  0.00  0.00    +0.000 Cl
ATOM     27  C   UNL     1       2.862   4.948  18.061  0.00  0.00    +0.000 A 
ATOM     28  N   UNL     1       2.178   5.907  18.738  0.00  0.00    +0.000 NA
ATOM     29  H   UNL     1       1.067   7.812  19.730  0.00  0.00    +0.000 HD
ENDBRANCH  18  19
ENDBRANCH  12  18
TORSDOF 2
ENDMDL
MODEL 5
REMARK VINA RESULT:      -7.4      5.691      8.920
REMARK  Name = 
REMARK  4 active torsions:
REMARK  status: ('A' for Active; 'I' for Inactive)
REMARK    1  A    between atoms: C_1  and  C_2
REMARK    2  A    between atoms: C_12  and  C_13
REMARK    3  A    between atoms: C_13  and  C_14
REMARK    4  A    between atoms: C_27  and  C_28
REMARK                            x       y       z     vdW  Elec       q    Type
REMARK                         _______ _______ _______ _____ _____    ______ ____
ROOT
ATOM      1  C   UNL     1       6.052   4.172  15.859  0.00  0.00    +0.000 C 
ATOM      2  C   UNL     1       5.121   4.589  16.969  0.00  0.00    +0.000 A 
ATOM      3  C   UNL     1       4.853   3.663  17.986  0.00  0.00    +0.000 A 
ATOM      4  C   UNL     1       3.999   3.993  19.030  0.00  0.00    +0.000 A 
ATOM      5  C   UNL     1       3.403   5.254  19.058  0.00  0.00    +0.000 A 
ATOM      6  C   UNL     1       2.503   5.589  20.161  0.00  0.00    +0.000 A 
ATOM      7  O   UNL     1       2.254   4.792  21.053  0.00  0.00    +0.000 OA
ATOM      8  C   UNL     1       1.909   6.926  20.159  0.00  0.00    +0.000 A 
ATOM      9  C   UNL     1       1.072   7.309  21.213  0.00  0.00    +0.000 A 
ATOM     10  C   UNL     1       0.515   8.581  21.220  0.00  0.00    +0.000 A 
ATOM     11  C   UNL     1       0.797   9.460  20.175  0.00  0.00    +0.000 A 
ATOM     12  C   UNL     1       1.648   9.083  19.115  0.00  0.00    +0.000 A 
ATOM     13  C   UNL     1       2.209   7.794  19.109  0.00  0.00    +0.000 A 
ATOM     14  O   UNL     1       3.049   7.449  18.071  0.00  0.00    +0.000 OA
ATOM     15  C   UNL     1       3.643   6.201  18.062  0.00  0.00    +0.000 A 
ATOM     16  C   UNL     1       4.517   5.875  17.002  0.00  0.00    +0.000 A 
ATOM     17  C   UNL     1       4.825   6.868  15.910  0.00  0.00    +0.000 C 
ENDROOT
BRANCH  12  18
ATOM     18  C   UNL     1       1.976  10.106  18.056  0.00  0.00    +0.000 C 
BRANCH  18  19
ATOM     19  C   UNL     1       1.611  11.554  18.307  0.00  0.00    +0.000 C 
ATOM     20  O   UNL     1       0.416  11.853  18.377  0.00  0.00    +0.000 OA
ATOM     21  N   UNL     1       2.637  12.461  18.474  0.00  0.00    +0.000 N 
ATOM     22  C   UNL     1       2.364  13.818  18.700  0.00  0.00    +0.000 A 
ATOM     23  C   UNL     1       1.367  14.220  19.589  0.00  0.00    +0.000 A 
ATOM     24  C   UNL     1       1.009  15.565  19.645  0.00  0.00    +0.000 A 
ATOM     25  C   UNL     1       1.657  16.463  18.812  0.00  0.00    +0.000 A 
ATOM     26 CL   UNL     1       1.175  18.108  18.758  0.00  0.00    +0.000 Cl
ATOM     27  C   UNL     1       2.687  15.988  18.011  0.00  0.00    +0.000 A 
ATOM     28  N   UNL     1       3.082  14.688  17.963  0.00  0.00    +0.000 NA
ATOM     29  H   UNL     1       3.492  12.306  17.957  0.00  0.00    +0.000 HD
ENDBRANCH  18  19
ENDBRANCH  12  18
TORSDOF 2
ENDMDL
MODEL 6
REMARK VINA RESULT:      -7.4      4.007      8.598
REMARK  Name = 
REMARK  4 active torsions:
REMARK  status: ('A' for Active; 'I' for Inactive)
REMARK    1  A    between atoms: C_1  and  C_2
REMARK    2  A    between atoms: C_12  and  C_13
REMARK    3  A    between atoms: C_13  and  C_14
REMARK    4  A    between atoms: C_27  and  C_28
REMARK                            x       y       z     vdW  Elec       q    Type
REMARK                         _______ _______ _______ _____ _____    ______ ____
ROOT
ATOM      1  C   UNL     1       3.723   2.312  20.136  0.00  0.00    +0.000 C 
ATOM      2  C   UNL     1       3.554   3.672  19.509  0.00  0.00    +0.000 A 
ATOM      3  C   UNL     1       4.171   3.908  18.273  0.00  0.00    +0.000 A 
ATOM      4  C   UNL     1       4.052   5.146  17.654  0.00  0.00    +0.000 A 
ATOM      5  C   UNL     1       3.317   6.157  18.272  0.00  0.00    +0.000 A 
ATOM      6  C   UNL     1       3.201   7.457  17.611  0.00  0.00    +0.000 A 
ATOM      7  O   UNL     1       3.737   7.682  16.536  0.00  0.00    +0.000 OA
ATOM      8  C   UNL     1       2.411   8.485  18.288  0.00  0.00    +0.000 A 
ATOM      9  C   UNL     1       2.237   9.732  17.678  0.00  0.00    +0.000 A 
ATOM     10  C   UNL     1       1.479  10.707  18.313  0.00  0.00    +0.000 A 
ATOM     11  C   UNL     1       0.901  10.430  19.551  0.00  0.00    +0.000 A 
ATOM     12  C   UNL     1       1.064   9.171  20.165  0.00  0.00    +0.000 A 
ATOM     13  C   UNL     1       1.835   8.186  19.522  0.00  0.00    +0.000 A 
ATOM     14  O   UNL     1       1.971   6.957  20.134  0.00  0.00    +0.000 OA
ATOM     15  C   UNL     1       2.691   5.960  19.503  0.00  0.00    +0.000 A 
ATOM     16  C   UNL     1       2.801   4.702  20.135  0.00  0.00    +0.000 A 
ATOM     17  C   UNL     1       2.129   4.431  21.458  0.00  0.00    +0.000 C 
ENDROOT
BRANCH  12  18
ATOM     18  C   UNL     1       0.349   8.907  21.467  0.00  0.00    +0.000 C 
BRANCH  18  19
ATOM     19  C   UNL     1      -0.266  10.075  22.208  0.00  0.00    +0.000 C 
ATOM     20  O   UNL     1       0.007  10.221  23.403  0.00  0.00    +0.000 OA
ATOM     21  N   UNL     1      -1.077  10.937  21.500  0.00  0.00    +0.000 N 
ATOM     22  C   UNL     1      -1.684  12.033  22.131  0.00  0.00    +0.000 A 
ATOM     23  C   UNL     1      -0.977  12.840  23.022  0.00  0.00    +0.000 A 
ATOM     24  C   UNL     1      -1.664  13.801  23.760  0.00  0.00    +0.000 A 
ATOM     25  C   UNL     1      -3.034  13.922  23.587  0.00  0.00    +0.000 A 
ATOM     26 CL   UNL     1      -3.944  15.007  24.554  0.00  0.00    +0.000 Cl
ATOM     27  C   UNL     1      -3.645  13.127  22.627  0.00  0.00    +0.000 A 
ATOM     28  N   UNL     1      -2.993  12.208  21.866  0.00  0.00    +0.000 NA
ATOM     29  H   UNL     1      -1.634  10.550  20.749  0.00  0.00    +0.000 HD
ENDBRANCH  18  19
ENDBRANCH  12  18
TORSDOF 2
ENDMDL
MODEL 7
REMARK VINA RESULT:      -7.4      5.197      9.809
REMARK  Name = 
REMARK  4 active torsions:
REMARK  status: ('A' for Active; 'I' for Inactive)
REMARK    1  A    between atoms: C_1  and  C_2
REMARK    2  A    between atoms: C_12  and  C_13
REMARK    3  A    between atoms: C_13  and  C_14
REMARK    4  A    between atoms: C_27  and  C_28
REMARK                            x       y       z     vdW  Elec       q    Type
REMARK                         _______ _______ _______ _____ _____    ______ ____
ROOT
ATOM      1  C   UNL     1       7.459   5.848  15.122  0.00  0.00    +0.000 C 
ATOM      2  C   UNL     1       6.304   5.128  15.769  0.00  0.00    +0.000 A 
ATOM      3  C   UNL     1       5.956   3.864  15.273  0.00  0.00    +0.000 A 
ATOM      4  C   UNL     1       4.896   3.159  15.829  0.00  0.00    +0.000 A 
ATOM      5  C   UNL     1       4.175   3.720  16.883  0.00  0.00    +0.000 A 
ATOM      6  C   UNL     1       3.059   2.969  17.458  0.00  0.00    +0.000 A 
ATOM      7  O   UNL     1       2.738   1.868  17.035  0.00  0.00    +0.000 OA
ATOM      8  C   UNL     1       2.337   3.587  18.570  0.00  0.00    +0.000 A 
ATOM      9  C   UNL     1       1.287   2.892  19.180  0.00  0.00    +0.000 A 
ATOM     10  C   UNL     1       0.606   3.473  20.243  0.00  0.00    +0.000 A 
ATOM     11  C   UNL     1       0.977   4.741  20.687  0.00  0.00    +0.000 A 
ATOM     12  C   UNL     1       2.042   5.441  20.082  0.00  0.00    +0.000 A 
ATOM     13  C   UNL     1       2.728   4.853  19.005  0.00  0.00    +0.000 A 
ATOM     14  O   UNL     1       3.775   5.549  18.436  0.00  0.00    +0.000 OA
ATOM     15  C   UNL     1       4.489   4.976  17.401  0.00  0.00    +0.000 A 
ATOM     16  C   UNL     1       5.571   5.695  16.846  0.00  0.00    +0.000 A 
ATOM     17  C   UNL     1       5.965   7.049  17.380  0.00  0.00    +0.000 C 
ENDROOT
BRANCH  12  18
ATOM     18  C   UNL     1       2.447   6.775  20.659  0.00  0.00    +0.000 C 
BRANCH  18  19
ATOM     19  C   UNL     1       1.845   8.033  20.070  0.00  0.00    +0.000 C 
ATOM     20  O   UNL     1       1.893   8.188  18.846  0.00  0.00    +0.000 OA
ATOM     21  N   UNL     1       1.246   8.930  20.930  0.00  0.00    +0.000 N 
ATOM     22  C   UNL     1       0.679  10.119  20.447  0.00  0.00    +0.000 A 
ATOM     23  C   UNL     1      -0.107  10.132  19.295  0.00  0.00    +0.000 A 
ATOM     24  C   UNL     1      -0.496  11.354  18.753  0.00  0.00    +0.000 A 
ATOM     25  C   UNL     1      -0.088  12.522  19.377  0.00  0.00    +0.000 A 
ATOM     26 CL   UNL     1      -0.441  14.051  18.687  0.00  0.00    +0.000 Cl
ATOM     27  C   UNL     1       0.632  12.415  20.560  0.00  0.00    +0.000 A 
ATOM     28  N   UNL     1       0.994  11.236  21.131  0.00  0.00    +0.000 NA
ATOM     29  H   UNL     1       1.634   9.021  21.860  0.00  0.00    +0.000 HD
ENDBRANCH  18  19
ENDBRANCH  12  18
TORSDOF 2
ENDMDL
MODEL 8
REMARK VINA RESULT:      -7.4      4.675      9.130
REMARK  Name = 
REMARK  4 active torsions:
REMARK  status: ('A' for Active; 'I' for Inactive)
REMARK    1  A    between atoms: C_1  and  C_2
REMARK    2  A    between atoms: C_12  and  C_13
REMARK    3  A    between atoms: C_13  and  C_14
REMARK    4  A    between atoms: C_27  and  C_28
REMARK                            x       y       z     vdW  Elec       q    Type
REMARK                         _______ _______ _______ _____ _____    ______ ____
ROOT
ATOM      1  C   UNL     1       6.401   4.498  14.767  0.00  0.00    +0.000 C 
ATOM      2  C   UNL     1       5.546   4.705  15.991  0.00  0.00    +0.000 A 
ATOM      3  C   UNL     1       5.454   3.655  16.915  0.00  0.00    +0.000 A 
ATOM      4  C   UNL     1       4.676   3.791  18.057  0.00  0.00    +0.000 A 
ATOM      5  C   UNL     1       3.980   4.980  18.278  0.00  0.00    +0.000 A 
ATOM      6  C   UNL     1       3.161   5.110  19.483  0.00  0.00    +0.000 A 
ATOM      7  O   UNL     1       3.065   4.203  20.297  0.00  0.00    +0.000 OA
ATOM      8  C   UNL     1       2.458   6.377  19.683  0.00  0.00    +0.000 A 
ATOM      9  C   UNL     1       1.694   6.565  20.840  0.00  0.00    +0.000 A 
ATOM     10  C   UNL     1       1.035   7.771  21.037  0.00  0.00    +0.000 A 
ATOM     11  C   UNL     1       1.141   8.778  20.079  0.00  0.00    +0.000 A 
ATOM     12  C   UNL     1       1.919   8.598  18.916  0.00  0.00    +0.000 A 
ATOM     13  C   UNL     1       2.584   7.375  18.717  0.00  0.00    +0.000 A 
ATOM     14  O   UNL     1       3.350   7.223  17.580  0.00  0.00    +0.000 OA
ATOM     15  C   UNL     1       4.045   6.045  17.380  0.00  0.00    +0.000 A 
ATOM     16  C   UNL     1       4.841   5.918  16.221  0.00  0.00    +0.000 A 
ATOM     17  C   UNL     1       4.960   7.045  15.226  0.00  0.00    +0.000 C 
ENDROOT
BRANCH  12  18
ATOM     18  C   UNL     1       2.059   9.753  17.957  0.00  0.00    +0.000 C 
BRANCH  18  19
ATOM     19  C   UNL     1       1.573  11.120  18.390  0.00  0.00    +0.000 C 
ATOM     20  O   UNL     1       2.414  11.986  18.647  0.00  0.00    +0.000 OA
ATOM     21  N   UNL     1       0.212  11.337  18.446  0.00  0.00    +0.000 N 
ATOM     22  C   UNL     1      -0.301  12.579  18.849  0.00  0.00    +0.000 A 
ATOM     23  C   UNL     1       0.245  13.775  18.382  0.00  0.00    +0.000 A 
ATOM     24  C   UNL     1      -0.174  14.978  18.945  0.00  0.00    +0.000 A 
ATOM     25  C   UNL     1      -1.122  14.947  19.956  0.00  0.00    +0.000 A 
ATOM     26 CL   UNL     1      -1.585  16.387  20.763  0.00  0.00    +0.000 Cl
ATOM     27  C   UNL     1      -1.663  13.718  20.308  0.00  0.00    +0.000 A 
ATOM     28  N   UNL     1      -1.300  12.533  19.750  0.00  0.00    +0.000 NA
ATOM     29  H   UNL     1      -0.378  10.558  18.705  0.00  0.00    +0.000 HD
ENDBRANCH  18  19
ENDBRANCH  12  18
TORSDOF 2
ENDMDL
MODEL 9
REMARK VINA RESULT:      -7.3      1.278      4.498
REMARK  Name = 
REMARK  4 active torsions:
REMARK  status: ('A' for Active; 'I' for Inactive)
REMARK    1  A    between atoms: C_1  and  C_2
REMARK    2  A    between atoms: C_12  and  C_13
REMARK    3  A    between atoms: C_13  and  C_14
REMARK    4  A    between atoms: C_27  and  C_28
REMARK                            x       y       z     vdW  Elec       q    Type
REMARK                         _______ _______ _______ _____ _____    ______ ____
ROOT
ATOM      1  C   UNL     1      -2.874  14.454  25.194  0.00  0.00    +0.000 C 
ATOM      2  C   UNL     1      -3.635  13.927  24.004  0.00  0.00    +0.000 A 
ATOM      3  C   UNL     1      -5.029  13.821  24.109  0.00  0.00    +0.000 A 
ATOM      4  C   UNL     1      -5.779  13.337  23.045  0.00  0.00    +0.000 A 
ATOM      5  C   UNL     1      -5.135  12.952  21.869  0.00  0.00    +0.000 A 
ATOM      6  C   UNL     1      -5.935  12.441  20.757  0.00  0.00    +0.000 A 
ATOM      7  O   UNL     1      -7.151  12.336  20.833  0.00  0.00    +0.000 OA
ATOM      8  C   UNL     1      -5.222  12.060  19.537  0.00  0.00    +0.000 A 
ATOM      9  C   UNL     1      -5.947  11.603  18.431  0.00  0.00    +0.000 A 
ATOM     10  C   UNL     1      -5.273  11.250  17.269  0.00  0.00    +0.000 A 
ATOM     11  C   UNL     1      -3.884  11.355  17.220  0.00  0.00    +0.000 A 
ATOM     12  C   UNL     1      -3.150  11.826  18.329  0.00  0.00    +0.000 A 
ATOM     13  C   UNL     1      -3.834  12.179  19.506  0.00  0.00    +0.000 A 
ATOM     14  O   UNL     1      -3.098  12.649  20.574  0.00  0.00    +0.000 OA
ATOM     15  C   UNL     1      -3.750  13.040  21.729  0.00  0.00    +0.000 A 
ATOM     16  C   UNL     1      -2.982  13.539  22.803  0.00  0.00    +0.000 A 
ATOM     17  C   UNL     1      -1.484  13.672  22.697  0.00  0.00    +0.000 C 
ENDROOT
BRANCH  12  18
ATOM     18  C   UNL     1      -1.658  11.991  18.187  0.00  0.00    +0.000 C 
BRANCH  18  19
ATOM     19  C   UNL     1      -0.781  10.758  18.252  0.00  0.00    +0.000 C 
ATOM     20  O   UNL     1      -0.880   9.920  17.352  0.00  0.00    +0.000 OA
ATOM     21  N   UNL     1       0.108  10.651  19.302  0.00  0.00    +0.000 N 
ATOM     22  C   UNL     1       0.942   9.529  19.424  0.00  0.00    +0.000 A 
ATOM     23  C   UNL     1       1.607   8.996  18.320  0.00  0.00    +0.000 A 
ATOM     24  C   UNL     1       2.275   7.781  18.451  0.00  0.00    +0.000 A 
ATOM     25  C   UNL     1       2.255   7.138  19.679  0.00  0.00    +0.000 A 
ATOM     26 CL   UNL     1       2.961   5.586  19.863  0.00  0.00    +0.000 Cl
ATOM     27  C   UNL     1       1.630   7.775  20.742  0.00  0.00    +0.000 A 
ATOM     28  N   UNL     1       1.002   8.978  20.651  0.00  0.00    +0.000 NA
ATOM     29  H   UNL     1      -0.165  11.044  20.192  0.00  0.00    +0.000 HD
ENDBRANCH  18  19
ENDBRANCH  12  18
TORSDOF 2
ENDMDL
