MODEL 1
REMARK VINA RESULT:      -7.0      0.000      0.000
REMARK  Name = 
REMARK  7 active torsions:
REMARK  status: ('A' for Active; 'I' for Inactive)
REMARK    1  A    between atoms: C_1  and  C_2
REMARK    2  A    between atoms: C_2  and  O_3
REMARK    3  A    between atoms: C_2  and  C_4
REMARK    4  A    between atoms: C_4  and  N_5
REMARK    5  A    between atoms: C_9  and  C_11
REMARK    6  A    between atoms: N_16  and  C_17
REMARK    7  A    between atoms: N_16  and  C_18
REMARK                            x       y       z     vdW  Elec       q    Type
REMARK                         _______ _______ _______ _____ _____    ______ ____
ROOT
ATOM      1  N   UNL     1       4.961   4.246  17.029  0.00  0.00    +0.000 NA
ATOM      2  C   UNL     1       4.207   3.547  18.096  0.00  0.00    +0.000 C 
ATOM      3  C   UNL     1       4.026   4.359  19.393  0.00  0.00    +0.000 C 
ATOM      4  N   UNL     1       3.454   5.685  19.127  0.00  0.00    +0.000 N 
ATOM      5  C   UNL     1       2.441   6.147  19.967  0.00  0.00    +0.000 C 
ATOM      6  O   UNL     1       1.940   5.438  20.844  0.00  0.00    +0.000 OA
ATOM      7  C   UNL     1       4.079   6.415  18.014  0.00  0.00    +0.000 C 
ATOM      8  C   UNL     1       4.296   5.538  16.768  0.00  0.00    +0.000 C 
ENDROOT
BRANCH   5   9
ATOM      9  C   UNL     1       1.891   7.522  19.816  0.00  0.00    +0.000 A 
ATOM     10  C   UNL     1       2.026   8.253  18.650  0.00  0.00    +0.000 A 
ATOM     11  C   UNL     1       1.409   9.480  18.610  0.00  0.00    +0.000 A 
ATOM     12  N   UNL     1       0.778  10.034  19.664  0.00  0.00    +0.000 NA
ATOM     13  C   UNL     1       0.739   9.388  20.852  0.00  0.00    +0.000 A 
ATOM     14  N   UNL     1       0.137  10.035  21.911  0.00  0.00    +0.000 N 
ATOM     15  C   UNL     1      -0.252  11.434  21.748  0.00  0.00    +0.000 C 
ATOM     16  C   UNL     1       0.048   9.521  23.267  0.00  0.00    +0.000 C 
ATOM     17  C   UNL     1       1.278   8.106  20.933  0.00  0.00    +0.000 A 
ENDBRANCH   5   9
BRANCH   1  18
ATOM     18  C   UNL     1       6.384   4.444  17.353  0.00  0.00    +0.000 C 
BRANCH  18  20
ATOM     19  C   UNL     1       6.699   4.272  14.825  0.00  0.00    +0.000 C 
ATOM     20  C   UNL     1       7.299   4.738  16.144  0.00  0.00    +0.000 C 
BRANCH  20  21
ATOM     21  O   UNL     1       7.540   6.148  16.073  0.00  0.00    +0.000 OA
ATOM     22  H   UNL     1       6.785   6.555  15.614  0.00  0.00    +0.000 HD
ENDBRANCH  20  21
ENDBRANCH  18  20
ENDBRANCH   1  18
TORSDOF 4
ENDMDL
MODEL 2
REMARK VINA RESULT:      -6.8      2.541      7.369
REMARK  Name = 
REMARK  7 active torsions:
REMARK  status: ('A' for Active; 'I' for Inactive)
REMARK    1  A    between atoms: C_1  and  C_2
REMARK    2  A    between atoms: C_2  and  O_3
REMARK    3  A    between atoms: C_2  and  C_4
REMARK    4  A    between atoms: C_4  and  N_5
REMARK    5  A    between atoms: C_9  and  C_11
REMARK    6  A    between atoms: N_16  and  C_17
REMARK    7  A    between atoms: N_16  and  C_18
REMARK                            x       y       z     vdW  Elec       q    Type
REMARK                         _______ _______ _______ _____ _____    ______ ____
ROOT
ATOM      1  N   UNL     1       1.170  10.722  18.937  0.00  0.00    +0.000 NA
ATOM      2  C   UNL     1       1.304  10.081  20.266  0.00  0.00    +0.000 C 
ATOM      3  C   UNL     1       0.979   8.575  20.288  0.00  0.00    +0.000 C 
ATOM      4  N   UNL     1       1.739   7.839  19.269  0.00  0.00    +0.000 N 
ATOM      5  C   UNL     1       2.321   6.624  19.630  0.00  0.00    +0.000 C 
ATOM      6  O   UNL     1       2.313   6.211  20.792  0.00  0.00    +0.000 OA
ATOM      7  C   UNL     1       1.742   8.459  17.936  0.00  0.00    +0.000 C 
ATOM      8  C   UNL     1       2.008   9.975  17.979  0.00  0.00    +0.000 C 
ENDROOT
BRANCH   5   9
ATOM      9  C   UNL     1       3.016   5.781  18.619  0.00  0.00    +0.000 A 
ATOM     10  C   UNL     1       2.456   4.628  18.101  0.00  0.00    +0.000 A 
ATOM     11  C   UNL     1       3.164   3.979  17.118  0.00  0.00    +0.000 A 
ATOM     12  N   UNL     1       4.396   4.350  16.716  0.00  0.00    +0.000 NA
ATOM     13  C   UNL     1       5.014   5.406  17.296  0.00  0.00    +0.000 A 
ATOM     14  N   UNL     1       6.299   5.695  16.888  0.00  0.00    +0.000 N 
ATOM     15  C   UNL     1       6.985   4.753  16.007  0.00  0.00    +0.000 C 
ATOM     16  C   UNL     1       7.133   6.753  17.434  0.00  0.00    +0.000 C 
ATOM     17  C   UNL     1       4.315   6.151  18.242  0.00  0.00    +0.000 A 
ENDBRANCH   5   9
BRANCH   1  18
ATOM     18  C   UNL     1      -0.223  10.802  18.466  0.00  0.00    +0.000 C 
BRANCH  18  20
ATOM     19  C   UNL     1       0.239  13.312  18.538  0.00  0.00    +0.000 C 
ATOM     20  C   UNL     1      -0.820  12.226  18.417  0.00  0.00    +0.000 C 
BRANCH  20  21
ATOM     21  O   UNL     1      -1.523  12.396  17.181  0.00  0.00    +0.000 OA
ATOM     22  H   UNL     1      -1.746  13.340  17.094  0.00  0.00    +0.000 HD
ENDBRANCH  20  21
ENDBRANCH  18  20
ENDBRANCH   1  18
TORSDOF 4
ENDMDL
MODEL 3
REMARK VINA RESULT:      -6.7      2.440      7.514
REMARK  Name = 
REMARK  7 active torsions:
REMARK  status: ('A' for Active; 'I' for Inactive)
REMARK    1  A    between atoms: C_1  and  C_2
REMARK    2  A    between atoms: C_2  and  O_3
REMARK    3  A    between atoms: C_2  and  C_4
REMARK    4  A    between atoms: C_4  and  N_5
REMARK    5  A    between atoms: C_9  and  C_11
REMARK    6  A    between atoms: N_16  and  C_17
REMARK    7  A    between atoms: N_16  and  C_18
REMARK                            x       y       z     vdW  Elec       q    Type
REMARK                         _______ _______ _______ _____ _____    ______ ____
ROOT
ATOM      1  N   UNL     1      -0.630   9.836  21.192  0.00  0.00    +0.000 NA
ATOM      2  C   UNL     1      -0.592  10.237  19.767  0.00  0.00    +0.000 C 
ATOM      3  C   UNL     1       0.812  10.223  19.132  0.00  0.00    +0.000 C 
ATOM      4  N   UNL     1       1.486   8.934  19.334  0.00  0.00    +0.000 N 
ATOM      5  C   UNL     1       2.166   8.370  18.255  0.00  0.00    +0.000 C 
ATOM      6  O   UNL     1       2.123   8.858  17.124  0.00  0.00    +0.000 OA
ATOM      7  C   UNL     1       1.414   8.408  20.705  0.00  0.00    +0.000 C 
ATOM      8  C   UNL     1       0.002   8.508  21.312  0.00  0.00    +0.000 C 
ENDROOT
BRANCH   5   9
ATOM      9  C   UNL     1       2.955   7.118  18.421  0.00  0.00    +0.000 A 
ATOM     10  C   UNL     1       4.171   6.917  17.793  0.00  0.00    +0.000 A 
ATOM     11  C   UNL     1       4.837   5.752  18.087  0.00  0.00    +0.000 A 
ATOM     12  N   UNL     1       4.328   4.774  18.862  0.00  0.00    +0.000 NA
ATOM     13  C   UNL     1       3.087   4.898  19.389  0.00  0.00    +0.000 A 
ATOM     14  N   UNL     1       2.595   3.836  20.119  0.00  0.00    +0.000 N 
ATOM     15  C   UNL     1       3.344   2.583  20.126  0.00  0.00    +0.000 C 
ATOM     16  C   UNL     1       1.270   3.770  20.712  0.00  0.00    +0.000 C 
ATOM     17  C   UNL     1       2.394   6.090  19.192  0.00  0.00    +0.000 A 
ENDBRANCH   5   9
BRANCH   1  18
ATOM     18  C   UNL     1       0.015  10.809  22.090  0.00  0.00    +0.000 C 
BRANCH  18  20
ATOM     19  C   UNL     1      -1.222  12.851  22.996  0.00  0.00    +0.000 C 
ATOM     20  C   UNL     1      -0.383  12.283  21.859  0.00  0.00    +0.000 C 
BRANCH  20  21
ATOM     21  O   UNL     1       0.804  13.072  21.717  0.00  0.00    +0.000 OA
ATOM     22  H   UNL     1       0.711  13.603  20.907  0.00  0.00    +0.000 HD
ENDBRANCH  20  21
ENDBRANCH  18  20
ENDBRANCH   1  18
TORSDOF 4
ENDMDL
MODEL 4
REMARK VINA RESULT:      -6.6      2.420      7.851
REMARK  Name = 
REMARK  7 active torsions:
REMARK  status: ('A' for Active; 'I' for Inactive)
REMARK    1  A    between atoms: C_1  and  C_2
REMARK    2  A    between atoms: C_2  and  O_3
REMARK    3  A    between atoms: C_2  and  C_4
REMARK    4  A    between atoms: C_4  and  N_5
REMARK    5  A    between atoms: C_9  and  C_11
REMARK    6  A    between atoms: N_16  and  C_17
REMARK    7  A    between atoms: N_16  and  C_18
REMARK                            x       y       z     vdW  Elec       q    Type
REMARK                         _______ _______ _______ _____ _____    ______ ____
ROOT
ATOM      1  N   UNL     1      -0.584   9.760  21.172  0.00  0.00    +0.000 NA
ATOM      2  C   UNL     1      -0.576  10.170  19.748  0.00  0.00    +0.000 C 
ATOM      3  C   UNL     1       0.816  10.168  19.086  0.00  0.00    +0.000 C 
ATOM      4  N   UNL     1       1.501   8.881  19.267  0.00  0.00    +0.000 N 
ATOM      5  C   UNL     1       2.163   8.327  18.172  0.00  0.00    +0.000 C 
ATOM      6  O   UNL     1       2.096   8.822  17.045  0.00  0.00    +0.000 OA
ATOM      7  C   UNL     1       1.458   8.347  20.637  0.00  0.00    +0.000 C 
ATOM      8  C   UNL     1       0.058   8.435  21.271  0.00  0.00    +0.000 C 
ENDROOT
BRANCH   5   9
ATOM      9  C   UNL     1       2.962   7.079  18.315  0.00  0.00    +0.000 A 
ATOM     10  C   UNL     1       2.437   5.917  18.850  0.00  0.00    +0.000 A 
ATOM     11  C   UNL     1       3.253   4.812  18.857  0.00  0.00    +0.000 A 
ATOM     12  N   UNL     1       4.544   4.832  18.470  0.00  0.00    +0.000 NA
ATOM     13  C   UNL     1       5.113   5.989  18.057  0.00  0.00    +0.000 A 
ATOM     14  N   UNL     1       6.454   5.960  17.736  0.00  0.00    +0.000 N 
ATOM     15  C   UNL     1       7.221   4.753  18.034  0.00  0.00    +0.000 C 
ATOM     16  C   UNL     1       7.242   7.110  17.326  0.00  0.00    +0.000 C 
ATOM     17  C   UNL     1       4.315   7.126  17.951  0.00  0.00    +0.000 A 
ENDBRANCH   5   9
BRANCH   1  18
ATOM     18  C   UNL     1       0.073  10.731  22.063  0.00  0.00    +0.000 C 
BRANCH  18  20
ATOM     19  C   UNL     1      -1.208  12.720  23.022  0.00  0.00    +0.000 C 
ATOM     20  C   UNL     1      -0.360  12.200  21.869  0.00  0.00    +0.000 C 
BRANCH  20  21
ATOM     21  O   UNL     1       0.807  13.020  21.744  0.00  0.00    +0.000 OA
ATOM     22  H   UNL     1       1.049  13.330  22.634  0.00  0.00    +0.000 HD
ENDBRANCH  20  21
ENDBRANCH  18  20
ENDBRANCH   1  18
TORSDOF 4
ENDMDL
MODEL 5
REMARK VINA RESULT:      -6.6      1.088      1.353
REMARK  Name = 
REMARK  7 active torsions:
REMARK  status: ('A' for Active; 'I' for Inactive)
REMARK    1  A    between atoms: C_1  and  C_2
REMARK    2  A    between atoms: C_2  and  O_3
REMARK    3  A    between atoms: C_2  and  C_4
REMARK    4  A    between atoms: C_4  and  N_5
REMARK    5  A    between atoms: C_9  and  C_11
REMARK    6  A    between atoms: N_16  and  C_17
REMARK    7  A    between atoms: N_16  and  C_18
REMARK                            x       y       z     vdW  Elec       q    Type
REMARK                         _______ _______ _______ _____ _____    ______ ____
ROOT
ATOM      1  N   UNL     1       5.576   4.806  16.363  0.00  0.00    +0.000 NA
ATOM      2  C   UNL     1       4.736   3.944  17.227  0.00  0.00    +0.000 C 
ATOM      3  C   UNL     1       4.360   4.567  18.585  0.00  0.00    +0.000 C 
ATOM      4  N   UNL     1       3.758   5.897  18.425  0.00  0.00    +0.000 N 
ATOM      5  C   UNL     1       2.631   6.207  19.184  0.00  0.00    +0.000 C 
ATOM      6  O   UNL     1       2.065   5.370  19.891  0.00  0.00    +0.000 OA
ATOM      7  C   UNL     1       4.475   6.791  17.503  0.00  0.00    +0.000 C 
ATOM      8  C   UNL     1       4.883   6.098  16.191  0.00  0.00    +0.000 C 
ENDROOT
BRANCH   5   9
ATOM      9  C   UNL     1       2.035   7.571  19.145  0.00  0.00    +0.000 A 
ATOM     10  C   UNL     1       2.023   8.344  17.999  0.00  0.00    +0.000 A 
ATOM     11  C   UNL     1       1.376   9.554  18.072  0.00  0.00    +0.000 A 
ATOM     12  N   UNL     1       0.851  10.054  19.208  0.00  0.00    +0.000 NA
ATOM     13  C   UNL     1       0.959   9.366  20.369  0.00  0.00    +0.000 A 
ATOM     14  N   UNL     1       0.461   9.960  21.510  0.00  0.00    +0.000 N 
ATOM     15  C   UNL     1       0.024  11.352  21.443  0.00  0.00    +0.000 C 
ATOM     16  C   UNL     1       0.535   9.397  22.848  0.00  0.00    +0.000 C 
ATOM     17  C   UNL     1       1.534   8.098  20.343  0.00  0.00    +0.000 A 
ENDBRANCH   5   9
BRANCH   1  18
ATOM     18  C   UNL     1       6.939   5.006  16.885  0.00  0.00    +0.000 C 
BRANCH  18  20
ATOM     19  C   UNL     1       7.958   6.348  18.803  0.00  0.00    +0.000 C 
ATOM     20  C   UNL     1       7.219   6.406  17.473  0.00  0.00    +0.000 C 
BRANCH  20  21
ATOM     21  O   UNL     1       8.001   7.158  16.539  0.00  0.00    +0.000 OA
ATOM     22  H   UNL     1       8.430   7.883  17.027  0.00  0.00    +0.000 HD
ENDBRANCH  20  21
ENDBRANCH  18  20
ENDBRANCH   1  18
TORSDOF 4
ENDMDL
MODEL 6
REMARK VINA RESULT:      -6.5      2.251      7.161
REMARK  Name = 
REMARK  7 active torsions:
REMARK  status: ('A' for Active; 'I' for Inactive)
REMARK    1  A    between atoms: C_1  and  C_2
REMARK    2  A    between atoms: C_2  and  O_3
REMARK    3  A    between atoms: C_2  and  C_4
REMARK    4  A    between atoms: C_4  and  N_5
REMARK    5  A    between atoms: C_9  and  C_11
REMARK    6  A    between atoms: N_16  and  C_17
REMARK    7  A    between atoms: N_16  and  C_18
REMARK                            x       y       z     vdW  Elec       q    Type
REMARK                         _______ _______ _______ _____ _____    ______ ____
ROOT
ATOM      1  N   UNL     1       1.052   9.991  19.701  0.00  0.00    +0.000 NA
ATOM      2  C   UNL     1       1.357   9.224  20.932  0.00  0.00    +0.000 C 
ATOM      3  C   UNL     1       1.151   7.702  20.808  0.00  0.00    +0.000 C 
ATOM      4  N   UNL     1       1.868   7.149  19.652  0.00  0.00    +0.000 N 
ATOM      5  C   UNL     1       2.572   5.957  19.821  0.00  0.00    +0.000 C 
ATOM      6  O   UNL     1       2.702   5.422  20.924  0.00  0.00    +0.000 OA
ATOM      7  C   UNL     1       1.702   7.906  18.402  0.00  0.00    +0.000 C 
ATOM      8  C   UNL     1       1.853   9.426  18.598  0.00  0.00    +0.000 C 
ENDROOT
BRANCH   5   9
ATOM      9  C   UNL     1       3.234   5.291  18.665  0.00  0.00    +0.000 A 
ATOM     10  C   UNL     1       2.696   4.181  18.039  0.00  0.00    +0.000 A 
ATOM     11  C   UNL     1       3.363   3.705  16.937  0.00  0.00    +0.000 A 
ATOM     12  N   UNL     1       4.543   4.195  16.507  0.00  0.00    +0.000 NA
ATOM     13  C   UNL     1       5.147   5.203  17.179  0.00  0.00    +0.000 A 
ATOM     14  N   UNL     1       6.384   5.617  16.729  0.00  0.00    +0.000 N 
ATOM     15  C   UNL     1       7.050   4.836  15.690  0.00  0.00    +0.000 C 
ATOM     16  C   UNL     1       7.201   6.644  17.353  0.00  0.00    +0.000 C 
ATOM     17  C   UNL     1       4.482   5.781  18.257  0.00  0.00    +0.000 A 
ENDBRANCH   5   9
BRANCH   1  18
ATOM     18  C   UNL     1      -0.380  10.001  19.359  0.00  0.00    +0.000 C 
BRANCH  18  20
ATOM     19  C   UNL     1      -2.039   9.971  17.418  0.00  0.00    +0.000 C 
ATOM     20  C   UNL     1      -0.714  10.510  17.940  0.00  0.00    +0.000 C 
BRANCH  20  21
ATOM     21  O   UNL     1      -0.769  11.941  17.957  0.00  0.00    +0.000 OA
ATOM     22  H   UNL     1       0.057  12.274  17.564  0.00  0.00    +0.000 HD
ENDBRANCH  20  21
ENDBRANCH  18  20
ENDBRANCH   1  18
TORSDOF 4
ENDMDL
MODEL 7
REMARK VINA RESULT:      -6.5      2.321      3.628
REMARK  Name = 
REMARK  7 active torsions:
REMARK  status: ('A' for Active; 'I' for Inactive)
REMARK    1  A    between atoms: C_1  and  C_2
REMARK    2  A    between atoms: C_2  and  O_3
REMARK    3  A    between atoms: C_2  and  C_4
REMARK    4  A    between atoms: C_4  and  N_5
REMARK    5  A    between atoms: C_9  and  C_11
REMARK    6  A    between atoms: N_16  and  C_17
REMARK    7  A    between atoms: N_16  and  C_18
REMARK                            x       y       z     vdW  Elec       q    Type
REMARK                         _______ _______ _______ _____ _____    ______ ____
ROOT
ATOM      1  N   UNL     1       4.406   4.585  18.759  0.00  0.00    +0.000 NA
ATOM      2  C   UNL     1       4.778   5.666  17.817  0.00  0.00    +0.000 C 
ATOM      3  C   UNL     1       3.592   6.503  17.300  0.00  0.00    +0.000 C 
ATOM      4  N   UNL     1       2.773   7.024  18.403  0.00  0.00    +0.000 N 
ATOM      5  C   UNL     1       2.348   8.351  18.338  0.00  0.00    +0.000 C 
ATOM      6  O   UNL     1       2.728   9.120  17.453  0.00  0.00    +0.000 OA
ATOM      7  C   UNL     1       2.437   6.038  19.441  0.00  0.00    +0.000 C 
ATOM      8  C   UNL     1       3.645   5.186  19.872  0.00  0.00    +0.000 C 
ENDROOT
BRANCH   5   9
ATOM      9  C   UNL     1       1.431   8.909  19.370  0.00  0.00    +0.000 A 
ATOM     10  C   UNL     1       1.284   8.337  20.621  0.00  0.00    +0.000 A 
ATOM     11  C   UNL     1       0.465   8.991  21.510  0.00  0.00    +0.000 A 
ATOM     12  N   UNL     1      -0.262  10.081  21.196  0.00  0.00    +0.000 NA
ATOM     13  C   UNL     1      -0.225  10.586  19.940  0.00  0.00    +0.000 A 
ATOM     14  N   UNL     1      -1.041  11.662  19.661  0.00  0.00    +0.000 N 
ATOM     15  C   UNL     1      -2.024  12.075  20.660  0.00  0.00    +0.000 C 
ATOM     16  C   UNL     1      -1.173  12.300  18.362  0.00  0.00    +0.000 C 
ATOM     17  C   UNL     1       0.647  10.015  19.016  0.00  0.00    +0.000 A 
ENDBRANCH   5   9
BRANCH   1  18
ATOM     18  C   UNL     1       3.642   3.496  18.127  0.00  0.00    +0.000 C 
BRANCH  18  20
ATOM     19  C   UNL     1       1.872   1.998  19.196  0.00  0.00    +0.000 C 
ATOM     20  C   UNL     1       3.360   2.278  19.033  0.00  0.00    +0.000 C 
BRANCH  20  21
ATOM     21  O   UNL     1       3.992   1.121  18.473  0.00  0.00    +0.000 OA
ATOM     22  H   UNL     1       3.635   0.993  17.578  0.00  0.00    +0.000 HD
ENDBRANCH  20  21
ENDBRANCH  18  20
ENDBRANCH   1  18
TORSDOF 4
ENDMDL
MODEL 8
REMARK VINA RESULT:      -6.4      3.955      7.167
REMARK  Name = 
REMARK  7 active torsions:
REMARK  status: ('A' for Active; 'I' for Inactive)
REMARK    1  A    between atoms: C_1  and  C_2
REMARK    2  A    between atoms: C_2  and  O_3
REMARK    3  A    between atoms: C_2  and  C_4
REMARK    4  A    between atoms: C_4  and  N_5
REMARK    5  A    between atoms: C_9  and  C_11
REMARK    6  A    between atoms: N_16  and  C_17
REMARK    7  A    between atoms: N_16  and  C_18
REMARK                            x       y       z     vdW  Elec       q    Type
REMARK                         _______ _______ _______ _____ _____    ______ ____
ROOT
ATOM      1  N   UNL     1       1.632   2.271  18.432  0.00  0.00    +0.000 NA
ATOM      2  C   UNL     1       1.074   3.641  18.522  0.00  0.00    +0.000 C 
ATOM      3  C   UNL     1       2.072   4.711  19.004  0.00  0.00    +0.000 C 
ATOM      4  N   UNL     1       3.308   4.697  18.211  0.00  0.00    +0.000 N 
ATOM      5  C   UNL     1       3.845   5.919  17.806  0.00  0.00    +0.000 C 
ATOM      6  O   UNL     1       3.261   6.988  17.994  0.00  0.00    +0.000 OA
ATOM      7  C   UNL     1       3.882   3.362  17.986  0.00  0.00    +0.000 C 
ATOM      8  C   UNL     1       2.829   2.319  17.570  0.00  0.00    +0.000 C 
ENDROOT
BRANCH   5   9
ATOM      9  C   UNL     1       5.149   5.979  17.089  0.00  0.00    +0.000 A 
ATOM     10  C   UNL     1       6.210   6.742  17.540  0.00  0.00    +0.000 A 
ATOM     11  C   UNL     1       7.385   6.654  16.832  0.00  0.00    +0.000 A 
ATOM     12  N   UNL     1       7.518   5.954  15.689  0.00  0.00    +0.000 NA
ATOM     13  C   UNL     1       6.456   5.297  15.164  0.00  0.00    +0.000 A 
ATOM     14  N   UNL     1       6.638   4.653  13.958  0.00  0.00    +0.000 N 
ATOM     15  C   UNL     1       7.885   4.867  13.229  0.00  0.00    +0.000 C 
ATOM     16  C   UNL     1       5.603   3.946  13.222  0.00  0.00    +0.000 C 
ATOM     17  C   UNL     1       5.260   5.284  15.877  0.00  0.00    +0.000 A 
ENDBRANCH   5   9
BRANCH   1  18
ATOM     18  C   UNL     1       1.951   1.683  19.744  0.00  0.00    +0.000 C 
BRANCH  18  20
ATOM     19  C   UNL     1       1.206   2.631  21.994  0.00  0.00    +0.000 C 
ATOM     20  C   UNL     1       2.231   2.701  20.871  0.00  0.00    +0.000 C 
BRANCH  20  21
ATOM     21  O   UNL     1       3.533   2.453  21.413  0.00  0.00    +0.000 OA
ATOM     22  H   UNL     1       3.824   1.580  21.097  0.00  0.00    +0.000 HD
ENDBRANCH  20  21
ENDBRANCH  18  20
ENDBRANCH   1  18
TORSDOF 4
ENDMDL
MODEL 9
REMARK VINA RESULT:      -6.4      3.194      5.242
REMARK  Name = 
REMARK  7 active torsions:
REMARK  status: ('A' for Active; 'I' for Inactive)
REMARK    1  A    between atoms: C_1  and  C_2
REMARK    2  A    between atoms: C_2  and  O_3
REMARK    3  A    between atoms: C_2  and  C_4
REMARK    4  A    between atoms: C_4  and  N_5
REMARK    5  A    between atoms: C_9  and  C_11
REMARK    6  A    between atoms: N_16  and  C_17
REMARK    7  A    between atoms: N_16  and  C_18
REMARK                            x       y       z     vdW  Elec       q    Type
REMARK                         _______ _______ _______ _____ _____    ______ ____
ROOT
ATOM      1  N   UNL     1       6.534   3.765  14.139  0.00  0.00    +0.000 NA
ATOM      2  C   UNL     1       7.253   4.953  14.655  0.00  0.00    +0.000 C 
ATOM      3  C   UNL     1       6.340   6.079  15.179  0.00  0.00    +0.000 C 
ATOM      4  N   UNL     1       5.372   5.580  16.164  0.00  0.00    +0.000 N 
ATOM      5  C   UNL     1       5.157   6.334  17.317  0.00  0.00    +0.000 C 
ATOM      6  O   UNL     1       5.829   7.333  17.584  0.00  0.00    +0.000 OA
ATOM      7  C   UNL     1       4.679   4.343  15.775  0.00  0.00    +0.000 C 
ATOM      8  C   UNL     1       5.630   3.278  15.199  0.00  0.00    +0.000 C 
ENDROOT
BRANCH   5   9
ATOM      9  C   UNL     1       4.116   5.938  18.305  0.00  0.00    +0.000 A 
ATOM     10  C   UNL     1       3.097   6.788  18.692  0.00  0.00    +0.000 A 
ATOM     11  C   UNL     1       2.154   6.279  19.552  0.00  0.00    +0.000 A 
ATOM     12  N   UNL     1       2.230   5.050  20.102  0.00  0.00    +0.000 NA
ATOM     13  C   UNL     1       3.284   4.246  19.830  0.00  0.00    +0.000 A 
ATOM     14  N   UNL     1       3.339   3.027  20.474  0.00  0.00    +0.000 N 
ATOM     15  C   UNL     1       2.376   2.752  21.538  0.00  0.00    +0.000 C 
ATOM     16  C   UNL     1       4.416   2.060  20.347  0.00  0.00    +0.000 C 
ATOM     17  C   UNL     1       4.231   4.676  18.903  0.00  0.00    +0.000 A 
ENDBRANCH   5   9
BRANCH   1  18
ATOM     18  C   UNL     1       5.791   4.027  12.894  0.00  0.00    +0.000 C 
BRANCH  18  20
ATOM     19  C   UNL     1       4.132   3.145  11.165  0.00  0.00    +0.000 C 
ATOM     20  C   UNL     1       5.157   2.785  12.232  0.00  0.00    +0.000 C 
BRANCH  20  21
ATOM     21  O   UNL     1       6.192   1.994  11.634  0.00  0.00    +0.000 OA
ATOM     22  H   UNL     1       7.012   2.518  11.651  0.00  0.00    +0.000 HD
ENDBRANCH  20  21
ENDBRANCH  18  20
ENDBRANCH   1  18
TORSDOF 4
ENDMDL
