MODEL 1
REMARK VINA RESULT:      -7.2      0.000      0.000
REMARK  Name = 
REMARK  9 active torsions:
REMARK  status: ('A' for Active; 'I' for Inactive)
REMARK    1  A    between atoms: C_1  and  C_2
REMARK    2  A    between atoms: C_2  and  C_3
REMARK    3  A    between atoms: C_3  and  C_4
REMARK    4  A    between atoms: N_6  and  C_7
REMARK    5  A    between atoms: N_10  and  C_11
REMARK    6  A    between atoms: C_11  and  C_12
REMARK    7  A    between atoms: C_11  and  C_13
REMARK    8  A    between atoms: C_15  and  C_16
REMARK    9  A    between atoms: C_17  and  C_18
REMARK                            x       y       z     vdW  Elec       q    Type
REMARK                         _______ _______ _______ _____ _____    ______ ____
ROOT
ATOM      1  C   UNL     1       1.826   9.381  18.760  0.00  0.00    +0.000 A 
ATOM      2  N   UNL     1       1.157   9.290  19.916  0.00  0.00    +0.000 NA
ATOM      3  N   UNL     1       1.445   8.042  20.358  0.00  0.00    +0.000 N 
ATOM      4  C   UNL     1       0.850   7.609  21.599  0.00  0.00    +0.000 C 
ATOM      5  C   UNL     1       2.271   7.325  19.529  0.00  0.00    +0.000 A 
ATOM      6  C   UNL     1       2.848   6.053  19.534  0.00  0.00    +0.000 A 
ATOM      7  N   UNL     1       2.736   5.146  20.578  0.00  0.00    +0.000 N 
ATOM      8  N   UNL     1       3.612   5.741  18.456  0.00  0.00    +0.000 NA
ATOM      9  C   UNL     1       3.799   6.648  17.475  0.00  0.00    +0.000 A 
ATOM     10  N   UNL     1       3.283   7.876  17.413  0.00  0.00    +0.000 NA
ATOM     11  C   UNL     1       2.513   8.184  18.468  0.00  0.00    +0.000 A 
ATOM     12  H   UNL     1       2.128   5.401  21.340  0.00  0.00    +0.000 HD
ENDROOT
BRANCH   7  13
ATOM     13  C   UNL     1       2.744   3.718  20.259  0.00  0.00    +0.000 C 
ATOM     14  C   UNL     1       2.526   2.925  21.548  0.00  0.00    +0.000 C 
ATOM     15  C   UNL     1       1.626   3.413  19.262  0.00  0.00    +0.000 C 
ENDBRANCH   7  13
BRANCH   9  16
ATOM     16  C   UNL     1       4.676   6.311  16.350  0.00  0.00    +0.000 C 
ATOM     17  C   UNL     1       4.828   5.091  15.813  0.00  0.00    +0.000 C 
BRANCH  17  18
ATOM     18  C   UNL     1       5.726   4.812  14.684  0.00  0.00    +0.000 A 
ATOM     19  C   UNL     1       5.378   3.816  13.767  0.00  0.00    +0.000 A 
ATOM     20  C   UNL     1       6.212   3.518  12.694  0.00  0.00    +0.000 A 
ATOM     21  C   UNL     1       7.409   4.215  12.547  0.00  0.00    +0.000 A 
ATOM     22  N   UNL     1       7.786   5.192  13.447  0.00  0.00    +0.000 N 
ATOM     23  O   UNL     1       8.882   5.817  13.302  0.00  0.00    +0.000 OA
ATOM     24  C   UNL     1       6.946   5.477  14.510  0.00  0.00    +0.000 A 
ENDBRANCH  17  18
ENDBRANCH   9  16
BRANCH   1  25
ATOM     25  C   UNL     1       1.839  10.634  17.952  0.00  0.00    +0.000 C 
BRANCH  25  27
ATOM     26  C   UNL     1       2.287  13.077  18.342  0.00  0.00    +0.000 C 
ATOM     27  C   UNL     1       1.451  11.874  18.757  0.00  0.00    +0.000 C 
ENDBRANCH  25  27
ENDBRANCH   1  25
TORSDOF 5
ENDMDL
MODEL 2
REMARK VINA RESULT:      -7.2      3.647      7.562
REMARK  Name = 
REMARK  9 active torsions:
REMARK  status: ('A' for Active; 'I' for Inactive)
REMARK    1  A    between atoms: C_1  and  C_2
REMARK    2  A    between atoms: C_2  and  C_3
REMARK    3  A    between atoms: C_3  and  C_4
REMARK    4  A    between atoms: N_6  and  C_7
REMARK    5  A    between atoms: N_10  and  C_11
REMARK    6  A    between atoms: C_11  and  C_12
REMARK    7  A    between atoms: C_11  and  C_13
REMARK    8  A    between atoms: C_15  and  C_16
REMARK    9  A    between atoms: C_17  and  C_18
REMARK                            x       y       z     vdW  Elec       q    Type
REMARK                         _______ _______ _______ _____ _____    ______ ____
ROOT
ATOM      1  C   UNL     1       6.187   6.651  16.879  0.00  0.00    +0.000 A 
ATOM      2  N   UNL     1       6.605   5.659  16.083  0.00  0.00    +0.000 NA
ATOM      3  N   UNL     1       5.647   4.710  16.221  0.00  0.00    +0.000 N 
ATOM      4  C   UNL     1       5.809   3.473  15.495  0.00  0.00    +0.000 C 
ATOM      5  C   UNL     1       4.631   5.053  17.078  0.00  0.00    +0.000 A 
ATOM      6  C   UNL     1       3.454   4.457  17.536  0.00  0.00    +0.000 A 
ATOM      7  N   UNL     1       2.970   3.235  17.091  0.00  0.00    +0.000 N 
ATOM      8  N   UNL     1       2.731   5.177  18.432  0.00  0.00    +0.000 NA
ATOM      9  C   UNL     1       3.148   6.404  18.806  0.00  0.00    +0.000 A 
ATOM     10  N   UNL     1       4.254   7.029  18.404  0.00  0.00    +0.000 NA
ATOM     11  C   UNL     1       4.982   6.315  17.531  0.00  0.00    +0.000 A 
ATOM     12  H   UNL     1       3.556   2.716  16.458  0.00  0.00    +0.000 HD
ENDROOT
BRANCH   7  13
ATOM     13  C   UNL     1       2.206   2.410  18.027  0.00  0.00    +0.000 C 
ATOM     14  C   UNL     1       3.055   2.169  19.276  0.00  0.00    +0.000 C 
ATOM     15  C   UNL     1       0.914   3.134  18.406  0.00  0.00    +0.000 C 
ENDBRANCH   7  13
BRANCH   9  16
ATOM     16  C   UNL     1       2.320   7.188  19.728  0.00  0.00    +0.000 C 
ATOM     17  C   UNL     1       1.758   8.375  19.459  0.00  0.00    +0.000 C 
BRANCH  17  18
ATOM     18  C   UNL     1       0.938   9.119  20.426  0.00  0.00    +0.000 A 
ATOM     19  C   UNL     1      -0.001  10.040  19.955  0.00  0.00    +0.000 A 
ATOM     20  C   UNL     1      -0.785  10.769  20.845  0.00  0.00    +0.000 A 
ATOM     21  C   UNL     1      -0.616  10.582  22.214  0.00  0.00    +0.000 A 
ATOM     22  N   UNL     1       0.317   9.690  22.707  0.00  0.00    +0.000 N 
ATOM     23  O   UNL     1       0.462   9.532  23.959  0.00  0.00    +0.000 OA
ATOM     24  C   UNL     1       1.089   8.972  21.810  0.00  0.00    +0.000 A 
ENDBRANCH  17  18
ENDBRANCH   9  16
BRANCH   1  25
ATOM     25  C   UNL     1       6.925   7.942  16.983  0.00  0.00    +0.000 C 
BRANCH  25  27
ATOM     26  C   UNL     1       8.555   9.338  18.294  0.00  0.00    +0.000 C 
ATOM     27  C   UNL     1       7.994   7.939  18.076  0.00  0.00    +0.000 C 
ENDBRANCH  25  27
ENDBRANCH   1  25
TORSDOF 5
ENDMDL
MODEL 3
REMARK VINA RESULT:      -7.1      3.662      7.148
REMARK  Name = 
REMARK  9 active torsions:
REMARK  status: ('A' for Active; 'I' for Inactive)
REMARK    1  A    between atoms: C_1  and  C_2
REMARK    2  A    between atoms: C_2  and  C_3
REMARK    3  A    between atoms: C_3  and  C_4
REMARK    4  A    between atoms: N_6  and  C_7
REMARK    5  A    between atoms: N_10  and  C_11
REMARK    6  A    between atoms: C_11  and  C_12
REMARK    7  A    between atoms: C_11  and  C_13
REMARK    8  A    between atoms: C_15  and  C_16
REMARK    9  A    between atoms: C_17  and  C_18
REMARK                            x       y       z     vdW  Elec       q    Type
REMARK                         _______ _______ _______ _____ _____    ______ ____
ROOT
ATOM      1  C   UNL     1       6.215   6.283  17.464  0.00  0.00    +0.000 A 
ATOM      2  N   UNL     1       6.544   4.996  17.628  0.00  0.00    +0.000 NA
ATOM      3  N   UNL     1       5.368   4.401  17.943  0.00  0.00    +0.000 N 
ATOM      4  C   UNL     1       5.377   2.983  18.211  0.00  0.00    +0.000 C 
ATOM      5  C   UNL     1       4.296   5.256  17.989  0.00  0.00    +0.000 A 
ATOM      6  C   UNL     1       2.927   5.145  18.247  0.00  0.00    +0.000 A 
ATOM      7  N   UNL     1       2.267   3.946  18.474  0.00  0.00    +0.000 N 
ATOM      8  N   UNL     1       2.217   6.302  18.204  0.00  0.00    +0.000 NA
ATOM      9  C   UNL     1       2.833   7.462  17.898  0.00  0.00    +0.000 A 
ATOM     10  N   UNL     1       4.130   7.634  17.638  0.00  0.00    +0.000 NA
ATOM     11  C   UNL     1       4.841   6.496  17.696  0.00  0.00    +0.000 A 
ATOM     12  H   UNL     1       2.837   3.118  18.537  0.00  0.00    +0.000 HD
ENDROOT
BRANCH   7  13
ATOM     13  C   UNL     1       1.104   3.953  19.360  0.00  0.00    +0.000 C 
ATOM     14  C   UNL     1       0.380   2.612  19.233  0.00  0.00    +0.000 C 
ATOM     15  C   UNL     1       1.564   4.163  20.802  0.00  0.00    +0.000 C 
ENDBRANCH   7  13
BRANCH   9  16
ATOM     16  C   UNL     1       2.036   8.688  17.798  0.00  0.00    +0.000 C 
ATOM     17  C   UNL     1       1.372   9.274  18.805  0.00  0.00    +0.000 C 
BRANCH  17  18
ATOM     18  C   UNL     1       0.585  10.505  18.645  0.00  0.00    +0.000 A 
ATOM     19  C   UNL     1      -0.760  10.411  18.277  0.00  0.00    +0.000 A 
ATOM     20  C   UNL     1      -1.529  11.557  18.106  0.00  0.00    +0.000 A 
ATOM     21  C   UNL     1      -0.943  12.806  18.293  0.00  0.00    +0.000 A 
ATOM     22  N   UNL     1       0.388  12.930  18.641  0.00  0.00    +0.000 N 
ATOM     23  O   UNL     1       0.910  14.076  18.805  0.00  0.00    +0.000 OA
ATOM     24  C   UNL     1       1.141  11.780  18.807  0.00  0.00    +0.000 A 
ENDBRANCH  17  18
ENDBRANCH   9  16
BRANCH   1  25
ATOM     25  C   UNL     1       7.215   7.305  17.042  0.00  0.00    +0.000 C 
BRANCH  25  27
ATOM     26  C   UNL     1       8.325   9.298  18.098  0.00  0.00    +0.000 C 
ATOM     27  C   UNL     1       8.097   7.795  18.190  0.00  0.00    +0.000 C 
ENDBRANCH  25  27
ENDBRANCH   1  25
TORSDOF 5
ENDMDL
MODEL 4
REMARK VINA RESULT:      -7.1      3.166      7.621
REMARK  Name = 
REMARK  9 active torsions:
REMARK  status: ('A' for Active; 'I' for Inactive)
REMARK    1  A    between atoms: C_1  and  C_2
REMARK    2  A    between atoms: C_2  and  C_3
REMARK    3  A    between atoms: C_3  and  C_4
REMARK    4  A    between atoms: N_6  and  C_7
REMARK    5  A    between atoms: N_10  and  C_11
REMARK    6  A    between atoms: C_11  and  C_12
REMARK    7  A    between atoms: C_11  and  C_13
REMARK    8  A    between atoms: C_15  and  C_16
REMARK    9  A    between atoms: C_17  and  C_18
REMARK                            x       y       z     vdW  Elec       q    Type
REMARK                         _______ _______ _______ _____ _____    ______ ____
ROOT
ATOM      1  C   UNL     1       1.841   3.166  19.104  0.00  0.00    +0.000 A 
ATOM      2  N   UNL     1       2.400   1.997  18.769  0.00  0.00    +0.000 NA
ATOM      3  N   UNL     1       3.424   2.351  17.955  0.00  0.00    +0.000 N 
ATOM      4  C   UNL     1       4.234   1.299  17.390  0.00  0.00    +0.000 C 
ATOM      5  C   UNL     1       3.543   3.703  17.750  0.00  0.00    +0.000 A 
ATOM      6  C   UNL     1       4.399   4.543  17.035  0.00  0.00    +0.000 A 
ATOM      7  N   UNL     1       5.516   4.111  16.334  0.00  0.00    +0.000 N 
ATOM      8  N   UNL     1       4.123   5.871  17.102  0.00  0.00    +0.000 NA
ATOM      9  C   UNL     1       3.090   6.310  17.851  0.00  0.00    +0.000 A 
ATOM     10  N   UNL     1       2.242   5.564  18.558  0.00  0.00    +0.000 NA
ATOM     11  C   UNL     1       2.500   4.248  18.483  0.00  0.00    +0.000 A 
ATOM     12  H   UNL     1       5.661   3.117  16.278  0.00  0.00    +0.000 HD
ENDROOT
BRANCH   7  13
ATOM     13  C   UNL     1       5.913   4.854  15.138  0.00  0.00    +0.000 C 
ATOM     14  C   UNL     1       7.425   5.078  15.177  0.00  0.00    +0.000 C 
ATOM     15  C   UNL     1       5.536   4.050  13.893  0.00  0.00    +0.000 C 
ENDBRANCH   7  13
BRANCH   9  16
ATOM     16  C   UNL     1       2.848   7.752  17.956  0.00  0.00    +0.000 C 
ATOM     17  C   UNL     1       1.695   8.327  18.327  0.00  0.00    +0.000 C 
BRANCH  17  18
ATOM     18  C   UNL     1       1.509   9.783  18.413  0.00  0.00    +0.000 A 
ATOM     19  C   UNL     1       2.512  10.627  17.929  0.00  0.00    +0.000 A 
ATOM     20  C   UNL     1       2.372  12.009  18.007  0.00  0.00    +0.000 A 
ATOM     21  C   UNL     1       1.224  12.548  18.583  0.00  0.00    +0.000 A 
ATOM     22  N   UNL     1       0.224  11.737  19.084  0.00  0.00    +0.000 N 
ATOM     23  O   UNL     1      -0.815  12.242  19.610  0.00  0.00    +0.000 OA
ATOM     24  C   UNL     1       0.378  10.363  19.000  0.00  0.00    +0.000 A 
ENDBRANCH  17  18
ENDBRANCH   9  16
BRANCH   1  25
ATOM     25  C   UNL     1       0.696   3.250  20.055  0.00  0.00    +0.000 C 
BRANCH  25  27
ATOM     26  C   UNL     1       2.350   3.471  21.936  0.00  0.00    +0.000 C 
ATOM     27  C   UNL     1       1.058   2.810  21.474  0.00  0.00    +0.000 C 
ENDBRANCH  25  27
ENDBRANCH   1  25
TORSDOF 5
ENDMDL
MODEL 5
REMARK VINA RESULT:      -7.1      2.759      7.435
REMARK  Name = 
REMARK  9 active torsions:
REMARK  status: ('A' for Active; 'I' for Inactive)
REMARK    1  A    between atoms: C_1  and  C_2
REMARK    2  A    between atoms: C_2  and  C_3
REMARK    3  A    between atoms: C_3  and  C_4
REMARK    4  A    between atoms: N_6  and  C_7
REMARK    5  A    between atoms: N_10  and  C_11
REMARK    6  A    between atoms: C_11  and  C_12
REMARK    7  A    between atoms: C_11  and  C_13
REMARK    8  A    between atoms: C_15  and  C_16
REMARK    9  A    between atoms: C_17  and  C_18
REMARK                            x       y       z     vdW  Elec       q    Type
REMARK                         _______ _______ _______ _____ _____    ______ ____
ROOT
ATOM      1  C   UNL     1       1.891   3.092  19.098  0.00  0.00    +0.000 A 
ATOM      2  N   UNL     1       2.481   1.941  18.750  0.00  0.00    +0.000 NA
ATOM      3  N   UNL     1       3.495   2.331  17.941  0.00  0.00    +0.000 N 
ATOM      4  C   UNL     1       4.333   1.307  17.365  0.00  0.00    +0.000 C 
ATOM      5  C   UNL     1       3.580   3.688  17.753  0.00  0.00    +0.000 A 
ATOM      6  C   UNL     1       4.414   4.558  17.048  0.00  0.00    +0.000 A 
ATOM      7  N   UNL     1       5.543   4.163  16.344  0.00  0.00    +0.000 N 
ATOM      8  N   UNL     1       4.104   5.878  17.130  0.00  0.00    +0.000 NA
ATOM      9  C   UNL     1       3.060   6.281  17.883  0.00  0.00    +0.000 A 
ATOM     10  N   UNL     1       2.231   5.505  18.581  0.00  0.00    +0.000 NA
ATOM     11  C   UNL     1       2.522   4.197  18.490  0.00  0.00    +0.000 A 
ATOM     12  H   UNL     1       5.714   3.174  16.276  0.00  0.00    +0.000 HD
ENDROOT
BRANCH   7  13
ATOM     13  C   UNL     1       5.922   4.929  15.157  0.00  0.00    +0.000 C 
ATOM     14  C   UNL     1       7.416   5.244  15.230  0.00  0.00    +0.000 C 
ATOM     15  C   UNL     1       5.622   4.107  13.904  0.00  0.00    +0.000 C 
ENDBRANCH   7  13
BRANCH   9  16
ATOM     16  C   UNL     1       2.780   7.715  18.005  0.00  0.00    +0.000 C 
ATOM     17  C   UNL     1       1.577   8.262  18.231  0.00  0.00    +0.000 C 
BRANCH  17  18
ATOM     18  C   UNL     1       1.355   9.710  18.342  0.00  0.00    +0.000 A 
ATOM     19  C   UNL     1       0.076  10.182  18.645  0.00  0.00    +0.000 A 
ATOM     20  C   UNL     1      -0.170  11.548  18.745  0.00  0.00    +0.000 A 
ATOM     21  C   UNL     1       0.871  12.446  18.527  0.00  0.00    +0.000 A 
ATOM     22  N   UNL     1       2.143  12.008  18.210  0.00  0.00    +0.000 N 
ATOM     23  O   UNL     1       3.082  12.839  18.011  0.00  0.00    +0.000 OA
ATOM     24  C   UNL     1       2.372  10.646  18.114  0.00  0.00    +0.000 A 
ENDBRANCH  17  18
ENDBRANCH   9  16
BRANCH   1  25
ATOM     25  C   UNL     1       0.743   3.135  20.049  0.00  0.00    +0.000 C 
BRANCH  25  27
ATOM     26  C   UNL     1       2.347   3.588  21.931  0.00  0.00    +0.000 C 
ATOM     27  C   UNL     1       1.136   2.781  21.483  0.00  0.00    +0.000 C 
ENDBRANCH  25  27
ENDBRANCH   1  25
TORSDOF 5
ENDMDL
MODEL 6
REMARK VINA RESULT:      -7.0      3.619      7.598
REMARK  Name = 
REMARK  9 active torsions:
REMARK  status: ('A' for Active; 'I' for Inactive)
REMARK    1  A    between atoms: C_1  and  C_2
REMARK    2  A    between atoms: C_2  and  C_3
REMARK    3  A    between atoms: C_3  and  C_4
REMARK    4  A    between atoms: N_6  and  C_7
REMARK    5  A    between atoms: N_10  and  C_11
REMARK    6  A    between atoms: C_11  and  C_12
REMARK    7  A    between atoms: C_11  and  C_13
REMARK    8  A    between atoms: C_15  and  C_16
REMARK    9  A    between atoms: C_17  and  C_18
REMARK                            x       y       z     vdW  Elec       q    Type
REMARK                         _______ _______ _______ _____ _____    ______ ____
ROOT
ATOM      1  C   UNL     1       6.121   6.769  16.974  0.00  0.00    +0.000 A 
ATOM      2  N   UNL     1       6.578   5.809  16.160  0.00  0.00    +0.000 NA
ATOM      3  N   UNL     1       5.643   4.832  16.258  0.00  0.00    +0.000 N 
ATOM      4  C   UNL     1       5.850   3.619  15.504  0.00  0.00    +0.000 C 
ATOM      5  C   UNL     1       4.604   5.126  17.104  0.00  0.00    +0.000 A 
ATOM      6  C   UNL     1       3.436   4.488  17.526  0.00  0.00    +0.000 A 
ATOM      7  N   UNL     1       2.992   3.266  17.042  0.00  0.00    +0.000 N 
ATOM      8  N   UNL     1       2.678   5.166  18.427  0.00  0.00    +0.000 NA
ATOM      9  C   UNL     1       3.056   6.394  18.839  0.00  0.00    +0.000 A 
ATOM     10  N   UNL     1       4.153   7.058  18.473  0.00  0.00    +0.000 NA
ATOM     11  C   UNL     1       4.915   6.385  17.595  0.00  0.00    +0.000 A 
ATOM     12  H   UNL     1       3.602   2.779  16.406  0.00  0.00    +0.000 HD
ENDROOT
BRANCH   7  13
ATOM     13  C   UNL     1       2.234   2.398  17.943  0.00  0.00    +0.000 C 
ATOM     14  C   UNL     1       3.141   1.979  19.101  0.00  0.00    +0.000 C 
ATOM     15  C   UNL     1       1.020   3.157  18.479  0.00  0.00    +0.000 C 
ENDBRANCH   7  13
BRANCH   9  16
ATOM     16  C   UNL     1       2.193   7.132  19.766  0.00  0.00    +0.000 C 
ATOM     17  C   UNL     1       1.876   8.432  19.674  0.00  0.00    +0.000 C 
BRANCH  17  18
ATOM     18  C   UNL     1       1.005   9.121  20.636  0.00  0.00    +0.000 A 
ATOM     19  C   UNL     1       1.045   8.746  21.981  0.00  0.00    +0.000 A 
ATOM     20  C   UNL     1       0.225   9.370  22.915  0.00  0.00    +0.000 A 
ATOM     21  C   UNL     1      -0.650  10.369  22.496  0.00  0.00    +0.000 A 
ATOM     22  N   UNL     1      -0.722  10.749  21.169  0.00  0.00    +0.000 N 
ATOM     23  O   UNL     1      -1.527  11.659  20.800  0.00  0.00    +0.000 OA
ATOM     24  C   UNL     1       0.100  10.118  20.251  0.00  0.00    +0.000 A 
ENDBRANCH  17  18
ENDBRANCH   9  16
BRANCH   1  25
ATOM     25  C   UNL     1       6.823   8.076  17.124  0.00  0.00    +0.000 C 
BRANCH  25  27
ATOM     26  C   UNL     1       8.572   9.400  18.351  0.00  0.00    +0.000 C 
ATOM     27  C   UNL     1       8.029   8.008  18.061  0.00  0.00    +0.000 C 
ENDBRANCH  25  27
ENDBRANCH   1  25
TORSDOF 5
ENDMDL
MODEL 7
REMARK VINA RESULT:      -7.0      3.196      7.442
REMARK  Name = 
REMARK  9 active torsions:
REMARK  status: ('A' for Active; 'I' for Inactive)
REMARK    1  A    between atoms: C_1  and  C_2
REMARK    2  A    between atoms: C_2  and  C_3
REMARK    3  A    between atoms: C_3  and  C_4
REMARK    4  A    between atoms: N_6  and  C_7
REMARK    5  A    between atoms: N_10  and  C_11
REMARK    6  A    between atoms: C_11  and  C_12
REMARK    7  A    between atoms: C_11  and  C_13
REMARK    8  A    between atoms: C_15  and  C_16
REMARK    9  A    between atoms: C_17  and  C_18
REMARK                            x       y       z     vdW  Elec       q    Type
REMARK                         _______ _______ _______ _____ _____    ______ ____
ROOT
ATOM      1  C   UNL     1       5.224   4.734  16.202  0.00  0.00    +0.000 A 
ATOM      2  N   UNL     1       5.175   3.405  16.363  0.00  0.00    +0.000 NA
ATOM      3  N   UNL     1       4.176   3.226  17.260  0.00  0.00    +0.000 N 
ATOM      4  C   UNL     1       3.873   1.878  17.676  0.00  0.00    +0.000 C 
ATOM      5  C   UNL     1       3.581   4.388  17.684  0.00  0.00    +0.000 A 
ATOM      6  C   UNL     1       2.546   4.730  18.557  0.00  0.00    +0.000 A 
ATOM      7  N   UNL     1       1.742   3.812  19.218  0.00  0.00    +0.000 N 
ATOM      8  N   UNL     1       2.299   6.058  18.696  0.00  0.00    +0.000 NA
ATOM      9  C   UNL     1       3.017   6.957  17.992  0.00  0.00    +0.000 A 
ATOM     10  N   UNL     1       4.011   6.696  17.142  0.00  0.00    +0.000 NA
ATOM     11  C   UNL     1       4.271   5.385  17.013  0.00  0.00    +0.000 A 
ATOM     12  H   UNL     1       1.984   2.840  19.118  0.00  0.00    +0.000 HD
ENDROOT
BRANCH   7  13
ATOM     13  C   UNL     1       1.212   4.176  20.532  0.00  0.00    +0.000 C 
ATOM     14  C   UNL     1       1.082   2.908  21.378  0.00  0.00    +0.000 C 
ATOM     15  C   UNL     1       2.165   5.160  21.210  0.00  0.00    +0.000 C 
ENDBRANCH   7  13
BRANCH   9  16
ATOM     16  C   UNL     1       2.693   8.381  18.112  0.00  0.00    +0.000 C 
ATOM     17  C   UNL     1       1.459   8.900  18.185  0.00  0.00    +0.000 C 
BRANCH  17  18
ATOM     18  C   UNL     1       1.194  10.341  18.303  0.00  0.00    +0.000 A 
ATOM     19  C   UNL     1       2.259  11.240  18.202  0.00  0.00    +0.000 A 
ATOM     20  C   UNL     1       2.044  12.609  18.321  0.00  0.00    +0.000 A 
ATOM     21  C   UNL     1       0.754  13.079  18.555  0.00  0.00    +0.000 A 
ATOM     22  N   UNL     1      -0.315  12.213  18.675  0.00  0.00    +0.000 N 
ATOM     23  O   UNL     1      -1.485  12.655  18.892  0.00  0.00    +0.000 OA
ATOM     24  C   UNL     1      -0.085  10.852  18.555  0.00  0.00    +0.000 A 
ENDBRANCH  17  18
ENDBRANCH   9  16
BRANCH   1  25
ATOM     25  C   UNL     1       6.159   5.378  15.236  0.00  0.00    +0.000 C 
BRANCH  25  27
ATOM     26  C   UNL     1       5.977   3.860  13.240  0.00  0.00    +0.000 C 
ATOM     27  C   UNL     1       6.890   4.374  14.345  0.00  0.00    +0.000 C 
ENDBRANCH  25  27
ENDBRANCH   1  25
TORSDOF 5
ENDMDL
MODEL 8
REMARK VINA RESULT:      -6.9      3.049      6.199
REMARK  Name = 
REMARK  9 active torsions:
REMARK  status: ('A' for Active; 'I' for Inactive)
REMARK    1  A    between atoms: C_1  and  C_2
REMARK    2  A    between atoms: C_2  and  C_3
REMARK    3  A    between atoms: C_3  and  C_4
REMARK    4  A    between atoms: N_6  and  C_7
REMARK    5  A    between atoms: N_10  and  C_11
REMARK    6  A    between atoms: C_11  and  C_12
REMARK    7  A    between atoms: C_11  and  C_13
REMARK    8  A    between atoms: C_15  and  C_16
REMARK    9  A    between atoms: C_17  and  C_18
REMARK                            x       y       z     vdW  Elec       q    Type
REMARK                         _______ _______ _______ _____ _____    ______ ____
ROOT
ATOM      1  C   UNL     1      -2.008  10.913  18.512  0.00  0.00    +0.000 A 
ATOM      2  N   UNL     1      -2.440  12.112  18.921  0.00  0.00    +0.000 NA
ATOM      3  N   UNL     1      -1.299  12.816  19.118  0.00  0.00    +0.000 N 
ATOM      4  C   UNL     1      -1.414  14.174  19.593  0.00  0.00    +0.000 C 
ATOM      5  C   UNL     1      -0.149  12.114  18.854  0.00  0.00    +0.000 A 
ATOM      6  C   UNL     1       1.222  12.376  18.890  0.00  0.00    +0.000 A 
ATOM      7  N   UNL     1       1.776  13.615  19.180  0.00  0.00    +0.000 N 
ATOM      8  N   UNL     1       2.035  11.341  18.555  0.00  0.00    +0.000 NA
ATOM      9  C   UNL     1       1.504  10.157  18.187  0.00  0.00    +0.000 A 
ATOM     10  N   UNL     1       0.210   9.845  18.127  0.00  0.00    +0.000 NA
ATOM     11  C   UNL     1      -0.599  10.860  18.474  0.00  0.00    +0.000 A 
ATOM     12  H   UNL     1       1.141  14.343  19.462  0.00  0.00    +0.000 HD
ENDROOT
BRANCH   7  13
ATOM     13  C   UNL     1       3.078  13.652  19.846  0.00  0.00    +0.000 C 
ATOM     14  C   UNL     1       3.994  14.610  19.084  0.00  0.00    +0.000 C 
ATOM     15  C   UNL     1       2.899  14.135  21.285  0.00  0.00    +0.000 C 
ENDBRANCH   7  13
BRANCH   9  16
ATOM     16  C   UNL     1       2.399   9.073  17.772  0.00  0.00    +0.000 C 
ATOM     17  C   UNL     1       2.318   7.794  18.170  0.00  0.00    +0.000 C 
BRANCH  17  18
ATOM     18  C   UNL     1       3.248   6.748  17.721  0.00  0.00    +0.000 A 
ATOM     19  C   UNL     1       2.914   5.407  17.927  0.00  0.00    +0.000 A 
ATOM     20  C   UNL     1       3.777   4.392  17.525  0.00  0.00    +0.000 A 
ATOM     21  C   UNL     1       4.988   4.726  16.924  0.00  0.00    +0.000 A 
ATOM     22  N   UNL     1       5.351   6.043  16.723  0.00  0.00    +0.000 N 
ATOM     23  O   UNL     1       6.460   6.332  16.176  0.00  0.00    +0.000 OA
ATOM     24  C   UNL     1       4.482   7.042  17.129  0.00  0.00    +0.000 A 
ENDBRANCH  17  18
ENDBRANCH   9  16
BRANCH   1  25
ATOM     25  C   UNL     1      -2.950   9.828  18.116  0.00  0.00    +0.000 C 
BRANCH  25  27
ATOM     26  C   UNL     1      -2.806   9.889  15.607  0.00  0.00    +0.000 C 
ATOM     27  C   UNL     1      -3.699  10.124  16.817  0.00  0.00    +0.000 C 
ENDBRANCH  25  27
ENDBRANCH   1  25
TORSDOF 5
ENDMDL
MODEL 9
REMARK VINA RESULT:      -6.9      2.832      7.283
REMARK  Name = 
REMARK  9 active torsions:
REMARK  status: ('A' for Active; 'I' for Inactive)
REMARK    1  A    between atoms: C_1  and  C_2
REMARK    2  A    between atoms: C_2  and  C_3
REMARK    3  A    between atoms: C_3  and  C_4
REMARK    4  A    between atoms: N_6  and  C_7
REMARK    5  A    between atoms: N_10  and  C_11
REMARK    6  A    between atoms: C_11  and  C_12
REMARK    7  A    between atoms: C_11  and  C_13
REMARK    8  A    between atoms: C_15  and  C_16
REMARK    9  A    between atoms: C_17  and  C_18
REMARK                            x       y       z     vdW  Elec       q    Type
REMARK                         _______ _______ _______ _____ _____    ______ ____
ROOT
ATOM      1  C   UNL     1       5.278   4.807  16.176  0.00  0.00    +0.000 A 
ATOM      2  N   UNL     1       5.278   3.486  16.390  0.00  0.00    +0.000 NA
ATOM      3  N   UNL     1       4.265   3.301  17.271  0.00  0.00    +0.000 N 
ATOM      4  C   UNL     1       4.007   1.959  17.734  0.00  0.00    +0.000 C 
ATOM      5  C   UNL     1       3.615   4.454  17.635  0.00  0.00    +0.000 A 
ATOM      6  C   UNL     1       2.546   4.788  18.469  0.00  0.00    +0.000 A 
ATOM      7  N   UNL     1       1.764   3.865  19.149  0.00  0.00    +0.000 N 
ATOM      8  N   UNL     1       2.243   6.110  18.549  0.00  0.00    +0.000 NA
ATOM      9  C   UNL     1       2.942   7.008  17.825  0.00  0.00    +0.000 A 
ATOM     10  N   UNL     1       3.966   6.754  17.009  0.00  0.00    +0.000 NA
ATOM     11  C   UNL     1       4.281   5.451  16.939  0.00  0.00    +0.000 A 
ATOM     12  H   UNL     1       2.047   2.900  19.094  0.00  0.00    +0.000 HD
ENDROOT
BRANCH   7  13
ATOM     13  C   UNL     1       1.189   4.258  20.435  0.00  0.00    +0.000 C 
ATOM     14  C   UNL     1       1.080   3.019  21.325  0.00  0.00    +0.000 C 
ATOM     15  C   UNL     1       2.091   5.299  21.098  0.00  0.00    +0.000 C 
ENDBRANCH   7  13
BRANCH   9  16
ATOM     16  C   UNL     1       2.559   8.422  17.881  0.00  0.00    +0.000 C 
ATOM     17  C   UNL     1       1.535   8.929  18.584  0.00  0.00    +0.000 C 
BRANCH  17  18
ATOM     18  C   UNL     1       1.196  10.359  18.600  0.00  0.00    +0.000 A 
ATOM     19  C   UNL     1      -0.127  10.741  18.833  0.00  0.00    +0.000 A 
ATOM     20  C   UNL     1      -0.484  12.086  18.843  0.00  0.00    +0.000 A 
ATOM     21  C   UNL     1       0.490  13.052  18.604  0.00  0.00    +0.000 A 
ATOM     22  N   UNL     1       1.803  12.702  18.354  0.00  0.00    +0.000 N 
ATOM     23  O   UNL     1       2.679  13.593  18.134  0.00  0.00    +0.000 OA
ATOM     24  C   UNL     1       2.142  11.359  18.347  0.00  0.00    +0.000 A 
ENDBRANCH  17  18
ENDBRANCH   9  16
BRANCH   1  25
ATOM     25  C   UNL     1       6.209   5.450  15.206  0.00  0.00    +0.000 C 
BRANCH  25  27
ATOM     26  C   UNL     1       6.227   3.961  13.181  0.00  0.00    +0.000 C 
ATOM     27  C   UNL     1       7.018   4.443  14.390  0.00  0.00    +0.000 C 
ENDBRANCH  25  27
ENDBRANCH   1  25
TORSDOF 5
ENDMDL
