MODEL 1
REMARK VINA RESULT:      -8.1      0.000      0.000
REMARK  Name = 
REMARK  18 active torsions:
REMARK  status: ('A' for Active; 'I' for Inactive)
REMARK    1  A    between atoms: C_1  and  C_2
REMARK    2  A    between atoms: C_2  and  C_4
REMARK    3  A    between atoms: C_7  and  N_8
REMARK    4  A    between atoms: C_14  and  C_15
REMARK    5  A    between atoms: N_17  and  C_18
REMARK    6  A    between atoms: N_17  and  C_23
REMARK    7  A    between atoms: C_18  and  C_19
REMARK    8  A    between atoms: C_19  and  C_20
REMARK    9  A    between atoms: C_20  and  C_21
REMARK   10  A    between atoms: C_20  and  C_22
REMARK   11  A    between atoms: C_23  and  C_24
REMARK   12  A    between atoms: C_24  and  C_25
REMARK   13  A    between atoms: C_25  and  C_26
REMARK   14  A    between atoms: C_25  and  C_27
REMARK   15  A    between atoms: N_30  and  C_31
REMARK   16  A    between atoms: C_31  and  C_32
REMARK   17  A    between atoms: C_32  and  C_33
REMARK   18  A    between atoms: C_33  and  O_34
REMARK                            x       y       z     vdW  Elec       q    Type
REMARK                         _______ _______ _______ _____ _____    ______ ____
ROOT
ATOM      1  N   UNL     1       3.768   5.515  18.685  0.00  0.00    +0.000 N 
ATOM      2  C   UNL     1       2.846   6.487  18.930  0.00  0.00    +0.000 A 
ATOM      3  N   UNL     1       2.491   7.516  18.198  0.00  0.00    +0.000 NA
ATOM      4  C   UNL     1       1.775   8.335  19.028  0.00  0.00    +0.000 A 
ATOM      5  C   UNL     1       1.252   9.605  18.764  0.00  0.00    +0.000 A 
ATOM      6  C   UNL     1       0.663  10.331  19.812  0.00  0.00    +0.000 A 
ATOM      7  C   UNL     1       0.600   9.855  21.141  0.00  0.00    +0.000 A 
ATOM      8  C   UNL     1       1.111   8.555  21.382  0.00  0.00    +0.000 A 
ATOM      9  C   UNL     1       1.636   7.784  20.302  0.00  0.00    +0.000 A 
ATOM     10  N   UNL     1       2.103   6.488  20.121  0.00  0.00    +0.000 N 
ATOM     11  H   UNL     1       4.047   4.914  19.451  0.00  0.00    +0.000 HD
ENDROOT
BRANCH   1  15
ATOM     12  C   UNL     1       6.273   5.064  15.270  0.00  0.00    +0.000 A 
ATOM     13  C   UNL     1       6.609   6.000  16.253  0.00  0.00    +0.000 A 
ATOM     14  C   UNL     1       5.806   6.158  17.399  0.00  0.00    +0.000 A 
ATOM     15  C   UNL     1       4.668   5.373  17.603  0.00  0.00    +0.000 A 
ATOM     16  C   UNL     1       4.353   4.427  16.610  0.00  0.00    +0.000 A 
ATOM     17  C   UNL     1       5.140   4.272  15.463  0.00  0.00    +0.000 A 
BRANCH  12  19
ATOM     18  C   UNL     1       6.553   3.890  12.980  0.00  0.00    +0.000 C 
ATOM     19  C   UNL     1       7.046   4.883  14.002  0.00  0.00    +0.000 C 
ATOM     20  O   UNL     1       8.051   5.558  13.795  0.00  0.00    +0.000 OA
ENDBRANCH  12  19
ENDBRANCH   1  15
BRANCH   7  21
ATOM     21  C   UNL     1      -0.152  10.791  22.089  0.00  0.00    +0.000 C 
ATOM     22  O   UNL     1      -0.133  10.420  23.273  0.00  0.00    +0.000 OA
ATOM     23  N   UNL     1      -0.872  11.969  21.764  0.00  0.00    +0.000 N 
BRANCH  23  24
ATOM     24  C   UNL     1      -0.977  12.604  20.451  0.00  0.00    +0.000 C 
BRANCH  24  25
ATOM     25  C   UNL     1      -2.401  12.682  19.855  0.00  0.00    +0.000 C 
BRANCH  25  26
ATOM     26  C   UNL     1      -2.814  11.599  18.836  0.00  0.00    +0.000 C 
ATOM     27  C   UNL     1      -4.275  11.694  18.428  0.00  0.00    +0.000 C 
ATOM     28  C   UNL     1      -1.964  11.720  17.567  0.00  0.00    +0.000 C 
ENDBRANCH  25  26
ENDBRANCH  24  25
ENDBRANCH  23  24
BRANCH  23  29
ATOM     29  C   UNL     1      -1.607  12.628  22.885  0.00  0.00    +0.000 C 
BRANCH  29  30
ATOM     30  C   UNL     1      -3.048  12.148  23.181  0.00  0.00    +0.000 C 
BRANCH  30  31
ATOM     31  C   UNL     1      -4.152  13.226  23.226  0.00  0.00    +0.000 C 
ATOM     32  C   UNL     1      -3.642  14.615  22.843  0.00  0.00    +0.000 C 
ATOM     33  C   UNL     1      -5.294  12.844  22.271  0.00  0.00    +0.000 C 
ENDBRANCH  30  31
ENDBRANCH  29  30
ENDBRANCH  23  29
ENDBRANCH   7  21
BRANCH  10  34
ATOM     34  C   UNL     1       2.010   5.312  20.969  0.00  0.00    +0.000 C 
BRANCH  34  35
ATOM     35  C   UNL     1       1.679   3.914  20.438  0.00  0.00    +0.000 C 
BRANCH  35  36
ATOM     36  C   UNL     1       2.734   2.838  20.664  0.00  0.00    +0.000 C 
BRANCH  36  37
ATOM     37  O   UNL     1       3.205   2.382  19.396  0.00  0.00    +0.000 OA
ATOM     38  H   UNL     1       3.724   1.570  19.536  0.00  0.00    +0.000 HD
ENDBRANCH  36  37
ENDBRANCH  35  36
ENDBRANCH  34  35
ENDBRANCH  10  34
TORSDOF 13
ENDMDL
MODEL 2
REMARK VINA RESULT:      -8.1      1.201      1.533
REMARK  Name = 
REMARK  18 active torsions:
REMARK  status: ('A' for Active; 'I' for Inactive)
REMARK    1  A    between atoms: C_1  and  C_2
REMARK    2  A    between atoms: C_2  and  C_4
REMARK    3  A    between atoms: C_7  and  N_8
REMARK    4  A    between atoms: C_14  and  C_15
REMARK    5  A    between atoms: N_17  and  C_18
REMARK    6  A    between atoms: N_17  and  C_23
REMARK    7  A    between atoms: C_18  and  C_19
REMARK    8  A    between atoms: C_19  and  C_20
REMARK    9  A    between atoms: C_20  and  C_21
REMARK   10  A    between atoms: C_20  and  C_22
REMARK   11  A    between atoms: C_23  and  C_24
REMARK   12  A    between atoms: C_24  and  C_25
REMARK   13  A    between atoms: C_25  and  C_26
REMARK   14  A    between atoms: C_25  and  C_27
REMARK   15  A    between atoms: N_30  and  C_31
REMARK   16  A    between atoms: C_31  and  C_32
REMARK   17  A    between atoms: C_32  and  C_33
REMARK   18  A    between atoms: C_33  and  O_34
REMARK                            x       y       z     vdW  Elec       q    Type
REMARK                         _______ _______ _______ _____ _____    ______ ____
ROOT
ATOM      1  N   UNL     1       3.863   5.369  18.625  0.00  0.00    +0.000 N 
ATOM      2  C   UNL     1       2.923   6.318  18.882  0.00  0.00    +0.000 A 
ATOM      3  N   UNL     1       2.549   7.351  18.164  0.00  0.00    +0.000 NA
ATOM      4  C   UNL     1       1.815   8.143  19.005  0.00  0.00    +0.000 A 
ATOM      5  C   UNL     1       1.268   9.406  18.758  0.00  0.00    +0.000 A 
ATOM      6  C   UNL     1       0.662  10.105  19.816  0.00  0.00    +0.000 A 
ATOM      7  C   UNL     1       0.606   9.608  21.137  0.00  0.00    +0.000 A 
ATOM      8  C   UNL     1       1.142   8.315  21.361  0.00  0.00    +0.000 A 
ATOM      9  C   UNL     1       1.685   7.571  20.270  0.00  0.00    +0.000 A 
ATOM     10  N   UNL     1       2.178   6.287  20.071  0.00  0.00    +0.000 N 
ATOM     11  H   UNL     1       4.153   4.762  19.382  0.00  0.00    +0.000 HD
ENDROOT
BRANCH   1  15
ATOM     12  C   UNL     1       6.383   5.021  15.209  0.00  0.00    +0.000 A 
ATOM     13  C   UNL     1       6.708   5.937  16.214  0.00  0.00    +0.000 A 
ATOM     14  C   UNL     1       5.900   6.060  17.361  0.00  0.00    +0.000 A 
ATOM     15  C   UNL     1       4.769   5.260  17.542  0.00  0.00    +0.000 A 
ATOM     16  C   UNL     1       4.465   4.335  16.526  0.00  0.00    +0.000 A 
ATOM     17  C   UNL     1       5.257   4.214  15.378  0.00  0.00    +0.000 A 
BRANCH  12  19
ATOM     18  C   UNL     1       6.692   3.890  12.900  0.00  0.00    +0.000 C 
ATOM     19  C   UNL     1       7.162   4.877  13.939  0.00  0.00    +0.000 C 
ATOM     20  O   UNL     1       8.152   5.577  13.744  0.00  0.00    +0.000 OA
ENDBRANCH  12  19
ENDBRANCH   1  15
BRANCH   7  21
ATOM     21  C   UNL     1      -0.166  10.515  22.097  0.00  0.00    +0.000 C 
ATOM     22  O   UNL     1      -0.722   9.903  23.022  0.00  0.00    +0.000 OA
ATOM     23  N   UNL     1      -0.339  11.921  22.021  0.00  0.00    +0.000 N 
BRANCH  23  24
ATOM     24  C   UNL     1       0.267  12.832  21.051  0.00  0.00    +0.000 C 
BRANCH  24  25
ATOM     25  C   UNL     1      -0.696  13.432  20.001  0.00  0.00    +0.000 C 
BRANCH  25  26
ATOM     26  C   UNL     1      -0.080  14.025  18.717  0.00  0.00    +0.000 C 
ATOM     27  C   UNL     1      -0.041  15.545  18.724  0.00  0.00    +0.000 C 
ATOM     28  C   UNL     1       1.357  13.521  18.542  0.00  0.00    +0.000 C 
ENDBRANCH  25  26
ENDBRANCH  24  25
ENDBRANCH  23  24
BRANCH  23  29
ATOM     29  C   UNL     1      -1.242  12.534  23.041  0.00  0.00    +0.000 C 
BRANCH  29  30
ATOM     30  C   UNL     1      -2.765  12.496  22.769  0.00  0.00    +0.000 C 
BRANCH  30  31
ATOM     31  C   UNL     1      -3.576  13.756  23.138  0.00  0.00    +0.000 C 
ATOM     32  C   UNL     1      -3.548  14.064  24.636  0.00  0.00    +0.000 C 
ATOM     33  C   UNL     1      -3.027  14.973  22.378  0.00  0.00    +0.000 C 
ENDBRANCH  30  31
ENDBRANCH  29  30
ENDBRANCH  23  29
ENDBRANCH   7  21
BRANCH  10  34
ATOM     34  C   UNL     1       2.106   5.097  20.901  0.00  0.00    +0.000 C 
BRANCH  34  35
ATOM     35  C   UNL     1       1.146   3.935  20.627  0.00  0.00    +0.000 C 
BRANCH  35  36
ATOM     36  C   UNL     1       1.784   2.567  20.418  0.00  0.00    +0.000 C 
BRANCH  36  37
ATOM     37  O   UNL     1       2.876   2.703  19.509  0.00  0.00    +0.000 OA
ATOM     38  H   UNL     1       2.590   3.266  18.767  0.00  0.00    +0.000 HD
ENDBRANCH  36  37
ENDBRANCH  35  36
ENDBRANCH  34  35
ENDBRANCH  10  34
TORSDOF 13
ENDMDL
MODEL 3
REMARK VINA RESULT:      -8.0      1.001      1.214
REMARK  Name = 
REMARK  18 active torsions:
REMARK  status: ('A' for Active; 'I' for Inactive)
REMARK    1  A    between atoms: C_1  and  C_2
REMARK    2  A    between atoms: C_2  and  C_4
REMARK    3  A    between atoms: C_7  and  N_8
REMARK    4  A    between atoms: C_14  and  C_15
REMARK    5  A    between atoms: N_17  and  C_18
REMARK    6  A    between atoms: N_17  and  C_23
REMARK    7  A    between atoms: C_18  and  C_19
REMARK    8  A    between atoms: C_19  and  C_20
REMARK    9  A    between atoms: C_20  and  C_21
REMARK   10  A    between atoms: C_20  and  C_22
REMARK   11  A    between atoms: C_23  and  C_24
REMARK   12  A    between atoms: C_24  and  C_25
REMARK   13  A    between atoms: C_25  and  C_26
REMARK   14  A    between atoms: C_25  and  C_27
REMARK   15  A    between atoms: N_30  and  C_31
REMARK   16  A    between atoms: C_31  and  C_32
REMARK   17  A    between atoms: C_32  and  C_33
REMARK   18  A    between atoms: C_33  and  O_34
REMARK                            x       y       z     vdW  Elec       q    Type
REMARK                         _______ _______ _______ _____ _____    ______ ____
ROOT
ATOM      1  N   UNL     1       4.105   5.255  18.301  0.00  0.00    +0.000 N 
ATOM      2  C   UNL     1       3.154   6.199  18.537  0.00  0.00    +0.000 A 
ATOM      3  N   UNL     1       2.768   7.212  17.797  0.00  0.00    +0.000 NA
ATOM      4  C   UNL     1       2.025   8.014  18.620  0.00  0.00    +0.000 A 
ATOM      5  C   UNL     1       1.464   9.265  18.346  0.00  0.00    +0.000 A 
ATOM      6  C   UNL     1       0.851   9.980  19.388  0.00  0.00    +0.000 A 
ATOM      7  C   UNL     1       0.800   9.512  20.720  0.00  0.00    +0.000 A 
ATOM      8  C   UNL     1       1.351   8.230  20.972  0.00  0.00    +0.000 A 
ATOM      9  C   UNL     1       1.902   7.468  19.898  0.00  0.00    +0.000 A 
ATOM     10  N   UNL     1       2.409   6.186  19.727  0.00  0.00    +0.000 N 
ATOM     11  H   UNL     1       4.402   4.669  19.071  0.00  0.00    +0.000 HD
ENDROOT
BRANCH   1  15
ATOM     12  C   UNL     1       6.632   4.922  14.888  0.00  0.00    +0.000 A 
ATOM     13  C   UNL     1       7.075   5.634  16.007  0.00  0.00    +0.000 A 
ATOM     14  C   UNL     1       6.266   5.745  17.154  0.00  0.00    +0.000 A 
ATOM     15  C   UNL     1       5.011   5.133  17.220  0.00  0.00    +0.000 A 
ATOM     16  C   UNL     1       4.588   4.410  16.089  0.00  0.00    +0.000 A 
ATOM     17  C   UNL     1       5.382   4.304  14.942  0.00  0.00    +0.000 A 
BRANCH  12  19
ATOM     18  C   UNL     1       7.018   3.766  12.604  0.00  0.00    +0.000 C 
ATOM     19  C   UNL     1       7.413   4.811  13.616  0.00  0.00    +0.000 C 
ATOM     20  O   UNL     1       8.344   5.583  13.399  0.00  0.00    +0.000 OA
ENDBRANCH  12  19
ENDBRANCH   1  15
BRANCH   7  21
ATOM     21  C   UNL     1       0.019  10.432  21.660  0.00  0.00    +0.000 C 
ATOM     22  O   UNL     1       0.161  10.152  22.861  0.00  0.00    +0.000 OA
ATOM     23  N   UNL     1      -0.848  11.500  21.316  0.00  0.00    +0.000 N 
BRANCH  23  24
ATOM     24  C   UNL     1      -1.113  12.023  19.976  0.00  0.00    +0.000 C 
BRANCH  24  25
ATOM     25  C   UNL     1      -2.604  12.148  19.588  0.00  0.00    +0.000 C 
BRANCH  25  26
ATOM     26  C   UNL     1      -3.136  11.223  18.474  0.00  0.00    +0.000 C 
ATOM     27  C   UNL     1      -4.409  11.744  17.826  0.00  0.00    +0.000 C 
ATOM     28  C   UNL     1      -2.082  11.065  17.373  0.00  0.00    +0.000 C 
ENDBRANCH  25  26
ENDBRANCH  24  25
ENDBRANCH  23  24
BRANCH  23  29
ATOM     29  C   UNL     1      -1.570  12.159  22.445  0.00  0.00    +0.000 C 
BRANCH  29  30
ATOM     30  C   UNL     1      -0.992  13.488  22.991  0.00  0.00    +0.000 C 
BRANCH  30  31
ATOM     31  C   UNL     1      -1.732  14.786  22.605  0.00  0.00    +0.000 C 
ATOM     32  C   UNL     1      -1.229  15.390  21.294  0.00  0.00    +0.000 C 
ATOM     33  C   UNL     1      -3.238  14.510  22.471  0.00  0.00    +0.000 C 
ENDBRANCH  30  31
ENDBRANCH  29  30
ENDBRANCH  23  29
ENDBRANCH   7  21
BRANCH  10  34
ATOM     34  C   UNL     1       2.351   5.014  20.583  0.00  0.00    +0.000 C 
BRANCH  34  35
ATOM     35  C   UNL     1       1.151   4.063  20.630  0.00  0.00    +0.000 C 
BRANCH  35  36
ATOM     36  C   UNL     1       1.350   2.762  21.398  0.00  0.00    +0.000 C 
BRANCH  36  37
ATOM     37  O   UNL     1       2.451   2.920  22.292  0.00  0.00    +0.000 OA
ATOM     38  H   UNL     1       2.981   3.681  21.995  0.00  0.00    +0.000 HD
ENDBRANCH  36  37
ENDBRANCH  35  36
ENDBRANCH  34  35
ENDBRANCH  10  34
TORSDOF 13
ENDMDL
MODEL 4
REMARK VINA RESULT:      -7.9      1.284      1.699
REMARK  Name = 
REMARK  18 active torsions:
REMARK  status: ('A' for Active; 'I' for Inactive)
REMARK    1  A    between atoms: C_1  and  C_2
REMARK    2  A    between atoms: C_2  and  C_4
REMARK    3  A    between atoms: C_7  and  N_8
REMARK    4  A    between atoms: C_14  and  C_15
REMARK    5  A    between atoms: N_17  and  C_18
REMARK    6  A    between atoms: N_17  and  C_23
REMARK    7  A    between atoms: C_18  and  C_19
REMARK    8  A    between atoms: C_19  and  C_20
REMARK    9  A    between atoms: C_20  and  C_21
REMARK   10  A    between atoms: C_20  and  C_22
REMARK   11  A    between atoms: C_23  and  C_24
REMARK   12  A    between atoms: C_24  and  C_25
REMARK   13  A    between atoms: C_25  and  C_26
REMARK   14  A    between atoms: C_25  and  C_27
REMARK   15  A    between atoms: N_30  and  C_31
REMARK   16  A    between atoms: C_31  and  C_32
REMARK   17  A    between atoms: C_32  and  C_33
REMARK   18  A    between atoms: C_33  and  O_34
REMARK                            x       y       z     vdW  Elec       q    Type
REMARK                         _______ _______ _______ _____ _____    ______ ____
ROOT
ATOM      1  N   UNL     1       3.595   5.121  18.361  0.00  0.00    +0.000 N 
ATOM      2  C   UNL     1       2.726   6.115  18.689  0.00  0.00    +0.000 A 
ATOM      3  N   UNL     1       2.354   7.170  18.002  0.00  0.00    +0.000 NA
ATOM      4  C   UNL     1       1.725   7.994  18.895  0.00  0.00    +0.000 A 
ATOM      5  C   UNL     1       1.228   9.285  18.692  0.00  0.00    +0.000 A 
ATOM      6  C   UNL     1       0.738  10.008  19.792  0.00  0.00    +0.000 A 
ATOM      7  C   UNL     1       0.752   9.507  21.113  0.00  0.00    +0.000 A 
ATOM      8  C   UNL     1       1.236   8.187  21.294  0.00  0.00    +0.000 A 
ATOM      9  C   UNL     1       1.659   7.422  20.166  0.00  0.00    +0.000 A 
ATOM     10  N   UNL     1       2.069   6.116  19.929  0.00  0.00    +0.000 N 
ATOM     11  H   UNL     1       3.908   4.496  19.094  0.00  0.00    +0.000 HD
ENDROOT
BRANCH   1  15
ATOM     12  C   UNL     1       6.193   4.876  14.995  0.00  0.00    +0.000 A 
ATOM     13  C   UNL     1       5.771   3.702  15.626  0.00  0.00    +0.000 A 
ATOM     14  C   UNL     1       4.899   3.755  16.731  0.00  0.00    +0.000 A 
ATOM     15  C   UNL     1       4.412   4.972  17.215  0.00  0.00    +0.000 A 
ATOM     16  C   UNL     1       4.838   6.142  16.559  0.00  0.00    +0.000 A 
ATOM     17  C   UNL     1       5.712   6.098  15.467  0.00  0.00    +0.000 A 
BRANCH  12  19
ATOM     18  C   UNL     1       6.874   4.060  12.634  0.00  0.00    +0.000 C 
ATOM     19  C   UNL     1       7.162   4.899  13.854  0.00  0.00    +0.000 C 
ATOM     20  O   UNL     1       8.159   5.613  13.911  0.00  0.00    +0.000 OA
ENDBRANCH  12  19
ENDBRANCH   1  15
BRANCH   7  21
ATOM     21  C   UNL     1       0.101  10.448  22.128  0.00  0.00    +0.000 C 
ATOM     22  O   UNL     1       0.306  10.125  23.309  0.00  0.00    +0.000 OA
ATOM     23  N   UNL     1      -0.714  11.580  21.873  0.00  0.00    +0.000 N 
BRANCH  23  24
ATOM     24  C   UNL     1      -1.036  12.158  20.568  0.00  0.00    +0.000 C 
BRANCH  24  25
ATOM     25  C   UNL     1      -0.522  13.596  20.327  0.00  0.00    +0.000 C 
BRANCH  25  26
ATOM     26  C   UNL     1      -0.153  13.995  18.883  0.00  0.00    +0.000 C 
ATOM     27  C   UNL     1      -0.147  15.499  18.665  0.00  0.00    +0.000 C 
ATOM     28  C   UNL     1       1.241  13.464  18.531  0.00  0.00    +0.000 C 
ENDBRANCH  25  26
ENDBRANCH  24  25
ENDBRANCH  23  24
BRANCH  23  29
ATOM     29  C   UNL     1      -1.311  12.251  23.066  0.00  0.00    +0.000 C 
BRANCH  29  30
ATOM     30  C   UNL     1      -2.849  12.421  23.102  0.00  0.00    +0.000 C 
BRANCH  30  31
ATOM     31  C   UNL     1      -3.472  12.903  24.430  0.00  0.00    +0.000 C 
ATOM     32  C   UNL     1      -3.438  14.423  24.585  0.00  0.00    +0.000 C 
ATOM     33  C   UNL     1      -4.932  12.434  24.522  0.00  0.00    +0.000 C 
ENDBRANCH  30  31
ENDBRANCH  29  30
ENDBRANCH  23  29
ENDBRANCH   7  21
BRANCH  10  34
ATOM     34  C   UNL     1       1.996   4.927  20.760  0.00  0.00    +0.000 C 
BRANCH  34  35
ATOM     35  C   UNL     1       1.074   3.742  20.457  0.00  0.00    +0.000 C 
BRANCH  35  36
ATOM     36  C   UNL     1       1.758   2.418  20.137  0.00  0.00    +0.000 C 
BRANCH  36  37
ATOM     37  O   UNL     1       1.281   1.948  18.876  0.00  0.00    +0.000 OA
ATOM     38  H   UNL     1       0.866   2.695  18.407  0.00  0.00    +0.000 HD
ENDBRANCH  36  37
ENDBRANCH  35  36
ENDBRANCH  34  35
ENDBRANCH  10  34
TORSDOF 13
ENDMDL
MODEL 5
REMARK VINA RESULT:      -7.8      0.884      1.241
REMARK  Name = 
REMARK  18 active torsions:
REMARK  status: ('A' for Active; 'I' for Inactive)
REMARK    1  A    between atoms: C_1  and  C_2
REMARK    2  A    between atoms: C_2  and  C_4
REMARK    3  A    between atoms: C_7  and  N_8
REMARK    4  A    between atoms: C_14  and  C_15
REMARK    5  A    between atoms: N_17  and  C_18
REMARK    6  A    between atoms: N_17  and  C_23
REMARK    7  A    between atoms: C_18  and  C_19
REMARK    8  A    between atoms: C_19  and  C_20
REMARK    9  A    between atoms: C_20  and  C_21
REMARK   10  A    between atoms: C_20  and  C_22
REMARK   11  A    between atoms: C_23  and  C_24
REMARK   12  A    between atoms: C_24  and  C_25
REMARK   13  A    between atoms: C_25  and  C_26
REMARK   14  A    between atoms: C_25  and  C_27
REMARK   15  A    between atoms: N_30  and  C_31
REMARK   16  A    between atoms: C_31  and  C_32
REMARK   17  A    between atoms: C_32  and  C_33
REMARK   18  A    between atoms: C_33  and  O_34
REMARK                            x       y       z     vdW  Elec       q    Type
REMARK                         _______ _______ _______ _____ _____    ______ ____
ROOT
ATOM      1  N   UNL     1       3.962   5.258  18.436  0.00  0.00    +0.000 N 
ATOM      2  C   UNL     1       3.056   6.234  18.716  0.00  0.00    +0.000 A 
ATOM      3  N   UNL     1       2.760   7.325  18.050  0.00  0.00    +0.000 NA
ATOM      4  C   UNL     1       2.029   8.100  18.910  0.00  0.00    +0.000 A 
ATOM      5  C   UNL     1       1.552   9.401  18.722  0.00  0.00    +0.000 A 
ATOM      6  C   UNL     1       0.936  10.063  19.797  0.00  0.00    +0.000 A 
ATOM      7  C   UNL     1       0.802   9.490  21.081  0.00  0.00    +0.000 A 
ATOM      8  C   UNL     1       1.268   8.161  21.244  0.00  0.00    +0.000 A 
ATOM      9  C   UNL     1       1.821   7.459  20.131  0.00  0.00    +0.000 A 
ATOM     10  N   UNL     1       2.262   6.167  19.871  0.00  0.00    +0.000 N 
ATOM     11  H   UNL     1       4.192   4.593  19.164  0.00  0.00    +0.000 HD
ENDROOT
BRANCH   1  15
ATOM     12  C   UNL     1       6.603   5.009  15.103  0.00  0.00    +0.000 A 
ATOM     13  C   UNL     1       6.955   5.795  16.204  0.00  0.00    +0.000 A 
ATOM     14  C   UNL     1       6.107   5.881  17.326  0.00  0.00    +0.000 A 
ATOM     15  C   UNL     1       4.905   5.171  17.384  0.00  0.00    +0.000 A 
ATOM     16  C   UNL     1       4.574   4.375  16.272  0.00  0.00    +0.000 A 
ATOM     17  C   UNL     1       5.406   4.293  15.150  0.00  0.00    +0.000 A 
BRANCH  12  19
ATOM     18  C   UNL     1       7.020   3.939  12.783  0.00  0.00    +0.000 C 
ATOM     19  C   UNL     1       7.426   4.917  13.857  0.00  0.00    +0.000 C 
ATOM     20  O   UNL     1       8.401   5.649  13.710  0.00  0.00    +0.000 OA
ENDBRANCH  12  19
ENDBRANCH   1  15
BRANCH   7  21
ATOM     21  C   UNL     1       0.034  10.374  22.066  0.00  0.00    +0.000 C 
ATOM     22  O   UNL     1       0.299  10.140  23.255  0.00  0.00    +0.000 OA
ATOM     23  N   UNL     1      -0.939  11.364  21.775  0.00  0.00    +0.000 N 
BRANCH  23  24
ATOM     24  C   UNL     1      -1.357  11.827  20.453  0.00  0.00    +0.000 C 
BRANCH  24  25
ATOM     25  C   UNL     1      -2.086  10.784  19.576  0.00  0.00    +0.000 C 
BRANCH  25  26
ATOM     26  C   UNL     1      -2.349  11.145  18.099  0.00  0.00    +0.000 C 
ATOM     27  C   UNL     1      -2.078   9.990  17.148  0.00  0.00    +0.000 C 
ATOM     28  C   UNL     1      -3.810  11.571  17.914  0.00  0.00    +0.000 C 
ENDBRANCH  25  26
ENDBRANCH  24  25
ENDBRANCH  23  24
BRANCH  23  29
ATOM     29  C   UNL     1      -1.611  11.997  22.949  0.00  0.00    +0.000 C 
BRANCH  29  30
ATOM     30  C   UNL     1      -1.263  13.472  23.268  0.00  0.00    +0.000 C 
BRANCH  30  31
ATOM     31  C   UNL     1      -2.424  14.488  23.249  0.00  0.00    +0.000 C 
ATOM     32  C   UNL     1      -3.516  14.124  22.243  0.00  0.00    +0.000 C 
ATOM     33  C   UNL     1      -3.057  14.584  24.646  0.00  0.00    +0.000 C 
ENDBRANCH  30  31
ENDBRANCH  29  30
ENDBRANCH  23  29
ENDBRANCH   7  21
BRANCH  10  34
ATOM     34  C   UNL     1       2.101   4.934  20.621  0.00  0.00    +0.000 C 
BRANCH  34  35
ATOM     35  C   UNL     1       1.160   3.804  20.194  0.00  0.00    +0.000 C 
BRANCH  35  36
ATOM     36  C   UNL     1       1.815   2.581  19.565  0.00  0.00    +0.000 C 
BRANCH  36  37
ATOM     37  O   UNL     1       0.874   1.953  18.692  0.00  0.00    +0.000 OA
ATOM     38  H   UNL     1       1.320   1.761  17.848  0.00  0.00    +0.000 HD
ENDBRANCH  36  37
ENDBRANCH  35  36
ENDBRANCH  34  35
ENDBRANCH  10  34
TORSDOF 13
ENDMDL
MODEL 6
REMARK VINA RESULT:      -7.8      1.310      1.658
REMARK  Name = 
REMARK  18 active torsions:
REMARK  status: ('A' for Active; 'I' for Inactive)
REMARK    1  A    between atoms: C_1  and  C_2
REMARK    2  A    between atoms: C_2  and  C_4
REMARK    3  A    between atoms: C_7  and  N_8
REMARK    4  A    between atoms: C_14  and  C_15
REMARK    5  A    between atoms: N_17  and  C_18
REMARK    6  A    between atoms: N_17  and  C_23
REMARK    7  A    between atoms: C_18  and  C_19
REMARK    8  A    between atoms: C_19  and  C_20
REMARK    9  A    between atoms: C_20  and  C_21
REMARK   10  A    between atoms: C_20  and  C_22
REMARK   11  A    between atoms: C_23  and  C_24
REMARK   12  A    between atoms: C_24  and  C_25
REMARK   13  A    between atoms: C_25  and  C_26
REMARK   14  A    between atoms: C_25  and  C_27
REMARK   15  A    between atoms: N_30  and  C_31
REMARK   16  A    between atoms: C_31  and  C_32
REMARK   17  A    between atoms: C_32  and  C_33
REMARK   18  A    between atoms: C_33  and  O_34
REMARK                            x       y       z     vdW  Elec       q    Type
REMARK                         _______ _______ _______ _____ _____    ______ ____
ROOT
ATOM      1  N   UNL     1       3.598   5.558  18.581  0.00  0.00    +0.000 N 
ATOM      2  C   UNL     1       2.680   6.519  18.876  0.00  0.00    +0.000 A 
ATOM      3  N   UNL     1       2.318   7.578  18.191  0.00  0.00    +0.000 NA
ATOM      4  C   UNL     1       1.612   8.361  19.062  0.00  0.00    +0.000 A 
ATOM      5  C   UNL     1       1.087   9.642  18.857  0.00  0.00    +0.000 A 
ATOM      6  C   UNL     1       0.510  10.324  19.941  0.00  0.00    +0.000 A 
ATOM      7  C   UNL     1       0.461   9.793  21.249  0.00  0.00    +0.000 A 
ATOM      8  C   UNL     1       0.973   8.484  21.431  0.00  0.00    +0.000 A 
ATOM      9  C   UNL     1       1.486   7.759  20.314  0.00  0.00    +0.000 A 
ATOM     10  N   UNL     1       1.951   6.471  20.074  0.00  0.00    +0.000 N 
ATOM     11  H   UNL     1       3.885   4.926  19.317  0.00  0.00    +0.000 HD
ENDROOT
BRANCH   1  15
ATOM     12  C   UNL     1       6.121   5.077  15.182  0.00  0.00    +0.000 A 
ATOM     13  C   UNL     1       5.847   6.362  15.661  0.00  0.00    +0.000 A 
ATOM     14  C   UNL     1       5.029   6.547  16.792  0.00  0.00    +0.000 A 
ATOM     15  C   UNL     1       4.487   5.460  17.483  0.00  0.00    +0.000 A 
ATOM     16  C   UNL     1       4.784   4.174  16.995  0.00  0.00    +0.000 A 
ATOM     17  C   UNL     1       5.587   3.983  15.865  0.00  0.00    +0.000 A 
BRANCH  12  19
ATOM     18  C   UNL     1       6.436   3.790  12.958  0.00  0.00    +0.000 C 
ATOM     19  C   UNL     1       6.932   4.808  13.954  0.00  0.00    +0.000 C 
ATOM     20  O   UNL     1       7.971   5.431  13.757  0.00  0.00    +0.000 OA
ENDBRANCH  12  19
ENDBRANCH   1  15
BRANCH   7  21
ATOM     21  C   UNL     1      -0.279  10.690  22.243  0.00  0.00    +0.000 C 
ATOM     22  O   UNL     1      -0.800  10.067  23.182  0.00  0.00    +0.000 OA
ATOM     23  N   UNL     1      -0.460  12.095  22.185  0.00  0.00    +0.000 N 
BRANCH  23  24
ATOM     24  C   UNL     1       0.108  13.017  21.202  0.00  0.00    +0.000 C 
BRANCH  24  25
ATOM     25  C   UNL     1      -0.913  13.775  20.324  0.00  0.00    +0.000 C 
BRANCH  25  26
ATOM     26  C   UNL     1      -1.069  15.293  20.551  0.00  0.00    +0.000 C 
ATOM     27  C   UNL     1      -0.789  16.113  19.302  0.00  0.00    +0.000 C 
ATOM     28  C   UNL     1      -2.496  15.613  21.011  0.00  0.00    +0.000 C 
ENDBRANCH  25  26
ENDBRANCH  24  25
ENDBRANCH  23  24
BRANCH  23  29
ATOM     29  C   UNL     1      -1.328  12.696  23.241  0.00  0.00    +0.000 C 
BRANCH  29  30
ATOM     30  C   UNL     1      -2.859  12.511  23.106  0.00  0.00    +0.000 C 
BRANCH  30  31
ATOM     31  C   UNL     1      -3.735  13.029  24.266  0.00  0.00    +0.000 C 
ATOM     32  C   UNL     1      -3.397  14.465  24.670  0.00  0.00    +0.000 C 
ATOM     33  C   UNL     1      -5.218  12.969  23.868  0.00  0.00    +0.000 C 
ENDBRANCH  30  31
ENDBRANCH  29  30
ENDBRANCH  23  29
ENDBRANCH   7  21
BRANCH  10  34
ATOM     34  C   UNL     1       1.865   5.261  20.873  0.00  0.00    +0.000 C 
BRANCH  34  35
ATOM     35  C   UNL     1       1.055   4.030  20.455  0.00  0.00    +0.000 C 
BRANCH  35  36
ATOM     36  C   UNL     1       1.786   2.694  20.497  0.00  0.00    +0.000 C 
BRANCH  36  37
ATOM     37  O   UNL     1       3.057   2.845  19.866  0.00  0.00    +0.000 OA
ATOM     38  H   UNL     1       3.551   3.542  20.334  0.00  0.00    +0.000 HD
ENDBRANCH  36  37
ENDBRANCH  35  36
ENDBRANCH  34  35
ENDBRANCH  10  34
TORSDOF 13
ENDMDL
MODEL 7
REMARK VINA RESULT:      -7.7      1.505      2.089
REMARK  Name = 
REMARK  18 active torsions:
REMARK  status: ('A' for Active; 'I' for Inactive)
REMARK    1  A    between atoms: C_1  and  C_2
REMARK    2  A    between atoms: C_2  and  C_4
REMARK    3  A    between atoms: C_7  and  N_8
REMARK    4  A    between atoms: C_14  and  C_15
REMARK    5  A    between atoms: N_17  and  C_18
REMARK    6  A    between atoms: N_17  and  C_23
REMARK    7  A    between atoms: C_18  and  C_19
REMARK    8  A    between atoms: C_19  and  C_20
REMARK    9  A    between atoms: C_20  and  C_21
REMARK   10  A    between atoms: C_20  and  C_22
REMARK   11  A    between atoms: C_23  and  C_24
REMARK   12  A    between atoms: C_24  and  C_25
REMARK   13  A    between atoms: C_25  and  C_26
REMARK   14  A    between atoms: C_25  and  C_27
REMARK   15  A    between atoms: N_30  and  C_31
REMARK   16  A    between atoms: C_31  and  C_32
REMARK   17  A    between atoms: C_32  and  C_33
REMARK   18  A    between atoms: C_33  and  O_34
REMARK                            x       y       z     vdW  Elec       q    Type
REMARK                         _______ _______ _______ _____ _____    ______ ____
ROOT
ATOM      1  N   UNL     1       4.051   5.271  18.485  0.00  0.00    +0.000 N 
ATOM      2  C   UNL     1       3.107   6.211  18.763  0.00  0.00    +0.000 A 
ATOM      3  N   UNL     1       2.727   7.256  18.066  0.00  0.00    +0.000 NA
ATOM      4  C   UNL     1       1.992   8.029  18.924  0.00  0.00    +0.000 A 
ATOM      5  C   UNL     1       1.438   9.294  18.704  0.00  0.00    +0.000 A 
ATOM      6  C   UNL     1       0.833   9.970  19.776  0.00  0.00    +0.000 A 
ATOM      7  C   UNL     1       0.783   9.447  21.088  0.00  0.00    +0.000 A 
ATOM      8  C   UNL     1       1.325   8.152  21.285  0.00  0.00    +0.000 A 
ATOM      9  C   UNL     1       1.868   7.432  20.179  0.00  0.00    +0.000 A 
ATOM     10  N   UNL     1       2.366   6.154  19.953  0.00  0.00    +0.000 N 
ATOM     11  H   UNL     1       4.346   4.652  19.229  0.00  0.00    +0.000 HD
ENDROOT
BRANCH   1  15
ATOM     12  C   UNL     1       6.563   5.021  15.053  0.00  0.00    +0.000 A 
ATOM     13  C   UNL     1       6.934   5.845  16.121  0.00  0.00    +0.000 A 
ATOM     14  C   UNL     1       6.129   5.933  17.273  0.00  0.00    +0.000 A 
ATOM     15  C   UNL     1       4.954   5.188  17.398  0.00  0.00    +0.000 A 
ATOM     16  C   UNL     1       4.603   4.355  16.319  0.00  0.00    +0.000 A 
ATOM     17  C   UNL     1       5.392   4.270  15.166  0.00  0.00    +0.000 A 
BRANCH  12  19
ATOM     18  C   UNL     1       6.895   3.935  12.727  0.00  0.00    +0.000 C 
ATOM     19  C   UNL     1       7.337   4.923  13.777  0.00  0.00    +0.000 C 
ATOM     20  O   UNL     1       8.302   5.659  13.586  0.00  0.00    +0.000 OA
ENDBRANCH  12  19
ENDBRANCH   1  15
BRANCH   7  21
ATOM     21  C   UNL     1       0.010  10.333  22.067  0.00  0.00    +0.000 C 
ATOM     22  O   UNL     1      -0.302   9.755  23.120  0.00  0.00    +0.000 OA
ATOM     23  N   UNL     1      -0.405  11.677  21.889  0.00  0.00    +0.000 N 
BRANCH  23  24
ATOM     24  C   UNL     1      -0.100  12.550  20.756  0.00  0.00    +0.000 C 
BRANCH  24  25
ATOM     25  C   UNL     1       1.163  13.429  20.907  0.00  0.00    +0.000 C 
BRANCH  25  26
ATOM     26  C   UNL     1       1.135  14.840  20.284  0.00  0.00    +0.000 C 
ATOM     27  C   UNL     1      -0.270  15.321  19.962  0.00  0.00    +0.000 C 
ATOM     28  C   UNL     1       1.767  15.852  21.246  0.00  0.00    +0.000 C 
ENDBRANCH  25  26
ENDBRANCH  24  25
ENDBRANCH  23  24
BRANCH  23  29
ATOM     29  C   UNL     1      -1.248  12.260  22.975  0.00  0.00    +0.000 C 
BRANCH  29  30
ATOM     30  C   UNL     1      -2.024  13.563  22.662  0.00  0.00    +0.000 C 
BRANCH  30  31
ATOM     31  C   UNL     1      -3.430  13.710  23.282  0.00  0.00    +0.000 C 
ATOM     32  C   UNL     1      -3.839  12.498  24.120  0.00  0.00    +0.000 C 
ATOM     33  C   UNL     1      -3.481  14.961  24.172  0.00  0.00    +0.000 C 
ENDBRANCH  30  31
ENDBRANCH  29  30
ENDBRANCH  23  29
ENDBRANCH   7  21
BRANCH  10  34
ATOM     34  C   UNL     1       2.302   4.948  20.760  0.00  0.00    +0.000 C 
BRANCH  34  35
ATOM     35  C   UNL     1       1.185   3.908  20.635  0.00  0.00    +0.000 C 
BRANCH  35  36
ATOM     36  C   UNL     1       1.412   2.583  21.351  0.00  0.00    +0.000 C 
BRANCH  36  37
ATOM     37  O   UNL     1       2.511   2.728  22.250  0.00  0.00    +0.000 OA
ATOM     38  H   UNL     1       2.572   1.922  22.793  0.00  0.00    +0.000 HD
ENDBRANCH  36  37
ENDBRANCH  35  36
ENDBRANCH  34  35
ENDBRANCH  10  34
TORSDOF 13
ENDMDL
MODEL 8
REMARK VINA RESULT:      -7.7      1.494      1.963
REMARK  Name = 
REMARK  18 active torsions:
REMARK  status: ('A' for Active; 'I' for Inactive)
REMARK    1  A    between atoms: C_1  and  C_2
REMARK    2  A    between atoms: C_2  and  C_4
REMARK    3  A    between atoms: C_7  and  N_8
REMARK    4  A    between atoms: C_14  and  C_15
REMARK    5  A    between atoms: N_17  and  C_18
REMARK    6  A    between atoms: N_17  and  C_23
REMARK    7  A    between atoms: C_18  and  C_19
REMARK    8  A    between atoms: C_19  and  C_20
REMARK    9  A    between atoms: C_20  and  C_21
REMARK   10  A    between atoms: C_20  and  C_22
REMARK   11  A    between atoms: C_23  and  C_24
REMARK   12  A    between atoms: C_24  and  C_25
REMARK   13  A    between atoms: C_25  and  C_26
REMARK   14  A    between atoms: C_25  and  C_27
REMARK   15  A    between atoms: N_30  and  C_31
REMARK   16  A    between atoms: C_31  and  C_32
REMARK   17  A    between atoms: C_32  and  C_33
REMARK   18  A    between atoms: C_33  and  O_34
REMARK                            x       y       z     vdW  Elec       q    Type
REMARK                         _______ _______ _______ _____ _____    ______ ____
ROOT
ATOM      1  N   UNL     1       3.846   5.520  18.586  0.00  0.00    +0.000 N 
ATOM      2  C   UNL     1       2.878   6.431  18.880  0.00  0.00    +0.000 A 
ATOM      3  N   UNL     1       2.417   7.431  18.166  0.00  0.00    +0.000 NA
ATOM      4  C   UNL     1       1.696   8.206  19.034  0.00  0.00    +0.000 A 
ATOM      5  C   UNL     1       1.077   9.438  18.796  0.00  0.00    +0.000 A 
ATOM      6  C   UNL     1       0.501  10.130  19.874  0.00  0.00    +0.000 A 
ATOM      7  C   UNL     1       0.542   9.657  21.205  0.00  0.00    +0.000 A 
ATOM      8  C   UNL     1       1.149   8.395  21.421  0.00  0.00    +0.000 A 
ATOM      9  C   UNL     1       1.664   7.654  20.314  0.00  0.00    +0.000 A 
ATOM     10  N   UNL     1       2.204   6.390  20.110  0.00  0.00    +0.000 N 
ATOM     11  H   UNL     1       4.206   4.943  19.336  0.00  0.00    +0.000 HD
ENDROOT
BRANCH   1  15
ATOM     12  C   UNL     1       6.242   5.061  15.095  0.00  0.00    +0.000 A 
ATOM     13  C   UNL     1       5.969   6.344  15.579  0.00  0.00    +0.000 A 
ATOM     14  C   UNL     1       5.193   6.522  16.741  0.00  0.00    +0.000 A 
ATOM     15  C   UNL     1       4.693   5.431  17.456  0.00  0.00    +0.000 A 
ATOM     16  C   UNL     1       4.989   4.147  16.960  0.00  0.00    +0.000 A 
ATOM     17  C   UNL     1       5.750   3.963  15.800  0.00  0.00    +0.000 A 
BRANCH  12  19
ATOM     18  C   UNL     1       6.486   3.775  12.861  0.00  0.00    +0.000 C 
ATOM     19  C   UNL     1       7.009   4.800  13.837  0.00  0.00    +0.000 C 
ATOM     20  O   UNL     1       8.034   5.433  13.600  0.00  0.00    +0.000 OA
ENDBRANCH  12  19
ENDBRANCH   1  15
BRANCH   7  21
ATOM     21  C   UNL     1      -0.215  10.549  22.191  0.00  0.00    +0.000 C 
ATOM     22  O   UNL     1      -0.564   9.960  23.227  0.00  0.00    +0.000 OA
ATOM     23  N   UNL     1      -0.582  11.910  22.035  0.00  0.00    +0.000 N 
BRANCH  23  24
ATOM     24  C   UNL     1      -0.229  12.796  20.927  0.00  0.00    +0.000 C 
BRANCH  24  25
ATOM     25  C   UNL     1       1.124  13.531  21.060  0.00  0.00    +0.000 C 
BRANCH  25  26
ATOM     26  C   UNL     1       1.790  14.051  19.769  0.00  0.00    +0.000 C 
ATOM     27  C   UNL     1       1.222  13.415  18.510  0.00  0.00    +0.000 C 
ATOM     28  C   UNL     1       1.601  15.567  19.654  0.00  0.00    +0.000 C 
ENDBRANCH  25  26
ENDBRANCH  24  25
ENDBRANCH  23  24
BRANCH  23  29
ATOM     29  C   UNL     1      -1.422  12.499  23.120  0.00  0.00    +0.000 C 
BRANCH  29  30
ATOM     30  C   UNL     1      -2.914  12.769  22.810  0.00  0.00    +0.000 C 
BRANCH  30  31
ATOM     31  C   UNL     1      -3.747  13.460  23.909  0.00  0.00    +0.000 C 
ATOM     32  C   UNL     1      -4.842  14.366  23.345  0.00  0.00    +0.000 C 
ATOM     33  C   UNL     1      -4.403  12.402  24.810  0.00  0.00    +0.000 C 
ENDBRANCH  30  31
ENDBRANCH  29  30
ENDBRANCH  23  29
ENDBRANCH   7  21
BRANCH  10  34
ATOM     34  C   UNL     1       2.234   5.216  20.964  0.00  0.00    +0.000 C 
BRANCH  34  35
ATOM     35  C   UNL     1       1.280   4.029  20.799  0.00  0.00    +0.000 C 
BRANCH  35  36
ATOM     36  C   UNL     1       1.083   3.512  19.379  0.00  0.00    +0.000 C 
BRANCH  36  37
ATOM     37  O   UNL     1       0.020   2.559  19.380  0.00  0.00    +0.000 OA
ATOM     38  H   UNL     1       0.395   1.680  19.193  0.00  0.00    +0.000 HD
ENDBRANCH  36  37
ENDBRANCH  35  36
ENDBRANCH  34  35
ENDBRANCH  10  34
TORSDOF 13
ENDMDL
MODEL 9
REMARK VINA RESULT:      -7.7      1.280      1.865
REMARK  Name = 
REMARK  18 active torsions:
REMARK  status: ('A' for Active; 'I' for Inactive)
REMARK    1  A    between atoms: C_1  and  C_2
REMARK    2  A    between atoms: C_2  and  C_4
REMARK    3  A    between atoms: C_7  and  N_8
REMARK    4  A    between atoms: C_14  and  C_15
REMARK    5  A    between atoms: N_17  and  C_18
REMARK    6  A    between atoms: N_17  and  C_23
REMARK    7  A    between atoms: C_18  and  C_19
REMARK    8  A    between atoms: C_19  and  C_20
REMARK    9  A    between atoms: C_20  and  C_21
REMARK   10  A    between atoms: C_20  and  C_22
REMARK   11  A    between atoms: C_23  and  C_24
REMARK   12  A    between atoms: C_24  and  C_25
REMARK   13  A    between atoms: C_25  and  C_26
REMARK   14  A    between atoms: C_25  and  C_27
REMARK   15  A    between atoms: N_30  and  C_31
REMARK   16  A    between atoms: C_31  and  C_32
REMARK   17  A    between atoms: C_32  and  C_33
REMARK   18  A    between atoms: C_33  and  O_34
REMARK                            x       y       z     vdW  Elec       q    Type
REMARK                         _______ _______ _______ _____ _____    ______ ____
ROOT
ATOM      1  N   UNL     1       4.063   5.352  18.522  0.00  0.00    +0.000 N 
ATOM      2  C   UNL     1       3.106   6.288  18.767  0.00  0.00    +0.000 A 
ATOM      3  N   UNL     1       2.706   7.298  18.030  0.00  0.00    +0.000 NA
ATOM      4  C   UNL     1       1.964   8.093  18.860  0.00  0.00    +0.000 A 
ATOM      5  C   UNL     1       1.390   9.340  18.591  0.00  0.00    +0.000 A 
ATOM      6  C   UNL     1       0.780  10.050  19.638  0.00  0.00    +0.000 A 
ATOM      7  C   UNL     1       0.744   9.581  20.970  0.00  0.00    +0.000 A 
ATOM      8  C   UNL     1       1.307   8.304  21.217  0.00  0.00    +0.000 A 
ATOM      9  C   UNL     1       1.855   7.547  20.138  0.00  0.00    +0.000 A 
ATOM     10  N   UNL     1       2.371   6.269  19.963  0.00  0.00    +0.000 N 
ATOM     11  H   UNL     1       4.370   4.767  19.290  0.00  0.00    +0.000 HD
ENDROOT
BRANCH   1  15
ATOM     12  C   UNL     1       6.564   5.035  15.089  0.00  0.00    +0.000 A 
ATOM     13  C   UNL     1       7.003   5.767  16.197  0.00  0.00    +0.000 A 
ATOM     14  C   UNL     1       6.202   5.874  17.350  0.00  0.00    +0.000 A 
ATOM     15  C   UNL     1       4.961   5.237  17.435  0.00  0.00    +0.000 A 
ATOM     16  C   UNL     1       4.542   4.494  16.315  0.00  0.00    +0.000 A 
ATOM     17  C   UNL     1       5.327   4.393  15.162  0.00  0.00    +0.000 A 
BRANCH  12  19
ATOM     18  C   UNL     1       6.901   3.919  12.778  0.00  0.00    +0.000 C 
ATOM     19  C   UNL     1       7.335   4.928  13.812  0.00  0.00    +0.000 C 
ATOM     20  O   UNL     1       8.290   5.672  13.607  0.00  0.00    +0.000 OA
ENDBRANCH  12  19
ENDBRANCH   1  15
BRANCH   7  21
ATOM     21  C   UNL     1      -0.037  10.494  21.917  0.00  0.00    +0.000 C 
ATOM     22  O   UNL     1      -0.740   9.879  22.734  0.00  0.00    +0.000 OA
ATOM     23  N   UNL     1      -0.074  11.912  21.931  0.00  0.00    +0.000 N 
BRANCH  23  24
ATOM     24  C   UNL     1       0.709  12.822  21.096  0.00  0.00    +0.000 C 
BRANCH  24  25
ATOM     25  C   UNL     1      -0.101  13.688  20.104  0.00  0.00    +0.000 C 
BRANCH  25  26
ATOM     26  C   UNL     1       0.261  15.184  19.995  0.00  0.00    +0.000 C 
ATOM     27  C   UNL     1      -0.509  15.903  18.899  0.00  0.00    +0.000 C 
ATOM     28  C   UNL     1      -0.035  15.895  21.320  0.00  0.00    +0.000 C 
ENDBRANCH  25  26
ENDBRANCH  24  25
ENDBRANCH  23  24
BRANCH  23  29
ATOM     29  C   UNL     1      -1.018  12.542  22.902  0.00  0.00    +0.000 C 
BRANCH  29  30
ATOM     30  C   UNL     1      -2.498  12.091  22.862  0.00  0.00    +0.000 C 
BRANCH  30  31
ATOM     31  C   UNL     1      -3.485  12.986  22.083  0.00  0.00    +0.000 C 
ATOM     32  C   UNL     1      -3.240  14.478  22.311  0.00  0.00    +0.000 C 
ATOM     33  C   UNL     1      -3.377  12.697  20.578  0.00  0.00    +0.000 C 
ENDBRANCH  30  31
ENDBRANCH  29  30
ENDBRANCH  23  29
ENDBRANCH   7  21
BRANCH  10  34
ATOM     34  C   UNL     1       2.329   5.096  20.819  0.00  0.00    +0.000 C 
BRANCH  34  35
ATOM     35  C   UNL     1       1.447   3.876  20.536  0.00  0.00    +0.000 C 
BRANCH  35  36
ATOM     36  C   UNL     1       1.345   2.842  21.650  0.00  0.00    +0.000 C 
BRANCH  36  37
ATOM     37  O   UNL     1       2.664   2.470  22.053  0.00  0.00    +0.000 OA
ATOM     38  H   UNL     1       2.605   1.648  22.571  0.00  0.00    +0.000 HD
ENDBRANCH  36  37
ENDBRANCH  35  36
ENDBRANCH  34  35
ENDBRANCH  10  34
TORSDOF 13
ENDMDL
