MODEL 1
REMARK VINA RESULT:      -7.3      0.000      0.000
REMARK  Name = 
REMARK  5 active torsions:
REMARK  status: ('A' for Active; 'I' for Inactive)
REMARK    1  A    between atoms: C_1  and  C_2
REMARK    2  A    between atoms: C_2  and  N_3
REMARK    3  A    between atoms: C_2  and  C_16
REMARK    4  A    between atoms: C_4  and  C_6
REMARK    5  A    between atoms: N_18  and  O_19
REMARK                            x       y       z     vdW  Elec       q    Type
REMARK                         _______ _______ _______ _____ _____    ______ ____
ROOT
ATOM      1  N   UNL     1       3.707   4.416  18.078  0.00  0.00    +0.000 N 
ATOM      2  C   UNL     1       4.116   5.661  17.666  0.00  0.00    +0.000 C 
ATOM      3  O   UNL     1       3.923   6.674  18.334  0.00  0.00    +0.000 OA
ATOM      4  H   UNL     1       3.974   3.628  17.486  0.00  0.00    +0.000 HD
ENDROOT
BRANCH   2   5
ATOM      5  C   UNL     1       4.819   5.698  16.298  0.00  0.00    +0.000 C 
ATOM      6  C   UNL     1       4.799   4.276  15.702  0.00  0.00    +0.000 C 
ATOM      7  C   UNL     1       5.641   4.243  14.454  0.00  0.00    +0.000 A 
ATOM      8  C   UNL     1       5.267   3.546  13.304  0.00  0.00    +0.000 A 
ATOM      9  C   UNL     1       6.102   3.561  12.188  0.00  0.00    +0.000 A 
ATOM     10  C   UNL     1       7.315   4.258  12.226  0.00  0.00    +0.000 A 
ATOM     11  C   UNL     1       7.699   4.938  13.381  0.00  0.00    +0.000 A 
ATOM     12  C   UNL     1       6.863   4.938  14.502  0.00  0.00    +0.000 A 
ATOM     13  C   UNL     1       7.247   5.586  15.805  0.00  0.00    +0.000 C 
ATOM     14  N   UNL     1       6.159   6.360  16.415  0.00  0.00    +0.000 NA
ATOM     15  H   UNL     1       6.095   7.255  15.926  0.00  0.00    +0.000 HD
ENDBRANCH   2   5
BRANCH   1  17
ATOM     16  C   UNL     1       1.508   3.984  19.057  0.00  0.00    +0.000 C 
ATOM     17  C   UNL     1       2.996   4.194  19.325  0.00  0.00    +0.000 C 
BRANCH  17  18
ATOM     18  C   UNL     1       3.597   2.999  20.084  0.00  0.00    +0.000 C 
ATOM     19  O   UNL     1       3.092   2.499  21.091  0.00  0.00    +0.000 OA
ATOM     20  N   UNL     1       4.752   2.494  19.533  0.00  0.00    +0.000 N 
ATOM     21  H   UNL     1       5.291   2.937  18.797  0.00  0.00    +0.000 HD
BRANCH  20  22
ATOM     22  O   UNL     1       5.370   1.423  20.214  0.00  0.00    +0.000 OA
ATOM     23  H   UNL     1       4.771   1.289  20.982  0.00  0.00    +0.000 HD
ENDBRANCH  20  22
ENDBRANCH  17  18
ENDBRANCH   1  17
TORSDOF 4
ENDMDL
MODEL 2
REMARK VINA RESULT:      -7.2      3.252      6.724
REMARK  Name = 
REMARK  5 active torsions:
REMARK  status: ('A' for Active; 'I' for Inactive)
REMARK    1  A    between atoms: C_1  and  C_2
REMARK    2  A    between atoms: C_2  and  N_3
REMARK    3  A    between atoms: C_2  and  C_16
REMARK    4  A    between atoms: C_4  and  C_6
REMARK    5  A    between atoms: N_18  and  O_19
REMARK                            x       y       z     vdW  Elec       q    Type
REMARK                         _______ _______ _______ _____ _____    ______ ____
ROOT
ATOM      1  N   UNL     1       4.919   4.968  15.946  0.00  0.00    +0.000 N 
ATOM      2  C   UNL     1       4.247   4.343  16.967  0.00  0.00    +0.000 C 
ATOM      3  O   UNL     1       4.463   3.175  17.283  0.00  0.00    +0.000 OA
ATOM      4  H   UNL     1       4.716   5.959  15.805  0.00  0.00    +0.000 HD
ENDROOT
BRANCH   2   5
ATOM      5  C   UNL     1       3.188   5.205  17.677  0.00  0.00    +0.000 C 
ATOM      6  C   UNL     1       3.590   6.687  17.531  0.00  0.00    +0.000 C 
ATOM      7  C   UNL     1       2.678   7.539  18.372  0.00  0.00    +0.000 A 
ATOM      8  C   UNL     1       2.177   8.770  17.942  0.00  0.00    +0.000 A 
ATOM      9  C   UNL     1       1.339   9.503  18.780  0.00  0.00    +0.000 A 
ATOM     10  C   UNL     1       1.014   9.017  20.051  0.00  0.00    +0.000 A 
ATOM     11  C   UNL     1       1.529   7.797  20.490  0.00  0.00    +0.000 A 
ATOM     12  C   UNL     1       2.362   7.050  19.652  0.00  0.00    +0.000 A 
ATOM     13  C   UNL     1       3.014   5.764  20.088  0.00  0.00    +0.000 C 
ATOM     14  N   UNL     1       2.954   4.706  19.071  0.00  0.00    +0.000 NA
ATOM     15  H   UNL     1       2.016   4.301  19.092  0.00  0.00    +0.000 HD
ENDBRANCH   2   5
BRANCH   1  17
ATOM     16  C   UNL     1       5.353   3.923  13.779  0.00  0.00    +0.000 C 
ATOM     17  C   UNL     1       5.927   4.299  15.142  0.00  0.00    +0.000 C 
BRANCH  17  18
ATOM     18  C   UNL     1       7.175   5.185  14.994  0.00  0.00    +0.000 C 
ATOM     19  O   UNL     1       7.675   5.829  15.918  0.00  0.00    +0.000 OA
ATOM     20  N   UNL     1       7.727   5.190  13.734  0.00  0.00    +0.000 N 
ATOM     21  H   UNL     1       7.294   4.799  12.904  0.00  0.00    +0.000 HD
BRANCH  20  22
ATOM     22  O   UNL     1       8.850   6.021  13.532  0.00  0.00    +0.000 OA
ATOM     23  H   UNL     1       9.007   6.386  14.431  0.00  0.00    +0.000 HD
ENDBRANCH  20  22
ENDBRANCH  17  18
ENDBRANCH   1  17
TORSDOF 4
ENDMDL
MODEL 3
REMARK VINA RESULT:      -7.2      3.582      6.484
REMARK  Name = 
REMARK  5 active torsions:
REMARK  status: ('A' for Active; 'I' for Inactive)
REMARK    1  A    between atoms: C_1  and  C_2
REMARK    2  A    between atoms: C_2  and  N_3
REMARK    3  A    between atoms: C_2  and  C_16
REMARK    4  A    between atoms: C_4  and  C_6
REMARK    5  A    between atoms: N_18  and  O_19
REMARK                            x       y       z     vdW  Elec       q    Type
REMARK                         _______ _______ _______ _____ _____    ______ ____
ROOT
ATOM      1  N   UNL     1       4.724   5.088  17.656  0.00  0.00    +0.000 N 
ATOM      2  C   UNL     1       3.403   4.711  17.664  0.00  0.00    +0.000 C 
ATOM      3  O   UNL     1       3.029   3.609  17.270  0.00  0.00    +0.000 OA
ATOM      4  H   UNL     1       4.941   5.998  18.066  0.00  0.00    +0.000 HD
ENDROOT
BRANCH   2   5
ATOM      5  C   UNL     1       2.422   5.776  18.186  0.00  0.00    +0.000 C 
ATOM      6  C   UNL     1       3.009   7.169  17.880  0.00  0.00    +0.000 C 
ATOM      7  C   UNL     1       2.166   8.225  18.544  0.00  0.00    +0.000 A 
ATOM      8  C   UNL     1       1.841   9.435  17.928  0.00  0.00    +0.000 A 
ATOM      9  C   UNL     1       1.057  10.366  18.609  0.00  0.00    +0.000 A 
ATOM     10  C   UNL     1       0.611  10.094  19.907  0.00  0.00    +0.000 A 
ATOM     11  C   UNL     1       0.951   8.894  20.530  0.00  0.00    +0.000 A 
ATOM     12  C   UNL     1       1.728   7.950  19.852  0.00  0.00    +0.000 A 
ATOM     13  C   UNL     1       2.195   6.669  20.489  0.00  0.00    +0.000 C 
ATOM     14  N   UNL     1       2.059   5.498  19.614  0.00  0.00    +0.000 NA
ATOM     15  H   UNL     1       1.079   5.208  19.624  0.00  0.00    +0.000 HD
ENDBRANCH   2   5
BRANCH   1  17
ATOM     16  C   UNL     1       5.919   4.364  15.649  0.00  0.00    +0.000 C 
ATOM     17  C   UNL     1       5.785   4.227  17.163  0.00  0.00    +0.000 C 
BRANCH  17  18
ATOM     18  C   UNL     1       7.113   4.550  17.869  0.00  0.00    +0.000 C 
ATOM     19  O   UNL     1       8.222   4.368  17.364  0.00  0.00    +0.000 OA
ATOM     20  N   UNL     1       6.976   5.096  19.124  0.00  0.00    +0.000 N 
ATOM     21  H   UNL     1       6.110   5.145  19.650  0.00  0.00    +0.000 HD
BRANCH  20  22
ATOM     22  O   UNL     1       8.164   5.372  19.834  0.00  0.00    +0.000 OA
ATOM     23  H   UNL     1       8.830   5.438  19.114  0.00  0.00    +0.000 HD
ENDBRANCH  20  22
ENDBRANCH  17  18
ENDBRANCH   1  17
TORSDOF 4
ENDMDL
MODEL 4
REMARK VINA RESULT:      -7.1      3.256      6.547
REMARK  Name = 
REMARK  5 active torsions:
REMARK  status: ('A' for Active; 'I' for Inactive)
REMARK    1  A    between atoms: C_1  and  C_2
REMARK    2  A    between atoms: C_2  and  N_3
REMARK    3  A    between atoms: C_2  and  C_16
REMARK    4  A    between atoms: C_4  and  C_6
REMARK    5  A    between atoms: N_18  and  O_19
REMARK                            x       y       z     vdW  Elec       q    Type
REMARK                         _______ _______ _______ _____ _____    ______ ____
ROOT
ATOM      1  N   UNL     1       5.305   4.430  14.893  0.00  0.00    +0.000 N 
ATOM      2  C   UNL     1       5.166   5.428  15.825  0.00  0.00    +0.000 C 
ATOM      3  O   UNL     1       5.563   6.575  15.630  0.00  0.00    +0.000 OA
ATOM      4  H   UNL     1       4.883   3.529  15.122  0.00  0.00    +0.000 HD
ENDROOT
BRANCH   2   5
ATOM      5  C   UNL     1       4.492   5.003  17.142  0.00  0.00    +0.000 C 
ATOM      6  C   UNL     1       3.436   3.925  16.822  0.00  0.00    +0.000 C 
ATOM      7  C   UNL     1       2.634   3.627  18.060  0.00  0.00    +0.000 A 
ATOM      8  C   UNL     1       2.248   2.335  18.422  0.00  0.00    +0.000 A 
ATOM      9  C   UNL     1       1.501   2.139  19.583  0.00  0.00    +0.000 A 
ATOM     10  C   UNL     1       1.129   3.232  20.373  0.00  0.00    +0.000 A 
ATOM     11  C   UNL     1       1.497   4.525  20.002  0.00  0.00    +0.000 A 
ATOM     12  C   UNL     1       2.254   4.731  18.845  0.00  0.00    +0.000 A 
ATOM     13  C   UNL     1       2.622   6.102  18.345  0.00  0.00    +0.000 C 
ATOM     14  N   UNL     1       4.017   6.206  17.900  0.00  0.00    +0.000 NA
ATOM     15  H   UNL     1       4.608   6.292  18.729  0.00  0.00    +0.000 HD
ENDBRANCH   2   5
BRANCH   1  17
ATOM     16  C   UNL     1       7.466   4.682  13.776  0.00  0.00    +0.000 C 
ATOM     17  C   UNL     1       5.950   4.638  13.607  0.00  0.00    +0.000 C 
BRANCH  17  18
ATOM     18  C   UNL     1       5.534   3.543  12.612  0.00  0.00    +0.000 C 
ATOM     19  O   UNL     1       4.418   3.472  12.093  0.00  0.00    +0.000 OA
ATOM     20  N   UNL     1       6.525   2.638  12.309  0.00  0.00    +0.000 N 
ATOM     21  H   UNL     1       7.410   2.555  12.797  0.00  0.00    +0.000 HD
BRANCH  20  22
ATOM     22  O   UNL     1       6.183   1.585  11.433  0.00  0.00    +0.000 OA
ATOM     23  H   UNL     1       5.468   1.125  11.926  0.00  0.00    +0.000 HD
ENDBRANCH  20  22
ENDBRANCH  17  18
ENDBRANCH   1  17
TORSDOF 4
ENDMDL
MODEL 5
REMARK VINA RESULT:      -7.0      4.070      7.028
REMARK  Name = 
REMARK  5 active torsions:
REMARK  status: ('A' for Active; 'I' for Inactive)
REMARK    1  A    between atoms: C_1  and  C_2
REMARK    2  A    between atoms: C_2  and  N_3
REMARK    3  A    between atoms: C_2  and  C_16
REMARK    4  A    between atoms: C_4  and  C_6
REMARK    5  A    between atoms: N_18  and  O_19
REMARK                            x       y       z     vdW  Elec       q    Type
REMARK                         _______ _______ _______ _____ _____    ______ ____
ROOT
ATOM      1  N   UNL     1       4.451   6.134  17.944  0.00  0.00    +0.000 N 
ATOM      2  C   UNL     1       3.635   5.695  18.957  0.00  0.00    +0.000 C 
ATOM      3  O   UNL     1       3.887   4.693  19.621  0.00  0.00    +0.000 OA
ATOM      4  H   UNL     1       4.191   7.014  17.496  0.00  0.00    +0.000 HD
ENDROOT
BRANCH   2   5
ATOM      5  C   UNL     1       2.369   6.539  19.189  0.00  0.00    +0.000 C 
ATOM      6  C   UNL     1       2.567   7.910  18.509  0.00  0.00    +0.000 C 
ATOM      7  C   UNL     1       1.427   8.821  18.877  0.00  0.00    +0.000 A 
ATOM      8  C   UNL     1       0.820   9.686  17.964  0.00  0.00    +0.000 A 
ATOM      9  C   UNL     1      -0.229  10.503  18.382  0.00  0.00    +0.000 A 
ATOM     10  C   UNL     1      -0.661  10.467  19.711  0.00  0.00    +0.000 A 
ATOM     11  C   UNL     1      -0.043   9.619  20.630  0.00  0.00    +0.000 A 
ATOM     12  C   UNL     1       1.003   8.789  20.218  0.00  0.00    +0.000 A 
ATOM     13  C   UNL     1       1.765   7.905  21.169  0.00  0.00    +0.000 C 
ATOM     14  N   UNL     1       2.009   6.556  20.644  0.00  0.00    +0.000 NA
ATOM     15  H   UNL     1       1.148   6.016  20.747  0.00  0.00    +0.000 HD
ENDBRANCH   2   5
BRANCH   1  17
ATOM     16  C   UNL     1       5.976   5.690  16.085  0.00  0.00    +0.000 C 
ATOM     17  C   UNL     1       5.670   5.443  17.559  0.00  0.00    +0.000 C 
BRANCH  17  18
ATOM     18  C   UNL     1       6.843   5.881  18.451  0.00  0.00    +0.000 C 
ATOM     19  O   UNL     1       7.597   6.819  18.184  0.00  0.00    +0.000 OA
ATOM     20  N   UNL     1       6.984   5.155  19.611  0.00  0.00    +0.000 N 
ATOM     21  H   UNL     1       6.493   4.293  19.825  0.00  0.00    +0.000 HD
BRANCH  20  22
ATOM     22  O   UNL     1       8.072   5.487  20.445  0.00  0.00    +0.000 OA
ATOM     23  H   UNL     1       8.589   4.652  20.461  0.00  0.00    +0.000 HD
ENDBRANCH  20  22
ENDBRANCH  17  18
ENDBRANCH   1  17
TORSDOF 4
ENDMDL
MODEL 6
REMARK VINA RESULT:      -6.9      4.890      6.933
REMARK  Name = 
REMARK  5 active torsions:
REMARK  status: ('A' for Active; 'I' for Inactive)
REMARK    1  A    between atoms: C_1  and  C_2
REMARK    2  A    between atoms: C_2  and  N_3
REMARK    3  A    between atoms: C_2  and  C_16
REMARK    4  A    between atoms: C_4  and  C_6
REMARK    5  A    between atoms: N_18  and  O_19
REMARK                            x       y       z     vdW  Elec       q    Type
REMARK                         _______ _______ _______ _____ _____    ______ ____
ROOT
ATOM      1  N   UNL     1       1.344   8.795  19.826  0.00  0.00    +0.000 N 
ATOM      2  C   UNL     1       2.140   8.242  18.854  0.00  0.00    +0.000 C 
ATOM      3  O   UNL     1       2.484   8.863  17.850  0.00  0.00    +0.000 OA
ATOM      4  H   UNL     1       1.169   8.222  20.654  0.00  0.00    +0.000 HD
ENDROOT
BRANCH   2   5
ATOM      5  C   UNL     1       2.557   6.782  19.101  0.00  0.00    +0.000 C 
ATOM      6  C   UNL     1       1.952   5.907  17.984  0.00  0.00    +0.000 C 
ATOM      7  C   UNL     1       2.185   4.455  18.302  0.00  0.00    +0.000 A 
ATOM      8  C   UNL     1       2.546   3.513  17.336  0.00  0.00    +0.000 A 
ATOM      9  C   UNL     1       2.740   2.184  17.709  0.00  0.00    +0.000 A 
ATOM     10  C   UNL     1       2.561   1.793  19.040  0.00  0.00    +0.000 A 
ATOM     11  C   UNL     1       2.181   2.728  20.002  0.00  0.00    +0.000 A 
ATOM     12  C   UNL     1       1.993   4.065  19.640  0.00  0.00    +0.000 A 
ATOM     13  C   UNL     1       1.511   5.112  20.609  0.00  0.00    +0.000 C 
ATOM     14  N   UNL     1       2.245   6.380  20.512  0.00  0.00    +0.000 NA
ATOM     15  H   UNL     1       3.138   6.266  20.996  0.00  0.00    +0.000 HD
ENDBRANCH   2   5
BRANCH   1  17
ATOM     16  C   UNL     1      -0.484  10.168  18.959  0.00  0.00    +0.000 C 
ATOM     17  C   UNL     1       0.825  10.149  19.744  0.00  0.00    +0.000 C 
BRANCH  17  18
ATOM     18  C   UNL     1       0.638  10.742  21.150  0.00  0.00    +0.000 C 
ATOM     19  O   UNL     1       0.959  11.891  21.461  0.00  0.00    +0.000 OA
ATOM     20  N   UNL     1       0.047   9.892  22.056  0.00  0.00    +0.000 N 
ATOM     21  H   UNL     1      -0.114   8.901  21.909  0.00  0.00    +0.000 HD
BRANCH  20  22
ATOM     22  O   UNL     1      -0.109  10.371  23.374  0.00  0.00    +0.000 OA
ATOM     23  H   UNL     1       0.304  11.261  23.325  0.00  0.00    +0.000 HD
ENDBRANCH  20  22
ENDBRANCH  17  18
ENDBRANCH   1  17
TORSDOF 4
ENDMDL
MODEL 7
REMARK VINA RESULT:      -6.8      3.223      6.756
REMARK  Name = 
REMARK  5 active torsions:
REMARK  status: ('A' for Active; 'I' for Inactive)
REMARK    1  A    between atoms: C_1  and  C_2
REMARK    2  A    between atoms: C_2  and  N_3
REMARK    3  A    between atoms: C_2  and  C_16
REMARK    4  A    between atoms: C_4  and  C_6
REMARK    5  A    between atoms: N_18  and  O_19
REMARK                            x       y       z     vdW  Elec       q    Type
REMARK                         _______ _______ _______ _____ _____    ______ ____
ROOT
ATOM      1  N   UNL     1       5.710   4.101  14.980  0.00  0.00    +0.000 N 
ATOM      2  C   UNL     1       5.015   4.800  15.936  0.00  0.00    +0.000 C 
ATOM      3  O   UNL     1       4.948   6.027  15.939  0.00  0.00    +0.000 OA
ATOM      4  H   UNL     1       5.650   3.082  15.025  0.00  0.00    +0.000 HD
ENDROOT
BRANCH   2   5
ATOM      5  C   UNL     1       4.339   3.937  17.016  0.00  0.00    +0.000 C 
ATOM      6  C   UNL     1       3.111   4.701  17.551  0.00  0.00    +0.000 C 
ATOM      7  C   UNL     1       2.541   3.967  18.735  0.00  0.00    +0.000 A 
ATOM      8  C   UNL     1       1.169   3.817  18.947  0.00  0.00    +0.000 A 
ATOM      9  C   UNL     1       0.717   3.126  20.071  0.00  0.00    +0.000 A 
ATOM     10  C   UNL     1       1.633   2.599  20.988  0.00  0.00    +0.000 A 
ATOM     11  C   UNL     1       3.003   2.765  20.787  0.00  0.00    +0.000 A 
ATOM     12  C   UNL     1       3.466   3.447  19.658  0.00  0.00    +0.000 A 
ATOM     13  C   UNL     1       4.925   3.729  19.417  0.00  0.00    +0.000 C 
ATOM     14  N   UNL     1       5.345   3.485  18.031  0.00  0.00    +0.000 NA
ATOM     15  H   UNL     1       5.464   2.478  17.909  0.00  0.00    +0.000 HD
ENDBRANCH   2   5
BRANCH   1  17
ATOM     16  C   UNL     1       7.823   5.180  14.389  0.00  0.00    +0.000 C 
ATOM     17  C   UNL     1       6.441   4.750  13.906  0.00  0.00    +0.000 C 
BRANCH  17  18
ATOM     18  C   UNL     1       6.544   3.821  12.685  0.00  0.00    +0.000 C 
ATOM     19  O   UNL     1       7.215   4.073  11.683  0.00  0.00    +0.000 OA
ATOM     20  N   UNL     1       5.839   2.644  12.800  0.00  0.00    +0.000 N 
ATOM     21  H   UNL     1       5.163   2.436  13.527  0.00  0.00    +0.000 HD
BRANCH  20  22
ATOM     22  O   UNL     1       5.864   1.774  11.689  0.00  0.00    +0.000 OA
ATOM     23  H   UNL     1       6.685   2.049  11.224  0.00  0.00    +0.000 HD
ENDBRANCH  20  22
ENDBRANCH  17  18
ENDBRANCH   1  17
TORSDOF 4
ENDMDL
MODEL 8
REMARK VINA RESULT:      -6.8      4.631      6.723
REMARK  Name = 
REMARK  5 active torsions:
REMARK  status: ('A' for Active; 'I' for Inactive)
REMARK    1  A    between atoms: C_1  and  C_2
REMARK    2  A    between atoms: C_2  and  N_3
REMARK    3  A    between atoms: C_2  and  C_16
REMARK    4  A    between atoms: C_4  and  C_6
REMARK    5  A    between atoms: N_18  and  O_19
REMARK                            x       y       z     vdW  Elec       q    Type
REMARK                         _______ _______ _______ _____ _____    ______ ____
ROOT
ATOM      1  N   UNL     1       1.244   9.196  19.276  0.00  0.00    +0.000 N 
ATOM      2  C   UNL     1       1.560   8.147  20.103  0.00  0.00    +0.000 C 
ATOM      3  O   UNL     1       1.082   8.025  21.228  0.00  0.00    +0.000 OA
ATOM      4  H   UNL     1       1.641   9.171  18.335  0.00  0.00    +0.000 HD
ENDROOT
BRANCH   2   5
ATOM      5  C   UNL     1       2.573   7.141  19.527  0.00  0.00    +0.000 C 
ATOM      6  C   UNL     1       2.867   7.532  18.063  0.00  0.00    +0.000 C 
ATOM      7  C   UNL     1       3.706   6.462  17.418  0.00  0.00    +0.000 A 
ATOM      8  C   UNL     1       4.767   6.746  16.556  0.00  0.00    +0.000 A 
ATOM      9  C   UNL     1       5.496   5.699  15.993  0.00  0.00    +0.000 A 
ATOM     10  C   UNL     1       5.158   4.372  16.280  0.00  0.00    +0.000 A 
ATOM     11  C   UNL     1       4.086   4.087  17.125  0.00  0.00    +0.000 A 
ATOM     12  C   UNL     1       3.355   5.130  17.702  0.00  0.00    +0.000 A 
ATOM     13  C   UNL     1       2.142   4.896  18.562  0.00  0.00    +0.000 C 
ATOM     14  N   UNL     1       2.110   5.735  19.767  0.00  0.00    +0.000 NA
ATOM     15  H   UNL     1       2.743   5.324  20.455  0.00  0.00    +0.000 HD
ENDBRANCH   2   5
BRANCH   1  17
ATOM     16  C   UNL     1       1.115  11.437  20.244  0.00  0.00    +0.000 C 
ATOM     17  C   UNL     1       0.335  10.260  19.666  0.00  0.00    +0.000 C 
BRANCH  17  18
ATOM     18  C   UNL     1      -0.526  10.698  18.470  0.00  0.00    +0.000 C 
ATOM     19  O   UNL     1      -1.168   9.920  17.762  0.00  0.00    +0.000 OA
ATOM     20  N   UNL     1      -0.557  12.057  18.254  0.00  0.00    +0.000 N 
ATOM     21  H   UNL     1       0.049  12.734  18.705  0.00  0.00    +0.000 HD
BRANCH  20  22
ATOM     22  O   UNL     1      -1.298  12.510  17.142  0.00  0.00    +0.000 OA
ATOM     23  H   UNL     1      -1.211  13.486  17.215  0.00  0.00    +0.000 HD
ENDBRANCH  20  22
ENDBRANCH  17  18
ENDBRANCH   1  17
TORSDOF 4
ENDMDL
MODEL 9
REMARK VINA RESULT:      -6.7      3.239      6.707
REMARK  Name = 
REMARK  5 active torsions:
REMARK  status: ('A' for Active; 'I' for Inactive)
REMARK    1  A    between atoms: C_1  and  C_2
REMARK    2  A    between atoms: C_2  and  N_3
REMARK    3  A    between atoms: C_2  and  C_16
REMARK    4  A    between atoms: C_4  and  C_6
REMARK    5  A    between atoms: N_18  and  O_19
REMARK                            x       y       z     vdW  Elec       q    Type
REMARK                         _______ _______ _______ _____ _____    ______ ____
ROOT
ATOM      1  N   UNL     1       5.467   4.063  14.120  0.00  0.00    +0.000 N 
ATOM      2  C   UNL     1       5.786   4.037  15.456  0.00  0.00    +0.000 C 
ATOM      3  O   UNL     1       6.874   3.640  15.868  0.00  0.00    +0.000 OA
ATOM      4  H   UNL     1       4.565   4.473  13.874  0.00  0.00    +0.000 HD
ENDROOT
BRANCH   2   5
ATOM      5  C   UNL     1       4.675   4.524  16.403  0.00  0.00    +0.000 C 
ATOM      6  C   UNL     1       4.838   6.045  16.602  0.00  0.00    +0.000 C 
ATOM      7  C   UNL     1       3.884   6.516  17.667  0.00  0.00    +0.000 A 
ATOM      8  C   UNL     1       3.170   7.713  17.572  0.00  0.00    +0.000 A 
ATOM      9  C   UNL     1       2.308   8.083  18.602  0.00  0.00    +0.000 A 
ATOM     10  C   UNL     1       2.170   7.269  19.731  0.00  0.00    +0.000 A 
ATOM     11  C   UNL     1       2.897   6.083  19.836  0.00  0.00    +0.000 A 
ATOM     12  C   UNL     1       3.757   5.698  18.804  0.00  0.00    +0.000 A 
ATOM     13  C   UNL     1       4.628   4.473  18.883  0.00  0.00    +0.000 C 
ATOM     14  N   UNL     1       4.639   3.684  17.644  0.00  0.00    +0.000 NA
ATOM     15  H   UNL     1       3.778   3.136  17.611  0.00  0.00    +0.000 HD
ENDBRANCH   2   5
BRANCH   1  17
ATOM     16  C   UNL     1       5.595   3.066  11.892  0.00  0.00    +0.000 C 
ATOM     17  C   UNL     1       6.378   3.607  13.085  0.00  0.00    +0.000 C 
BRANCH  17  18
ATOM     18  C   UNL     1       7.323   4.742  12.659  0.00  0.00    +0.000 C 
ATOM     19  O   UNL     1       7.368   5.210  11.519  0.00  0.00    +0.000 OA
ATOM     20  N   UNL     1       8.119   5.234  13.668  0.00  0.00    +0.000 N 
ATOM     21  H   UNL     1       8.232   4.810  14.583  0.00  0.00    +0.000 HD
BRANCH  20  22
ATOM     22  O   UNL     1       9.036   6.248  13.322  0.00  0.00    +0.000 OA
ATOM     23  H   UNL     1       9.160   6.722  14.174  0.00  0.00    +0.000 HD
ENDBRANCH  20  22
ENDBRANCH  17  18
ENDBRANCH   1  17
TORSDOF 4
ENDMDL
