MODEL 1
REMARK VINA RESULT:      -6.7      0.000      0.000
REMARK  Name = 
REMARK  8 active torsions:
REMARK  status: ('A' for Active; 'I' for Inactive)
REMARK    1  A    between atoms: C_1  and  C_2
REMARK    2  A    between atoms: C_2  and  O_3
REMARK    3  A    between atoms: O_3  and  C_4
REMARK    4  A    between atoms: C_4  and  C_6
REMARK    5  A    between atoms: C_10  and  N_11
REMARK    6  A    between atoms: C_18  and  C_19
REMARK    7  A    between atoms: C_23  and  O_24
REMARK    8  A    between atoms: O_24  and  C_25
REMARK                            x       y       z     vdW  Elec       q    Type
REMARK                         _______ _______ _______ _____ _____    ______ ____
ROOT
ATOM      1  C   UNL     1       6.073   6.722  18.245  0.00  0.00    +0.000 C 
ATOM      2  C   UNL     1       6.075   5.649  19.307  0.00  0.00    +0.000 C 
ATOM      3  O   UNL     1       7.017   5.465  20.076  0.00  0.00    +0.000 OA
ATOM      4  C   UNL     1       4.843   4.857  19.519  0.00  0.00    +0.000 C 
ATOM      5  C   UNL     1       3.711   5.090  18.833  0.00  0.00    +0.000 C 
ATOM      6  C   UNL     1       3.664   6.169  17.766  0.00  0.00    +0.000 C 
ATOM      7  C   UNL     1       5.041   6.477  17.136  0.00  0.00    +0.000 C 
ENDROOT
BRANCH   5   8
ATOM      8  N   UNL     1       2.547   4.358  19.088  0.00  0.00    +0.000 N 
ATOM      9  C   UNL     1       1.677   4.575  20.262  0.00  0.00    +0.000 C 
ATOM     10  C   UNL     1       1.090   3.227  20.716  0.00  0.00    +0.000 C 
ATOM     11  O   UNL     1       0.366   2.577  19.658  0.00  0.00    +0.000 OA
ATOM     12  C   UNL     1       1.232   2.345  18.533  0.00  0.00    +0.000 C 
ATOM     13  C   UNL     1       1.819   3.658  18.001  0.00  0.00    +0.000 C 
ENDBRANCH   5   8
BRANCH   7  14
ATOM     14  C   UNL     1       5.397   5.453  16.058  0.00  0.00    +0.000 A 
ATOM     15  C   UNL     1       4.913   4.137  16.052  0.00  0.00    +0.000 A 
ATOM     16  C   UNL     1       5.284   3.243  15.047  0.00  0.00    +0.000 A 
ATOM     17  C   UNL     1       6.138   3.656  14.029  0.00  0.00    +0.000 A 
ATOM     18  C   UNL     1       6.628   4.959  14.003  0.00  0.00    +0.000 A 
ATOM     19  C   UNL     1       6.250   5.853  15.008  0.00  0.00    +0.000 A 
BRANCH  18  20
ATOM     20  O   UNL     1       7.460   5.236  12.955  0.00  0.00    +0.000 OA
ATOM     21  C   UNL     1       7.360   4.394  11.812  0.00  0.00    +0.000 C 
ENDBRANCH  18  20
ENDBRANCH   7  14
BRANCH   1  22
ATOM     22  C   UNL     1       7.448   7.008  17.699  0.00  0.00    +0.000 C 
ATOM     23  O   UNL     1       8.294   6.178  17.408  0.00  0.00    +0.000 OA
BRANCH  22  24
ATOM     24  O   UNL     1       7.631   8.362  17.637  0.00  0.00    +0.000 OA
BRANCH  24  26
ATOM     25  C   UNL     1       8.859  10.322  18.206  0.00  0.00    +0.000 C 
ATOM     26  C   UNL     1       8.578   8.878  18.584  0.00  0.00    +0.000 C 
ENDBRANCH  24  26
ENDBRANCH  22  24
ENDBRANCH   1  22
TORSDOF 6
ENDMDL
MODEL 2
REMARK VINA RESULT:      -6.5      2.039      6.309
REMARK  Name = 
REMARK  8 active torsions:
REMARK  status: ('A' for Active; 'I' for Inactive)
REMARK    1  A    between atoms: C_1  and  C_2
REMARK    2  A    between atoms: C_2  and  O_3
REMARK    3  A    between atoms: O_3  and  C_4
REMARK    4  A    between atoms: C_4  and  C_6
REMARK    5  A    between atoms: C_10  and  N_11
REMARK    6  A    between atoms: C_18  and  C_19
REMARK    7  A    between atoms: C_23  and  O_24
REMARK    8  A    between atoms: O_24  and  C_25
REMARK                            x       y       z     vdW  Elec       q    Type
REMARK                         _______ _______ _______ _____ _____    ______ ____
ROOT
ATOM      1  C   UNL     1       3.895   5.322  17.600  0.00  0.00    +0.000 C 
ATOM      2  C   UNL     1       4.344   3.910  17.315  0.00  0.00    +0.000 C 
ATOM      3  O   UNL     1       3.997   2.943  17.990  0.00  0.00    +0.000 OA
ATOM      4  C   UNL     1       5.144   3.651  16.097  0.00  0.00    +0.000 C 
ATOM      5  C   UNL     1       5.443   4.619  15.213  0.00  0.00    +0.000 C 
ATOM      6  C   UNL     1       4.998   6.051  15.458  0.00  0.00    +0.000 C 
ATOM      7  C   UNL     1       4.788   6.388  16.951  0.00  0.00    +0.000 C 
ENDROOT
BRANCH   5   8
ATOM      8  N   UNL     1       6.159   4.338  14.046  0.00  0.00    +0.000 N 
ATOM      9  C   UNL     1       7.488   4.904  13.737  0.00  0.00    +0.000 C 
ATOM     10  C   UNL     1       7.602   5.139  12.221  0.00  0.00    +0.000 C 
ATOM     11  O   UNL     1       7.376   3.930  11.476  0.00  0.00    +0.000 OA
ATOM     12  C   UNL     1       6.067   3.407  11.762  0.00  0.00    +0.000 C 
ATOM     13  C   UNL     1       5.902   3.107  13.258  0.00  0.00    +0.000 C 
ENDBRANCH   5   8
BRANCH   7  14
ATOM     14  C   UNL     1       6.117   6.705  17.637  0.00  0.00    +0.000 A 
ATOM     15  C   UNL     1       6.799   5.795  18.458  0.00  0.00    +0.000 A 
ATOM     16  C   UNL     1       8.004   6.147  19.068  0.00  0.00    +0.000 A 
ATOM     17  C   UNL     1       8.547   7.411  18.860  0.00  0.00    +0.000 A 
ATOM     18  C   UNL     1       7.896   8.333  18.044  0.00  0.00    +0.000 A 
ATOM     19  C   UNL     1       6.694   7.975  17.429  0.00  0.00    +0.000 A 
BRANCH  18  20
ATOM     20  O   UNL     1       8.529   9.538  17.926  0.00  0.00    +0.000 OA
ATOM     21  C   UNL     1       9.123  10.072  19.104  0.00  0.00    +0.000 C 
ENDBRANCH  18  20
ENDBRANCH   7  14
BRANCH   1  22
ATOM     22  C   UNL     1       3.666   5.579  19.067  0.00  0.00    +0.000 C 
ATOM     23  O   UNL     1       4.456   5.348  19.970  0.00  0.00    +0.000 OA
BRANCH  22  24
ATOM     24  O   UNL     1       2.398   6.058  19.246  0.00  0.00    +0.000 OA
BRANCH  24  26
ATOM     25  C   UNL     1       1.204   4.248  20.231  0.00  0.00    +0.000 C 
ATOM     26  C   UNL     1       1.769   5.638  20.465  0.00  0.00    +0.000 C 
ENDBRANCH  24  26
ENDBRANCH  22  24
ENDBRANCH   1  22
TORSDOF 6
ENDMDL
MODEL 3
REMARK VINA RESULT:      -6.3      0.424      1.016
REMARK  Name = 
REMARK  8 active torsions:
REMARK  status: ('A' for Active; 'I' for Inactive)
REMARK    1  A    between atoms: C_1  and  C_2
REMARK    2  A    between atoms: C_2  and  O_3
REMARK    3  A    between atoms: O_3  and  C_4
REMARK    4  A    between atoms: C_4  and  C_6
REMARK    5  A    between atoms: C_10  and  N_11
REMARK    6  A    between atoms: C_18  and  C_19
REMARK    7  A    between atoms: C_23  and  O_24
REMARK    8  A    between atoms: O_24  and  C_25
REMARK                            x       y       z     vdW  Elec       q    Type
REMARK                         _______ _______ _______ _____ _____    ______ ____
ROOT
ATOM      1  C   UNL     1       6.108   6.726  18.245  0.00  0.00    +0.000 C 
ATOM      2  C   UNL     1       6.291   5.653  19.290  0.00  0.00    +0.000 C 
ATOM      3  O   UNL     1       7.292   5.566  19.998  0.00  0.00    +0.000 OA
ATOM      4  C   UNL     1       5.166   4.731  19.567  0.00  0.00    +0.000 C 
ATOM      5  C   UNL     1       3.974   4.846  18.955  0.00  0.00    +0.000 C 
ATOM      6  C   UNL     1       3.746   5.921  17.906  0.00  0.00    +0.000 C 
ATOM      7  C   UNL     1       5.041   6.379  17.198  0.00  0.00    +0.000 C 
ENDROOT
BRANCH   5   8
ATOM      8  N   UNL     1       2.913   3.993  19.271  0.00  0.00    +0.000 N 
ATOM      9  C   UNL     1       2.701   2.674  18.640  0.00  0.00    +0.000 C 
ATOM     10  C   UNL     1       1.191   2.411  18.507  0.00  0.00    +0.000 C 
ATOM     11  O   UNL     1       0.523   2.482  19.779  0.00  0.00    +0.000 OA
ATOM     12  C   UNL     1       0.713   3.780  20.367  0.00  0.00    +0.000 C 
ATOM     13  C   UNL     1       2.202   4.089  20.570  0.00  0.00    +0.000 C 
ENDBRANCH   5   8
BRANCH   7  14
ATOM     14  C   UNL     1       5.436   5.406  16.087  0.00  0.00    +0.000 A 
ATOM     15  C   UNL     1       4.958   4.091  16.005  0.00  0.00    +0.000 A 
ATOM     16  C   UNL     1       5.365   3.244  14.973  0.00  0.00    +0.000 A 
ATOM     17  C   UNL     1       6.250   3.705  14.003  0.00  0.00    +0.000 A 
ATOM     18  C   UNL     1       6.736   5.009  14.054  0.00  0.00    +0.000 A 
ATOM     19  C   UNL     1       6.322   5.855  15.084  0.00  0.00    +0.000 A 
BRANCH  18  20
ATOM     20  O   UNL     1       7.602   5.335  13.048  0.00  0.00    +0.000 OA
ATOM     21  C   UNL     1       7.396   4.702  11.789  0.00  0.00    +0.000 C 
ENDBRANCH  18  20
ENDBRANCH   7  14
BRANCH   1  22
ATOM     22  C   UNL     1       7.408   7.161  17.619  0.00  0.00    +0.000 C 
ATOM     23  O   UNL     1       8.279   6.425  17.183  0.00  0.00    +0.000 OA
BRANCH  22  24
ATOM     24  O   UNL     1       7.496   8.525  17.673  0.00  0.00    +0.000 OA
BRANCH  24  26
ATOM     25  C   UNL     1       8.734  10.504  18.147  0.00  0.00    +0.000 C 
ATOM     26  C   UNL     1       8.598   9.020  18.446  0.00  0.00    +0.000 C 
ENDBRANCH  24  26
ENDBRANCH  22  24
ENDBRANCH   1  22
TORSDOF 6
ENDMDL
MODEL 4
REMARK VINA RESULT:      -6.3      2.829      5.259
REMARK  Name = 
REMARK  8 active torsions:
REMARK  status: ('A' for Active; 'I' for Inactive)
REMARK    1  A    between atoms: C_1  and  C_2
REMARK    2  A    between atoms: C_2  and  O_3
REMARK    3  A    between atoms: O_3  and  C_4
REMARK    4  A    between atoms: C_4  and  C_6
REMARK    5  A    between atoms: C_10  and  N_11
REMARK    6  A    between atoms: C_18  and  C_19
REMARK    7  A    between atoms: C_23  and  O_24
REMARK    8  A    between atoms: O_24  and  C_25
REMARK                            x       y       z     vdW  Elec       q    Type
REMARK                         _______ _______ _______ _____ _____    ______ ____
ROOT
ATOM      1  C   UNL     1       3.233   3.238  19.045  0.00  0.00    +0.000 C 
ATOM      2  C   UNL     1       1.938   3.732  18.449  0.00  0.00    +0.000 C 
ATOM      3  O   UNL     1       1.066   2.981  18.017  0.00  0.00    +0.000 OA
ATOM      4  C   UNL     1       1.642   5.182  18.494  0.00  0.00    +0.000 C 
ATOM      5  C   UNL     1       2.464   6.066  19.086  0.00  0.00    +0.000 C 
ATOM      6  C   UNL     1       3.771   5.607  19.709  0.00  0.00    +0.000 C 
ATOM      7  C   UNL     1       4.332   4.309  19.085  0.00  0.00    +0.000 C 
ENDROOT
BRANCH   5   8
ATOM      8  N   UNL     1       2.137   7.423  19.156  0.00  0.00    +0.000 N 
ATOM      9  C   UNL     1       1.789   8.124  20.410  0.00  0.00    +0.000 C 
ATOM     10  C   UNL     1       0.729   9.199  20.114  0.00  0.00    +0.000 C 
ATOM     11  O   UNL     1       1.179  10.131  19.116  0.00  0.00    +0.000 OA
ATOM     12  C   UNL     1       1.485   9.440  17.893  0.00  0.00    +0.000 C 
ATOM     13  C   UNL     1       2.572   8.380  18.109  0.00  0.00    +0.000 C 
ENDBRANCH   5   8
BRANCH   7  14
ATOM     14  C   UNL     1       5.077   4.600  17.782  0.00  0.00    +0.000 A 
ATOM     15  C   UNL     1       4.845   3.905  16.587  0.00  0.00    +0.000 A 
ATOM     16  C   UNL     1       5.567   4.207  15.432  0.00  0.00    +0.000 A 
ATOM     17  C   UNL     1       6.526   5.215  15.454  0.00  0.00    +0.000 A 
ATOM     18  C   UNL     1       6.772   5.929  16.624  0.00  0.00    +0.000 A 
ATOM     19  C   UNL     1       6.044   5.628  17.777  0.00  0.00    +0.000 A 
BRANCH  18  20
ATOM     20  O   UNL     1       7.741   6.887  16.515  0.00  0.00    +0.000 OA
ATOM     21  C   UNL     1       7.778   7.885  17.530  0.00  0.00    +0.000 C 
ENDBRANCH  18  20
ENDBRANCH   7  14
BRANCH   1  22
ATOM     22  C   UNL     1       3.709   1.949  18.426  0.00  0.00    +0.000 C 
ATOM     23  O   UNL     1       3.519   1.591  17.274  0.00  0.00    +0.000 OA
BRANCH  22  24
ATOM     24  O   UNL     1       4.338   1.200  19.381  0.00  0.00    +0.000 OA
BRANCH  24  26
ATOM     25  C   UNL     1       5.483   1.077  21.467  0.00  0.00    +0.000 C 
ATOM     26  C   UNL     1       4.436   1.832  20.665  0.00  0.00    +0.000 C 
ENDBRANCH  24  26
ENDBRANCH  22  24
ENDBRANCH   1  22
TORSDOF 6
ENDMDL
MODEL 5
REMARK VINA RESULT:      -6.2      2.925      5.726
REMARK  Name = 
REMARK  8 active torsions:
REMARK  status: ('A' for Active; 'I' for Inactive)
REMARK    1  A    between atoms: C_1  and  C_2
REMARK    2  A    between atoms: C_2  and  O_3
REMARK    3  A    between atoms: O_3  and  C_4
REMARK    4  A    between atoms: C_4  and  C_6
REMARK    5  A    between atoms: C_10  and  N_11
REMARK    6  A    between atoms: C_18  and  C_19
REMARK    7  A    between atoms: C_23  and  O_24
REMARK    8  A    between atoms: O_24  and  C_25
REMARK                            x       y       z     vdW  Elec       q    Type
REMARK                         _______ _______ _______ _____ _____    ______ ____
ROOT
ATOM      1  C   UNL     1       2.687   4.244  19.047  0.00  0.00    +0.000 C 
ATOM      2  C   UNL     1       1.820   4.800  17.944  0.00  0.00    +0.000 C 
ATOM      3  O   UNL     1       1.208   4.091  17.146  0.00  0.00    +0.000 OA
ATOM      4  C   UNL     1       1.592   6.261  17.886  0.00  0.00    +0.000 C 
ATOM      5  C   UNL     1       2.092   7.104  18.807  0.00  0.00    +0.000 C 
ATOM      6  C   UNL     1       2.958   6.582  19.940  0.00  0.00    +0.000 C 
ATOM      7  C   UNL     1       3.690   5.263  19.603  0.00  0.00    +0.000 C 
ENDROOT
BRANCH   5   8
ATOM      8  N   UNL     1       1.822   8.474  18.756  0.00  0.00    +0.000 N 
ATOM      9  C   UNL     1       2.005   9.306  17.549  0.00  0.00    +0.000 C 
ATOM     10  C   UNL     1       2.463  10.715  17.966  0.00  0.00    +0.000 C 
ATOM     11  O   UNL     1       1.534  11.330  18.875  0.00  0.00    +0.000 OA
ATOM     12  C   UNL     1       1.388  10.526  20.058  0.00  0.00    +0.000 C 
ATOM     13  C   UNL     1       0.889   9.117  19.715  0.00  0.00    +0.000 C 
ENDBRANCH   5   8
BRANCH   7  14
ATOM     14  C   UNL     1       4.953   5.526  18.784  0.00  0.00    +0.000 A 
ATOM     15  C   UNL     1       6.234   5.617  19.346  0.00  0.00    +0.000 A 
ATOM     16  C   UNL     1       7.350   5.871  18.548  0.00  0.00    +0.000 A 
ATOM     17  C   UNL     1       7.201   6.031  17.174  0.00  0.00    +0.000 A 
ATOM     18  C   UNL     1       5.942   5.938  16.585  0.00  0.00    +0.000 A 
ATOM     19  C   UNL     1       4.828   5.676  17.387  0.00  0.00    +0.000 A 
BRANCH  18  20
ATOM     20  O   UNL     1       5.930   6.119  15.231  0.00  0.00    +0.000 OA
ATOM     21  C   UNL     1       6.414   5.044  14.432  0.00  0.00    +0.000 C 
ENDBRANCH  18  20
ENDBRANCH   7  14
BRANCH   1  22
ATOM     22  C   UNL     1       3.339   2.937  18.677  0.00  0.00    +0.000 C 
ATOM     23  O   UNL     1       3.884   2.680  17.614  0.00  0.00    +0.000 OA
BRANCH  22  24
ATOM     24  O   UNL     1       3.172   2.047  19.701  0.00  0.00    +0.000 OA
BRANCH  24  26
ATOM     25  C   UNL     1       2.090   2.525  21.769  0.00  0.00    +0.000 C 
ATOM     26  C   UNL     1       1.881   2.096  20.326  0.00  0.00    +0.000 C 
ENDBRANCH  24  26
ENDBRANCH  22  24
ENDBRANCH   1  22
TORSDOF 6
ENDMDL
MODEL 6
REMARK VINA RESULT:      -6.2      3.003      5.236
REMARK  Name = 
REMARK  8 active torsions:
REMARK  status: ('A' for Active; 'I' for Inactive)
REMARK    1  A    between atoms: C_1  and  C_2
REMARK    2  A    between atoms: C_2  and  O_3
REMARK    3  A    between atoms: O_3  and  C_4
REMARK    4  A    between atoms: C_4  and  C_6
REMARK    5  A    between atoms: C_10  and  N_11
REMARK    6  A    between atoms: C_18  and  C_19
REMARK    7  A    between atoms: C_23  and  O_24
REMARK    8  A    between atoms: O_24  and  C_25
REMARK                            x       y       z     vdW  Elec       q    Type
REMARK                         _______ _______ _______ _____ _____    ______ ____
ROOT
ATOM      1  C   UNL     1       3.220   3.545  19.253  0.00  0.00    +0.000 C 
ATOM      2  C   UNL     1       2.136   4.014  18.313  0.00  0.00    +0.000 C 
ATOM      3  O   UNL     1       1.456   3.248  17.633  0.00  0.00    +0.000 OA
ATOM      4  C   UNL     1       1.787   5.452  18.293  0.00  0.00    +0.000 C 
ATOM      5  C   UNL     1       2.367   6.345  19.114  0.00  0.00    +0.000 C 
ATOM      6  C   UNL     1       3.453   5.910  20.083  0.00  0.00    +0.000 C 
ATOM      7  C   UNL     1       4.219   4.647  19.628  0.00  0.00    +0.000 C 
ENDROOT
BRANCH   5   8
ATOM      8  N   UNL     1       1.984   7.689  19.108  0.00  0.00    +0.000 N 
ATOM      9  C   UNL     1       1.648   8.456  20.325  0.00  0.00    +0.000 C 
ATOM     10  C   UNL     1       0.533   9.465  19.999  0.00  0.00    +0.000 C 
ATOM     11  O   UNL     1       0.907  10.347  18.927  0.00  0.00    +0.000 OA
ATOM     12  C   UNL     1       1.202   9.590  17.741  0.00  0.00    +0.000 C 
ATOM     13  C   UNL     1       2.341   8.592  17.985  0.00  0.00    +0.000 C 
ENDBRANCH   5   8
BRANCH   7  14
ATOM     14  C   UNL     1       5.299   4.996  18.604  0.00  0.00    +0.000 A 
ATOM     15  C   UNL     1       6.579   5.448  18.955  0.00  0.00    +0.000 A 
ATOM     16  C   UNL     1       7.520   5.763  17.975  0.00  0.00    +0.000 A 
ATOM     17  C   UNL     1       7.197   5.622  16.629  0.00  0.00    +0.000 A 
ATOM     18  C   UNL     1       5.936   5.167  16.250  0.00  0.00    +0.000 A 
ATOM     19  C   UNL     1       4.999   4.847  17.234  0.00  0.00    +0.000 A 
BRANCH  18  20
ATOM     20  O   UNL     1       5.744   5.078  14.899  0.00  0.00    +0.000 OA
ATOM     21  C   UNL     1       6.888   4.790  14.102  0.00  0.00    +0.000 C 
ENDBRANCH  18  20
ENDBRANCH   7  14
BRANCH   1  22
ATOM     22  C   UNL     1       3.902   2.287  18.778  0.00  0.00    +0.000 C 
ATOM     23  O   UNL     1       3.576   1.611  17.815  0.00  0.00    +0.000 OA
BRANCH  22  24
ATOM     24  O   UNL     1       4.918   1.977  19.639  0.00  0.00    +0.000 OA
BRANCH  24  26
ATOM     25  C   UNL     1       5.594   0.754  21.568  0.00  0.00    +0.000 C 
ATOM     26  C   UNL     1       4.488   1.596  20.954  0.00  0.00    +0.000 C 
ENDBRANCH  24  26
ENDBRANCH  22  24
ENDBRANCH   1  22
TORSDOF 6
ENDMDL
MODEL 7
REMARK VINA RESULT:      -6.1      2.815      7.206
REMARK  Name = 
REMARK  8 active torsions:
REMARK  status: ('A' for Active; 'I' for Inactive)
REMARK    1  A    between atoms: C_1  and  C_2
REMARK    2  A    between atoms: C_2  and  O_3
REMARK    3  A    between atoms: O_3  and  C_4
REMARK    4  A    between atoms: C_4  and  C_6
REMARK    5  A    between atoms: C_10  and  N_11
REMARK    6  A    between atoms: C_18  and  C_19
REMARK    7  A    between atoms: C_23  and  O_24
REMARK    8  A    between atoms: O_24  and  C_25
REMARK                            x       y       z     vdW  Elec       q    Type
REMARK                         _______ _______ _______ _____ _____    ______ ____
ROOT
ATOM      1  C   UNL     1       3.223   3.969  17.850  0.00  0.00    +0.000 C 
ATOM      2  C   UNL     1       4.381   3.628  18.755  0.00  0.00    +0.000 C 
ATOM      3  O   UNL     1       4.458   2.572  19.380  0.00  0.00    +0.000 OA
ATOM      4  C   UNL     1       5.540   4.547  18.805  0.00  0.00    +0.000 C 
ATOM      5  C   UNL     1       5.617   5.650  18.039  0.00  0.00    +0.000 C 
ATOM      6  C   UNL     1       4.478   6.021  17.106  0.00  0.00    +0.000 C 
ATOM      7  C   UNL     1       3.106   5.471  17.554  0.00  0.00    +0.000 C 
ENDROOT
BRANCH   5   8
ATOM      8  N   UNL     1       6.744   6.475  18.071  0.00  0.00    +0.000 N 
ATOM      9  C   UNL     1       7.977   6.159  18.822  0.00  0.00    +0.000 C 
ATOM     10  C   UNL     1       8.591   7.461  19.363  0.00  0.00    +0.000 C 
ATOM     11  O   UNL     1       8.862   8.402  18.310  0.00  0.00    +0.000 OA
ATOM     12  C   UNL     1       7.649   8.724  17.608  0.00  0.00    +0.000 C 
ATOM     13  C   UNL     1       7.006   7.470  17.001  0.00  0.00    +0.000 C 
ENDBRANCH   5   8
BRANCH   7  14
ATOM     14  C   UNL     1       2.482   6.354  18.634  0.00  0.00    +0.000 A 
ATOM     15  C   UNL     1       2.226   5.913  19.941  0.00  0.00    +0.000 A 
ATOM     16  C   UNL     1       1.643   6.763  20.881  0.00  0.00    +0.000 A 
ATOM     17  C   UNL     1       1.314   8.068  20.531  0.00  0.00    +0.000 A 
ATOM     18  C   UNL     1       1.563   8.537  19.243  0.00  0.00    +0.000 A 
ATOM     19  C   UNL     1       2.153   7.686  18.306  0.00  0.00    +0.000 A 
BRANCH  18  20
ATOM     20  O   UNL     1       1.189   9.833  19.025  0.00  0.00    +0.000 OA
ATOM     21  C   UNL     1       0.579  10.520  20.113  0.00  0.00    +0.000 C 
ENDBRANCH  18  20
ENDBRANCH   7  14
BRANCH   1  22
ATOM     22  C   UNL     1       1.920   3.371  18.314  0.00  0.00    +0.000 C 
ATOM     23  O   UNL     1       0.819   3.578  17.828  0.00  0.00    +0.000 OA
BRANCH  22  24
ATOM     24  O   UNL     1       2.151   2.599  19.419  0.00  0.00    +0.000 OA
BRANCH  24  26
ATOM     25  C   UNL     1       1.796   2.783  21.767  0.00  0.00    +0.000 C 
ATOM     26  C   UNL     1       1.118   2.659  20.413  0.00  0.00    +0.000 C 
ENDBRANCH  24  26
ENDBRANCH  22  24
ENDBRANCH   1  22
TORSDOF 6
ENDMDL
MODEL 8
REMARK VINA RESULT:      -6.1      2.963      5.593
REMARK  Name = 
REMARK  8 active torsions:
REMARK  status: ('A' for Active; 'I' for Inactive)
REMARK    1  A    between atoms: C_1  and  C_2
REMARK    2  A    between atoms: C_2  and  O_3
REMARK    3  A    between atoms: O_3  and  C_4
REMARK    4  A    between atoms: C_4  and  C_6
REMARK    5  A    between atoms: C_10  and  N_11
REMARK    6  A    between atoms: C_18  and  C_19
REMARK    7  A    between atoms: C_23  and  O_24
REMARK    8  A    between atoms: O_24  and  C_25
REMARK                            x       y       z     vdW  Elec       q    Type
REMARK                         _______ _______ _______ _____ _____    ______ ____
ROOT
ATOM      1  C   UNL     1       2.777   4.077  18.988  0.00  0.00    +0.000 C 
ATOM      2  C   UNL     1       1.905   4.705  17.929  0.00  0.00    +0.000 C 
ATOM      3  O   UNL     1       1.297   4.053  17.082  0.00  0.00    +0.000 OA
ATOM      4  C   UNL     1       1.669   6.166  17.977  0.00  0.00    +0.000 C 
ATOM      5  C   UNL     1       2.164   6.943  18.957  0.00  0.00    +0.000 C 
ATOM      6  C   UNL     1       3.035   6.345  20.048  0.00  0.00    +0.000 C 
ATOM      7  C   UNL     1       3.774   5.059  19.617  0.00  0.00    +0.000 C 
ENDROOT
BRANCH   5   8
ATOM      8  N   UNL     1       1.886   8.311  19.005  0.00  0.00    +0.000 N 
ATOM      9  C   UNL     1       1.438   9.019  20.223  0.00  0.00    +0.000 C 
ATOM     10  C   UNL     1       0.458  10.137  19.830  0.00  0.00    +0.000 C 
ATOM     11  O   UNL     1       1.044  11.056  18.892  0.00  0.00    +0.000 OA
ATOM     12  C   UNL     1       1.447  10.359  17.700  0.00  0.00    +0.000 C 
ATOM     13  C   UNL     1       2.464   9.255  18.017  0.00  0.00    +0.000 C 
ENDBRANCH   5   8
BRANCH   7  14
ATOM     14  C   UNL     1       5.035   5.388  18.818  0.00  0.00    +0.000 A 
ATOM     15  C   UNL     1       6.312   5.477  19.391  0.00  0.00    +0.000 A 
ATOM     16  C   UNL     1       7.425   5.793  18.612  0.00  0.00    +0.000 A 
ATOM     17  C   UNL     1       7.279   6.018  17.247  0.00  0.00    +0.000 A 
ATOM     18  C   UNL     1       6.024   5.930  16.648  0.00  0.00    +0.000 A 
ATOM     19  C   UNL     1       4.913   5.606  17.429  0.00  0.00    +0.000 A 
BRANCH  18  20
ATOM     20  O   UNL     1       6.014   6.178  15.304  0.00  0.00    +0.000 OA
ATOM     21  C   UNL     1       5.955   5.048  14.439  0.00  0.00    +0.000 C 
ENDBRANCH  18  20
ENDBRANCH   7  14
BRANCH   1  22
ATOM     22  C   UNL     1       3.437   2.804  18.524  0.00  0.00    +0.000 C 
ATOM     23  O   UNL     1       3.992   2.632  17.450  0.00  0.00    +0.000 OA
BRANCH  22  24
ATOM     24  O   UNL     1       3.263   1.837  19.474  0.00  0.00    +0.000 OA
BRANCH  24  26
ATOM     25  C   UNL     1       2.289   2.312  21.596  0.00  0.00    +0.000 C 
ATOM     26  C   UNL     1       2.005   1.898  20.162  0.00  0.00    +0.000 C 
ENDBRANCH  24  26
ENDBRANCH  22  24
ENDBRANCH   1  22
TORSDOF 6
ENDMDL
MODEL 9
REMARK VINA RESULT:      -6.0      3.018      5.076
REMARK  Name = 
REMARK  8 active torsions:
REMARK  status: ('A' for Active; 'I' for Inactive)
REMARK    1  A    between atoms: C_1  and  C_2
REMARK    2  A    between atoms: C_2  and  O_3
REMARK    3  A    between atoms: O_3  and  C_4
REMARK    4  A    between atoms: C_4  and  C_6
REMARK    5  A    between atoms: C_10  and  N_11
REMARK    6  A    between atoms: C_18  and  C_19
REMARK    7  A    between atoms: C_23  and  O_24
REMARK    8  A    between atoms: O_24  and  C_25
REMARK                            x       y       z     vdW  Elec       q    Type
REMARK                         _______ _______ _______ _____ _____    ______ ____
ROOT
ATOM      1  C   UNL     1       3.870   3.494  20.077  0.00  0.00    +0.000 C 
ATOM      2  C   UNL     1       2.386   3.705  19.906  0.00  0.00    +0.000 C 
ATOM      3  O   UNL     1       1.554   2.819  20.089  0.00  0.00    +0.000 OA
ATOM      4  C   UNL     1       1.890   5.071  19.622  0.00  0.00    +0.000 C 
ATOM      5  C   UNL     1       2.710   6.135  19.558  0.00  0.00    +0.000 C 
ATOM      6  C   UNL     1       4.209   5.966  19.738  0.00  0.00    +0.000 C 
ATOM      7  C   UNL     1       4.721   4.556  19.368  0.00  0.00    +0.000 C 
ENDROOT
BRANCH   5   8
ATOM      8  N   UNL     1       2.210   7.421  19.336  0.00  0.00    +0.000 N 
ATOM      9  C   UNL     1       1.732   8.316  20.410  0.00  0.00    +0.000 C 
ATOM     10  C   UNL     1       0.554   9.156  19.886  0.00  0.00    +0.000 C 
ATOM     11  O   UNL     1       0.915   9.909  18.716  0.00  0.00    +0.000 OA
ATOM     12  C   UNL     1       1.349   9.024  17.669  0.00  0.00    +0.000 C 
ATOM     13  C   UNL     1       2.555   8.186  18.112  0.00  0.00    +0.000 C 
ENDBRANCH   5   8
BRANCH   7  14
ATOM     14  C   UNL     1       4.907   4.414  17.857  0.00  0.00    +0.000 A 
ATOM     15  C   UNL     1       3.885   4.004  16.988  0.00  0.00    +0.000 A 
ATOM     16  C   UNL     1       4.118   3.881  15.618  0.00  0.00    +0.000 A 
ATOM     17  C   UNL     1       5.374   4.174  15.096  0.00  0.00    +0.000 A 
ATOM     18  C   UNL     1       6.406   4.591  15.933  0.00  0.00    +0.000 A 
ATOM     19  C   UNL     1       6.168   4.720  17.303  0.00  0.00    +0.000 A 
BRANCH  18  20
ATOM     20  O   UNL     1       7.590   4.842  15.299  0.00  0.00    +0.000 OA
ATOM     21  C   UNL     1       7.531   5.096  13.899  0.00  0.00    +0.000 C 
ENDBRANCH  18  20
ENDBRANCH   7  14
BRANCH   1  22
ATOM     22  C   UNL     1       4.305   2.090  19.742  0.00  0.00    +0.000 C 
ATOM     23  O   UNL     1       3.848   1.389  18.853  0.00  0.00    +0.000 OA
BRANCH  22  24
ATOM     24  O   UNL     1       5.257   1.691  20.638  0.00  0.00    +0.000 OA
BRANCH  24  26
ATOM     25  C   UNL     1       6.167  -0.006  22.040  0.00  0.00    +0.000 C 
ATOM     26  C   UNL     1       5.405   0.269  20.755  0.00  0.00    +0.000 C 
ENDBRANCH  24  26
ENDBRANCH  22  24
ENDBRANCH   1  22
TORSDOF 6
ENDMDL
