MODEL 1
REMARK VINA RESULT:      -9.5      0.000      0.000
REMARK  Name = 
REMARK  2 active torsions:
REMARK  status: ('A' for Active; 'I' for Inactive)
REMARK    1  A    between atoms: C_7  and  C_8
REMARK    2  A    between atoms: C_17  and  N_18
REMARK                            x       y       z     vdW  Elec       q    Type
REMARK                         _______ _______ _______ _____ _____    ______ ____
ROOT
ATOM      1  C   UNL     1       2.714   7.121  18.774  0.00  0.00    +0.000 A 
ATOM      2  C   UNL     1       2.455   7.844  17.598  0.00  0.00    +0.000 A 
ATOM      3  N   UNL     1       1.731   8.991  17.497  0.00  0.00    +0.000 NA
ATOM      4  C   UNL     1       1.227   9.404  18.685  0.00  0.00    +0.000 A 
ATOM      5  N   UNL     1       0.427  10.488  18.911  0.00  0.00    +0.000 NA
ATOM      6  C   UNL     1       0.195  10.426  20.207  0.00  0.00    +0.000 A 
ATOM      7  N   UNL     1      -0.564  11.224  20.992  0.00  0.00    +0.000 N 
ATOM      8  C   UNL     1      -1.421  12.188  20.311  0.00  0.00    +0.000 C 
ATOM      9  C   UNL     1      -1.784  13.304  21.282  0.00  0.00    +0.000 C 
ATOM     10  C   UNL     1      -2.407  12.810  22.604  0.00  0.00    +0.000 C 
ATOM     11  C   UNL     1      -1.542  11.681  23.198  0.00  0.00    +0.000 C 
ATOM     12  C   UNL     1      -1.114  10.614  22.203  0.00  0.00    +0.000 C 
ATOM     13  O   UNL     1       0.820   9.396  20.853  0.00  0.00    +0.000 OA
ATOM     14  C   UNL     1       1.462   8.734  19.868  0.00  0.00    +0.000 A 
ATOM     15  C   UNL     1       2.209   7.587  19.989  0.00  0.00    +0.000 A 
ENDROOT
BRANCH   1  22
ATOM     16  O   UNL     1       3.695   1.100  18.597  0.00  0.00    +0.000 OA
ATOM     17  C   UNL     1       3.067   2.156  18.604  0.00  0.00    +0.000 A 
ATOM     18  C   UNL     1       1.602   2.108  18.528  0.00  0.00    +0.000 A 
ATOM     19  C   UNL     1       0.934   3.262  18.539  0.00  0.00    +0.000 A 
ATOM     20  N   UNL     1       1.506   4.493  18.609  0.00  0.00    +0.000 NA
ATOM     21  C   UNL     1       2.805   4.551  18.670  0.00  0.00    +0.000 A 
ATOM     22  C   UNL     1       3.492   5.885  18.752  0.00  0.00    +0.000 A 
ATOM     23  C   UNL     1       4.831   5.941  18.841  0.00  0.00    +0.000 A 
ATOM     24  C   UNL     1       5.614   4.737  18.838  0.00  0.00    +0.000 A 
ATOM     25  C   UNL     1       5.013   3.546  18.757  0.00  0.00    +0.000 A 
ATOM     26  N   UNL     1       3.630   3.424  18.677  0.00  0.00    +0.000 N 
ENDBRANCH   1  22
BRANCH  10  27
ATOM     27  N   UNL     1      -3.862  12.519  22.620  0.00  0.00    +0.000 NA
ATOM     28  C   UNL     1      -4.510  13.008  23.849  0.00  0.00    +0.000 C 
ATOM     29  C   UNL     1      -5.966  12.542  23.957  0.00  0.00    +0.000 C 
ATOM     30  C   UNL     1      -6.766  12.920  22.717  0.00  0.00    +0.000 C 
ATOM     31  C   UNL     1      -6.060  12.409  21.473  0.00  0.00    +0.000 C 
ATOM     32  C   UNL     1      -4.621  12.911  21.433  0.00  0.00    +0.000 C 
ENDBRANCH  10  27
TORSDOF 2
ENDMDL
MODEL 2
REMARK VINA RESULT:      -9.3      1.024      1.034
REMARK  Name = 
REMARK  2 active torsions:
REMARK  status: ('A' for Active; 'I' for Inactive)
REMARK    1  A    between atoms: C_7  and  C_8
REMARK    2  A    between atoms: C_17  and  N_18
REMARK                            x       y       z     vdW  Elec       q    Type
REMARK                         _______ _______ _______ _____ _____    ______ ____
ROOT
ATOM      1  C   UNL     1       2.593   7.450  18.743  0.00  0.00    +0.000 A 
ATOM      2  C   UNL     1       2.293   8.183  17.582  0.00  0.00    +0.000 A 
ATOM      3  N   UNL     1       1.531   9.307  17.511  0.00  0.00    +0.000 NA
ATOM      4  C   UNL     1       1.034   9.686  18.713  0.00  0.00    +0.000 A 
ATOM      5  N   UNL     1       0.204  10.740  18.968  0.00  0.00    +0.000 NA
ATOM      6  C   UNL     1      -0.007  10.651  20.266  0.00  0.00    +0.000 A 
ATOM      7  N   UNL     1      -0.777  11.412  21.075  0.00  0.00    +0.000 N 
ATOM      8  C   UNL     1      -1.675  12.359  20.424  0.00  0.00    +0.000 C 
ATOM      9  C   UNL     1      -2.058  13.448  21.417  0.00  0.00    +0.000 C 
ATOM     10  C   UNL     1      -2.644  12.914  22.740  0.00  0.00    +0.000 C 
ATOM     11  C   UNL     1      -1.734  11.804  23.303  0.00  0.00    +0.000 C 
ATOM     12  C   UNL     1      -1.289  10.766  22.285  0.00  0.00    +0.000 C 
ATOM     13  O   UNL     1       0.661   9.631  20.887  0.00  0.00    +0.000 OA
ATOM     14  C   UNL     1       1.308   9.005  19.881  0.00  0.00    +0.000 A 
ATOM     15  C   UNL     1       2.093   7.881  19.973  0.00  0.00    +0.000 A 
ENDROOT
BRANCH   1  22
ATOM     16  O   UNL     1       4.376   1.802  20.218  0.00  0.00    +0.000 OA
ATOM     17  C   UNL     1       3.699   2.828  20.233  0.00  0.00    +0.000 A 
ATOM     18  C   UNL     1       2.541   2.897  21.132  0.00  0.00    +0.000 A 
ATOM     19  C   UNL     1       1.818   4.018  21.139  0.00  0.00    +0.000 A 
ATOM     20  N   UNL     1       2.065   5.110  20.368  0.00  0.00    +0.000 NA
ATOM     21  C   UNL     1       3.085   5.061  19.562  0.00  0.00    +0.000 A 
ATOM     22  C   UNL     1       3.408   6.240  18.688  0.00  0.00    +0.000 A 
ATOM     23  C   UNL     1       4.477   6.195  17.877  0.00  0.00    +0.000 A 
ATOM     24  C   UNL     1       5.304   5.021  17.820  0.00  0.00    +0.000 A 
ATOM     25  C   UNL     1       5.019   3.964  18.587  0.00  0.00    +0.000 A 
ATOM     26  N   UNL     1       3.935   3.957  19.457  0.00  0.00    +0.000 N 
ENDBRANCH   1  22
BRANCH  10  27
ATOM     27  N   UNL     1      -4.089  12.577  22.774  0.00  0.00    +0.000 NA
ATOM     28  C   UNL     1      -4.717  12.963  24.049  0.00  0.00    +0.000 C 
ATOM     29  C   UNL     1      -6.154  12.445  24.163  0.00  0.00    +0.000 C 
ATOM     30  C   UNL     1      -7.000  12.879  22.971  0.00  0.00    +0.000 C 
ATOM     31  C   UNL     1      -6.313  12.474  21.679  0.00  0.00    +0.000 C 
ATOM     32  C   UNL     1      -4.891  13.022  21.635  0.00  0.00    +0.000 C 
ENDBRANCH  10  27
TORSDOF 2
ENDMDL
MODEL 3
REMARK VINA RESULT:      -9.2      7.749     12.039
REMARK  Name = 
REMARK  2 active torsions:
REMARK  status: ('A' for Active; 'I' for Inactive)
REMARK    1  A    between atoms: C_7  and  C_8
REMARK    2  A    between atoms: C_17  and  N_18
REMARK                            x       y       z     vdW  Elec       q    Type
REMARK                         _______ _______ _______ _____ _____    ______ ____
ROOT
ATOM      1  C   UNL     1       8.870  12.309  18.418  0.00  0.00    +0.000 A 
ATOM      2  C   UNL     1       9.609  11.717  19.456  0.00  0.00    +0.000 A 
ATOM      3  N   UNL     1       9.689  10.388  19.735  0.00  0.00    +0.000 NA
ATOM      4  C   UNL     1       8.942   9.627  18.900  0.00  0.00    +0.000 A 
ATOM      5  N   UNL     1       8.777   8.272  18.944  0.00  0.00    +0.000 NA
ATOM      6  C   UNL     1       7.944   8.037  17.950  0.00  0.00    +0.000 A 
ATOM      7  N   UNL     1       7.396   6.874  17.532  0.00  0.00    +0.000 N 
ATOM      8  C   UNL     1       7.575   5.716  18.401  0.00  0.00    +0.000 C 
ATOM      9  C   UNL     1       7.376   4.446  17.586  0.00  0.00    +0.000 C 
ATOM     10  C   UNL     1       6.038   4.392  16.821  0.00  0.00    +0.000 C 
ATOM     11  C   UNL     1       5.827   5.707  16.046  0.00  0.00    +0.000 C 
ATOM     12  C   UNL     1       6.107   6.970  16.844  0.00  0.00    +0.000 C 
ATOM     13  O   UNL     1       7.581   9.144  17.233  0.00  0.00    +0.000 OA
ATOM     14  C   UNL     1       8.208  10.161  17.861  0.00  0.00    +0.000 A 
ATOM     15  C   UNL     1       8.134  11.498  17.553  0.00  0.00    +0.000 A 
ENDROOT
BRANCH   1  22
ATOM     16  O   UNL     1      11.102  17.858  17.199  0.00  0.00    +0.000 OA
ATOM     17  C   UNL     1      11.090  16.638  17.349  0.00  0.00    +0.000 A 
ATOM     18  C   UNL     1      12.333  15.887  17.138  0.00  0.00    +0.000 A 
ATOM     19  C   UNL     1      12.305  14.565  17.307  0.00  0.00    +0.000 A 
ATOM     20  N   UNL     1      11.205  13.847  17.656  0.00  0.00    +0.000 NA
ATOM     21  C   UNL     1      10.094  14.499  17.842  0.00  0.00    +0.000 A 
ATOM     22  C   UNL     1       8.846  13.757  18.232  0.00  0.00    +0.000 A 
ATOM     23  C   UNL     1       7.707  14.436  18.447  0.00  0.00    +0.000 A 
ATOM     24  C   UNL     1       7.666  15.863  18.288  0.00  0.00    +0.000 A 
ATOM     25  C   UNL     1       8.768  16.530  17.932  0.00  0.00    +0.000 A 
ATOM     26  N   UNL     1       9.979  15.884  17.709  0.00  0.00    +0.000 N 
ENDBRANCH   1  22
BRANCH  10  27
ATOM     27  N   UNL     1       4.834   3.933  17.559  0.00  0.00    +0.000 NA
ATOM     28  C   UNL     1       5.022   4.000  19.018  0.00  0.00    +0.000 C 
ATOM     29  C   UNL     1       3.860   3.349  19.777  0.00  0.00    +0.000 C 
ATOM     30  C   UNL     1       2.520   3.941  19.360  0.00  0.00    +0.000 C 
ATOM     31  C   UNL     1       2.371   3.866  17.851  0.00  0.00    +0.000 C 
ATOM     32  C   UNL     1       3.559   4.530  17.163  0.00  0.00    +0.000 C 
ENDBRANCH  10  27
TORSDOF 2
ENDMDL
MODEL 4
REMARK VINA RESULT:      -9.2      7.678     11.823
REMARK  Name = 
REMARK  2 active torsions:
REMARK  status: ('A' for Active; 'I' for Inactive)
REMARK    1  A    between atoms: C_7  and  C_8
REMARK    2  A    between atoms: C_17  and  N_18
REMARK                            x       y       z     vdW  Elec       q    Type
REMARK                         _______ _______ _______ _____ _____    ______ ____
ROOT
ATOM      1  C   UNL     1       9.477  12.429  18.414  0.00  0.00    +0.000 A 
ATOM      2  C   UNL     1      10.083  11.852  19.543  0.00  0.00    +0.000 A 
ATOM      3  N   UNL     1      10.005  10.548  19.923  0.00  0.00    +0.000 NA
ATOM      4  C   UNL     1       9.237   9.800  19.095  0.00  0.00    +0.000 A 
ATOM      5  N   UNL     1       8.929   8.476  19.225  0.00  0.00    +0.000 NA
ATOM      6  C   UNL     1       8.140   8.247  18.194  0.00  0.00    +0.000 A 
ATOM      7  N   UNL     1       7.502   7.114  17.824  0.00  0.00    +0.000 N 
ATOM      8  C   UNL     1       7.503   6.018  18.786  0.00  0.00    +0.000 C 
ATOM      9  C   UNL     1       7.225   4.712  18.054  0.00  0.00    +0.000 C 
ATOM     10  C   UNL     1       5.940   4.730  17.201  0.00  0.00    +0.000 C 
ATOM     11  C   UNL     1       5.917   5.994  16.319  0.00  0.00    +0.000 C 
ATOM     12  C   UNL     1       6.277   7.283  17.041  0.00  0.00    +0.000 C 
ATOM     13  O   UNL     1       7.942   9.324  17.374  0.00  0.00    +0.000 OA
ATOM     14  C   UNL     1       8.631  10.320  17.970  0.00  0.00    +0.000 A 
ATOM     15  C   UNL     1       8.717  11.629  17.560  0.00  0.00    +0.000 A 
ENDROOT
BRANCH   1  22
ATOM     16  O   UNL     1       7.928  18.332  18.349  0.00  0.00    +0.000 OA
ATOM     17  C   UNL     1       7.843  17.131  18.594  0.00  0.00    +0.000 A 
ATOM     18  C   UNL     1       6.679  16.642  19.342  0.00  0.00    +0.000 A 
ATOM     19  C   UNL     1       6.601  15.335  19.597  0.00  0.00    +0.000 A 
ATOM     20  N   UNL     1       7.524  14.410  19.223  0.00  0.00    +0.000 NA
ATOM     21  C   UNL     1       8.564  14.831  18.564  0.00  0.00    +0.000 A 
ATOM     22  C   UNL     1       9.617  13.853  18.122  0.00  0.00    +0.000 A 
ATOM     23  C   UNL     1      10.676  14.286  17.420  0.00  0.00    +0.000 A 
ATOM     24  C   UNL     1      10.824  15.681  17.105  0.00  0.00    +0.000 A 
ATOM     25  C   UNL     1       9.899  16.559  17.502  0.00  0.00    +0.000 A 
ATOM     26  N   UNL     1       8.773  16.168  18.219  0.00  0.00    +0.000 N 
ENDBRANCH   1  22
BRANCH  10  27
ATOM     27  N   UNL     1       4.650   4.454  17.882  0.00  0.00    +0.000 NA
ATOM     28  C   UNL     1       3.648   3.891  16.962  0.00  0.00    +0.000 C 
ATOM     29  C   UNL     1       2.265   3.786  17.612  0.00  0.00    +0.000 C 
ATOM     30  C   UNL     1       2.320   3.006  18.919  0.00  0.00    +0.000 C 
ATOM     31  C   UNL     1       3.371   3.609  19.834  0.00  0.00    +0.000 C 
ATOM     32  C   UNL     1       4.719   3.682  19.123  0.00  0.00    +0.000 C 
ENDBRANCH  10  27
TORSDOF 2
ENDMDL
MODEL 5
REMARK VINA RESULT:      -8.7      1.471      2.474
REMARK  Name = 
REMARK  2 active torsions:
REMARK  status: ('A' for Active; 'I' for Inactive)
REMARK    1  A    between atoms: C_7  and  C_8
REMARK    2  A    between atoms: C_17  and  N_18
REMARK                            x       y       z     vdW  Elec       q    Type
REMARK                         _______ _______ _______ _____ _____    ______ ____
ROOT
ATOM      1  C   UNL     1       2.589   7.329  18.755  0.00  0.00    +0.000 A 
ATOM      2  C   UNL     1       2.233   7.978  17.561  0.00  0.00    +0.000 A 
ATOM      3  N   UNL     1       1.448   9.082  17.444  0.00  0.00    +0.000 NA
ATOM      4  C   UNL     1       0.987   9.531  18.637  0.00  0.00    +0.000 A 
ATOM      5  N   UNL     1       0.147  10.585  18.853  0.00  0.00    +0.000 NA
ATOM      6  C   UNL     1      -0.015  10.579  20.161  0.00  0.00    +0.000 A 
ATOM      7  N   UNL     1      -0.770  11.379  20.947  0.00  0.00    +0.000 N 
ATOM      8  C   UNL     1      -1.709  12.265  20.269  0.00  0.00    +0.000 C 
ATOM      9  C   UNL     1      -2.077  13.410  21.203  0.00  0.00    +0.000 C 
ATOM     10  C   UNL     1      -2.605  12.955  22.579  0.00  0.00    +0.000 C 
ATOM     11  C   UNL     1      -1.654  11.900  23.178  0.00  0.00    +0.000 C 
ATOM     12  C   UNL     1      -1.226  10.805  22.214  0.00  0.00    +0.000 C 
ATOM     13  O   UNL     1       0.694   9.613  20.822  0.00  0.00    +0.000 OA
ATOM     14  C   UNL     1       1.317   8.933  19.836  0.00  0.00    +0.000 A 
ATOM     15  C   UNL     1       2.125   7.831  19.971  0.00  0.00    +0.000 A 
ENDROOT
BRANCH   1  22
ATOM     16  O   UNL     1       7.567   3.953  17.714  0.00  0.00    +0.000 OA
ATOM     17  C   UNL     1       6.846   4.948  17.744  0.00  0.00    +0.000 A 
ATOM     18  C   UNL     1       7.376   6.220  17.238  0.00  0.00    +0.000 A 
ATOM     19  C   UNL     1       6.580   7.290  17.275  0.00  0.00    +0.000 A 
ATOM     20  N   UNL     1       5.308   7.300  17.754  0.00  0.00    +0.000 NA
ATOM     21  C   UNL     1       4.828   6.181  18.210  0.00  0.00    +0.000 A 
ATOM     22  C   UNL     1       3.425   6.131  18.749  0.00  0.00    +0.000 A 
ATOM     23  C   UNL     1       2.924   4.968  19.196  0.00  0.00    +0.000 A 
ATOM     24  C   UNL     1       3.723   3.774  19.183  0.00  0.00    +0.000 A 
ATOM     25  C   UNL     1       4.973   3.810  18.714  0.00  0.00    +0.000 A 
ATOM     26  N   UNL     1       5.543   4.981  18.225  0.00  0.00    +0.000 N 
ENDBRANCH   1  22
BRANCH  10  27
ATOM     27  N   UNL     1      -4.041  12.596  22.688  0.00  0.00    +0.000 NA
ATOM     28  C   UNL     1      -4.598  12.943  24.007  0.00  0.00    +0.000 C 
ATOM     29  C   UNL     1      -6.019  12.402  24.191  0.00  0.00    +0.000 C 
ATOM     30  C   UNL     1      -6.938  12.852  23.062  0.00  0.00    +0.000 C 
ATOM     31  C   UNL     1      -6.324  12.489  21.722  0.00  0.00    +0.000 C 
ATOM     32  C   UNL     1      -4.913  13.058  21.609  0.00  0.00    +0.000 C 
ENDBRANCH  10  27
TORSDOF 2
ENDMDL
MODEL 6
REMARK VINA RESULT:      -8.5      3.101      4.892
REMARK  Name = 
REMARK  2 active torsions:
REMARK  status: ('A' for Active; 'I' for Inactive)
REMARK    1  A    between atoms: C_7  and  C_8
REMARK    2  A    between atoms: C_17  and  N_18
REMARK                            x       y       z     vdW  Elec       q    Type
REMARK                         _______ _______ _______ _____ _____    ______ ____
ROOT
ATOM      1  C   UNL     1       2.435   6.764  18.806  0.00  0.00    +0.000 A 
ATOM      2  C   UNL     1       2.120   6.646  20.170  0.00  0.00    +0.000 A 
ATOM      3  N   UNL     1       1.510   7.583  20.943  0.00  0.00    +0.000 NA
ATOM      4  C   UNL     1       1.225   8.722  20.267  0.00  0.00    +0.000 A 
ATOM      5  N   UNL     1       0.656   9.859  20.766  0.00  0.00    +0.000 NA
ATOM      6  C   UNL     1       0.628  10.665  19.724  0.00  0.00    +0.000 A 
ATOM      7  N   UNL     1       0.200  11.944  19.626  0.00  0.00    +0.000 N 
ATOM      8  C   UNL     1      -0.101  12.631  20.877  0.00  0.00    +0.000 C 
ATOM      9  C   UNL     1      -1.025  13.807  20.589  0.00  0.00    +0.000 C 
ATOM     10  C   UNL     1      -0.493  14.776  19.513  0.00  0.00    +0.000 C 
ATOM     11  C   UNL     1      -0.042  13.979  18.273  0.00  0.00    +0.000 C 
ATOM     12  C   UNL     1       0.812  12.758  18.575  0.00  0.00    +0.000 C 
ATOM     13  O   UNL     1       1.106  10.120  18.564  0.00  0.00    +0.000 OA
ATOM     14  C   UNL     1       1.505   8.882  18.926  0.00  0.00    +0.000 A 
ATOM     15  C   UNL     1       2.102   7.937  18.127  0.00  0.00    +0.000 A 
ENDROOT
BRANCH   1  22
ATOM     16  O   UNL     1       6.978   4.006  15.806  0.00  0.00    +0.000 OA
ATOM     17  C   UNL     1       6.387   4.887  16.426  0.00  0.00    +0.000 A 
ATOM     18  C   UNL     1       7.085   6.149  16.700  0.00  0.00    +0.000 A 
ATOM     19  C   UNL     1       6.429   7.096  17.371  0.00  0.00    +0.000 A 
ATOM     20  N   UNL     1       5.155   6.985  17.833  0.00  0.00    +0.000 NA
ATOM     21  C   UNL     1       4.526   5.869  17.602  0.00  0.00    +0.000 A 
ATOM     22  C   UNL     1       3.115   5.691  18.087  0.00  0.00    +0.000 A 
ATOM     23  C   UNL     1       2.460   4.548  17.825  0.00  0.00    +0.000 A 
ATOM     24  C   UNL     1       3.103   3.485  17.103  0.00  0.00    +0.000 A 
ATOM     25  C   UNL     1       4.361   3.631  16.675  0.00  0.00    +0.000 A 
ATOM     26  N   UNL     1       5.085   4.796  16.904  0.00  0.00    +0.000 N 
ENDBRANCH   1  22
BRANCH  10  27
ATOM     27  N   UNL     1       0.471  15.822  19.934  0.00  0.00    +0.000 NA
ATOM     28  C   UNL     1       1.082  16.507  18.782  0.00  0.00    +0.000 C 
ATOM     29  C   UNL     1       2.214  17.448  19.208  0.00  0.00    +0.000 C 
ATOM     30  C   UNL     1       1.745  18.443  20.263  0.00  0.00    +0.000 C 
ATOM     31  C   UNL     1       1.111  17.701  21.425  0.00  0.00    +0.000 C 
ATOM     32  C   UNL     1      -0.003  16.785  20.929  0.00  0.00    +0.000 C 
ENDBRANCH  10  27
TORSDOF 2
ENDMDL
MODEL 7
REMARK VINA RESULT:      -8.3      0.778      1.261
REMARK  Name = 
REMARK  2 active torsions:
REMARK  status: ('A' for Active; 'I' for Inactive)
REMARK    1  A    between atoms: C_7  and  C_8
REMARK    2  A    between atoms: C_17  and  N_18
REMARK                            x       y       z     vdW  Elec       q    Type
REMARK                         _______ _______ _______ _____ _____    ______ ____
ROOT
ATOM      1  C   UNL     1       2.856   7.114  18.728  0.00  0.00    +0.000 A 
ATOM      2  C   UNL     1       2.856   7.811  17.508  0.00  0.00    +0.000 A 
ATOM      3  N   UNL     1       2.277   9.017  17.266  0.00  0.00    +0.000 NA
ATOM      4  C   UNL     1       1.643   9.526  18.350  0.00  0.00    +0.000 A 
ATOM      5  N   UNL     1       0.934  10.691  18.421  0.00  0.00    +0.000 NA
ATOM      6  C   UNL     1       0.500  10.705  19.665  0.00  0.00    +0.000 A 
ATOM      7  N   UNL     1      -0.283  11.605  20.302  0.00  0.00    +0.000 N 
ATOM      8  C   UNL     1      -0.923  12.619  19.472  0.00  0.00    +0.000 C 
ATOM      9  C   UNL     1      -1.313  13.804  20.346  0.00  0.00    +0.000 C 
ATOM     10  C   UNL     1      -2.179  13.427  21.565  0.00  0.00    +0.000 C 
ATOM     11  C   UNL     1      -1.536  12.244  22.315  0.00  0.00    +0.000 C 
ATOM     12  C   UNL     1      -1.073  11.101  21.427  0.00  0.00    +0.000 C 
ATOM     13  O   UNL     1       0.910   9.645  20.427  0.00  0.00    +0.000 OA
ATOM     14  C   UNL     1       1.624   8.884  19.571  0.00  0.00    +0.000 A 
ATOM     15  C   UNL     1       2.221   7.676  19.836  0.00  0.00    +0.000 A 
ENDROOT
BRANCH   1  22
ATOM     16  O   UNL     1       3.209   1.025  18.959  0.00  0.00    +0.000 OA
ATOM     17  C   UNL     1       2.699   2.137  18.840  0.00  0.00    +0.000 A 
ATOM     18  C   UNL     1       1.256   2.230  18.592  0.00  0.00    +0.000 A 
ATOM     19  C   UNL     1       0.717   3.443  18.468  0.00  0.00    +0.000 A 
ATOM     20  N   UNL     1       1.404   4.614  18.546  0.00  0.00    +0.000 NA
ATOM     21  C   UNL     1       2.686   4.546  18.759  0.00  0.00    +0.000 A 
ATOM     22  C   UNL     1       3.496   5.808  18.858  0.00  0.00    +0.000 A 
ATOM     23  C   UNL     1       4.814   5.736  19.103  0.00  0.00    +0.000 A 
ATOM     24  C   UNL     1       5.462   4.462  19.252  0.00  0.00    +0.000 A 
ATOM     25  C   UNL     1       4.751   3.334  19.157  0.00  0.00    +0.000 A 
ATOM     26  N   UNL     1       3.381   3.345  18.919  0.00  0.00    +0.000 N 
ENDBRANCH   1  22
BRANCH  10  27
ATOM     27  N   UNL     1      -3.642  13.281  21.361  0.00  0.00    +0.000 NA
ATOM     28  C   UNL     1      -3.957  12.581  20.104  0.00  0.00    +0.000 C 
ATOM     29  C   UNL     1      -5.458  12.599  19.797  0.00  0.00    +0.000 C 
ATOM     30  C   UNL     1      -6.273  12.048  20.961  0.00  0.00    +0.000 C 
ATOM     31  C   UNL     1      -5.910  12.785  22.237  0.00  0.00    +0.000 C 
ATOM     32  C   UNL     1      -4.405  12.727  22.479  0.00  0.00    +0.000 C 
ENDBRANCH  10  27
TORSDOF 2
ENDMDL
MODEL 8
REMARK VINA RESULT:      -8.3      0.996      1.344
REMARK  Name = 
REMARK  2 active torsions:
REMARK  status: ('A' for Active; 'I' for Inactive)
REMARK    1  A    between atoms: C_7  and  C_8
REMARK    2  A    between atoms: C_17  and  N_18
REMARK                            x       y       z     vdW  Elec       q    Type
REMARK                         _______ _______ _______ _____ _____    ______ ____
ROOT
ATOM      1  C   UNL     1       2.538   7.428  18.436  0.00  0.00    +0.000 A 
ATOM      2  C   UNL     1       2.628   8.396  17.422  0.00  0.00    +0.000 A 
ATOM      3  N   UNL     1       2.180   9.678  17.487  0.00  0.00    +0.000 NA
ATOM      4  C   UNL     1       1.586   9.971  18.669  0.00  0.00    +0.000 A 
ATOM      5  N   UNL     1       1.000  11.151  19.029  0.00  0.00    +0.000 NA
ATOM      6  C   UNL     1       0.552  10.908  20.244  0.00  0.00    +0.000 A 
ATOM      7  N   UNL     1      -0.143  11.702  21.089  0.00  0.00    +0.000 N 
ATOM      8  C   UNL     1      -0.663  12.948  20.537  0.00  0.00    +0.000 C 
ATOM      9  C   UNL     1      -0.942  13.919  21.677  0.00  0.00    +0.000 C 
ATOM     10  C   UNL     1      -1.859  13.350  22.778  0.00  0.00    +0.000 C 
ATOM     11  C   UNL     1      -1.352  11.960  23.211  0.00  0.00    +0.000 C 
ATOM     12  C   UNL     1      -0.997  11.025  22.066  0.00  0.00    +0.000 C 
ATOM     13  O   UNL     1       0.839   9.658  20.721  0.00  0.00    +0.000 OA
ATOM     14  C   UNL     1       1.483   9.058  19.698  0.00  0.00    +0.000 A 
ATOM     15  C   UNL     1       1.949   7.766  19.655  0.00  0.00    +0.000 A 
ENDROOT
BRANCH   1  22
ATOM     16  O   UNL     1       2.890   1.390  19.260  0.00  0.00    +0.000 OA
ATOM     17  C   UNL     1       2.480   2.541  19.397  0.00  0.00    +0.000 A 
ATOM     18  C   UNL     1       1.362   2.788  20.315  0.00  0.00    +0.000 A 
ATOM     19  C   UNL     1       0.931   4.042  20.455  0.00  0.00    +0.000 A 
ATOM     20  N   UNL     1       1.442   5.120  19.804  0.00  0.00    +0.000 NA
ATOM     21  C   UNL     1       2.430   4.915  18.983  0.00  0.00    +0.000 A 
ATOM     22  C   UNL     1       3.038   6.070  18.238  0.00  0.00    +0.000 A 
ATOM     23  C   UNL     1       4.074   5.858  17.410  0.00  0.00    +0.000 A 
ATOM     24  C   UNL     1       4.594   4.533  17.213  0.00  0.00    +0.000 A 
ATOM     25  C   UNL     1       4.054   3.498  17.865  0.00  0.00    +0.000 A 
ATOM     26  N   UNL     1       2.990   3.657  18.745  0.00  0.00    +0.000 N 
ENDBRANCH   1  22
BRANCH  10  27
ATOM     27  N   UNL     1      -3.326  13.409  22.560  0.00  0.00    +0.000 NA
ATOM     28  C   UNL     1      -3.698  13.021  21.189  0.00  0.00    +0.000 C 
ATOM     29  C   UNL     1      -5.183  13.266  20.905  0.00  0.00    +0.000 C 
ATOM     30  C   UNL     1      -6.070  12.581  21.938  0.00  0.00    +0.000 C 
ATOM     31  C   UNL     1      -5.647  12.997  23.335  0.00  0.00    +0.000 C 
ATOM     32  C   UNL     1      -4.161  12.725  23.547  0.00  0.00    +0.000 C 
ENDBRANCH  10  27
TORSDOF 2
ENDMDL
MODEL 9
REMARK VINA RESULT:      -8.3      1.552      2.236
REMARK  Name = 
REMARK  2 active torsions:
REMARK  status: ('A' for Active; 'I' for Inactive)
REMARK    1  A    between atoms: C_7  and  C_8
REMARK    2  A    between atoms: C_17  and  N_18
REMARK                            x       y       z     vdW  Elec       q    Type
REMARK                         _______ _______ _______ _____ _____    ______ ____
ROOT
ATOM      1  C   UNL     1       2.328   7.551  18.708  0.00  0.00    +0.000 A 
ATOM      2  C   UNL     1       2.209   8.414  17.606  0.00  0.00    +0.000 A 
ATOM      3  N   UNL     1       1.632   9.646  17.604  0.00  0.00    +0.000 NA
ATOM      4  C   UNL     1       1.130   9.997  18.812  0.00  0.00    +0.000 A 
ATOM      5  N   UNL     1       0.456  11.143  19.125  0.00  0.00    +0.000 NA
ATOM      6  C   UNL     1       0.162  10.982  20.399  0.00  0.00    +0.000 A 
ATOM      7  N   UNL     1      -0.529  11.784  21.240  0.00  0.00    +0.000 N 
ATOM      8  C   UNL     1      -1.235  12.910  20.637  0.00  0.00    +0.000 C 
ATOM      9  C   UNL     1      -1.504  13.959  21.708  0.00  0.00    +0.000 C 
ATOM     10  C   UNL     1      -2.239  13.416  22.950  0.00  0.00    +0.000 C 
ATOM     11  C   UNL     1      -1.541  12.136  23.450  0.00  0.00    +0.000 C 
ATOM     12  C   UNL     1      -1.202  11.129  22.362  0.00  0.00    +0.000 C 
ATOM     13  O   UNL     1       0.631   9.822  20.954  0.00  0.00    +0.000 OA
ATOM     14  C   UNL     1       1.231   9.188  19.925  0.00  0.00    +0.000 A 
ATOM     15  C   UNL     1       1.830   7.951  19.949  0.00  0.00    +0.000 A 
ENDROOT
BRANCH   1  22
ATOM     16  O   UNL     1       5.958   3.260  16.328  0.00  0.00    +0.000 OA
ATOM     17  C   UNL     1       5.428   4.360  16.468  0.00  0.00    +0.000 A 
ATOM     18  C   UNL     1       5.795   5.444  15.550  0.00  0.00    +0.000 A 
ATOM     19  C   UNL     1       5.208   6.630  15.712  0.00  0.00    +0.000 A 
ATOM     20  N   UNL     1       4.293   6.923  16.674  0.00  0.00    +0.000 NA
ATOM     21  C   UNL     1       3.962   5.972  17.499  0.00  0.00    +0.000 A 
ATOM     22  C   UNL     1       2.953   6.237  18.580  0.00  0.00    +0.000 A 
ATOM     23  C   UNL     1       2.594   5.247  19.414  0.00  0.00    +0.000 A 
ATOM     24  C   UNL     1       3.183   3.942  19.295  0.00  0.00    +0.000 A 
ATOM     25  C   UNL     1       4.087   3.699  18.342  0.00  0.00    +0.000 A 
ATOM     26  N   UNL     1       4.488   4.680  17.441  0.00  0.00    +0.000 N 
ENDBRANCH   1  22
BRANCH  10  27
ATOM     27  N   UNL     1      -3.718  13.307  22.891  0.00  0.00    +0.000 NA
ATOM     28  C   UNL     1      -4.297  12.932  24.193  0.00  0.00    +0.000 C 
ATOM     29  C   UNL     1      -5.795  12.631  24.089  0.00  0.00    +0.000 C 
ATOM     30  C   UNL     1      -6.555  13.789  23.454  0.00  0.00    +0.000 C 
ATOM     31  C   UNL     1      -5.921  14.153  22.124  0.00  0.00    +0.000 C 
ATOM     32  C   UNL     1      -4.433  14.438  22.302  0.00  0.00    +0.000 C 
ENDBRANCH  10  27
TORSDOF 2
ENDMDL
