MODEL 1
REMARK VINA RESULT:      -7.9      0.000      0.000
REMARK  Name = 
REMARK  8 active torsions:
REMARK  status: ('A' for Active; 'I' for Inactive)
REMARK    1  A    between atoms: C_1  and  O_2
REMARK    2  A    between atoms: O_2  and  C_3
REMARK    3  A    between atoms: C_6  and  N_7
REMARK    4  A    between atoms: C_8  and  C_10
REMARK    5  A    between atoms: C_13  and  N_14
REMARK    6  A    between atoms: C_15  and  C_17
REMARK    7  A    between atoms: C_17  and  N_18
REMARK    8  A    between atoms: C_21  and  C_22
REMARK                            x       y       z     vdW  Elec       q    Type
REMARK                         _______ _______ _______ _____ _____    ______ ____
ROOT
ATOM      1  C   UNL     1       1.193   9.497  19.957  0.00  0.00    +0.000 A 
ATOM      2  C   UNL     1       1.540   8.318  20.643  0.00  0.00    +0.000 A 
ATOM      3  C   UNL     1       2.095   7.230  19.967  0.00  0.00    +0.000 A 
ATOM      4  C   UNL     1       2.246   7.280  18.585  0.00  0.00    +0.000 A 
ATOM      5  C   UNL     1       1.910   8.453  17.893  0.00  0.00    +0.000 A 
ATOM      6  C   UNL     1       1.391   9.562  18.576  0.00  0.00    +0.000 A 
ENDROOT
BRANCH   1   8
ATOM      7  N   UNL     1      -0.783  10.795  20.610  0.00  0.00    +0.000 N 
ATOM      8  C   UNL     1       0.586  10.592  20.756  0.00  0.00    +0.000 C 
ATOM      9  O   UNL     1       1.339  11.256  21.458  0.00  0.00    +0.000 OA
ATOM     10  H   UNL     1      -1.279  10.190  19.966  0.00  0.00    +0.000 HD
BRANCH   7  14
ATOM     11  C   UNL     1      -3.106  13.787  22.504  0.00  0.00    +0.000 A 
ATOM     12  C   UNL     1      -2.833  13.881  21.143  0.00  0.00    +0.000 A 
ATOM     13  C   UNL     1      -2.070  12.904  20.497  0.00  0.00    +0.000 A 
ATOM     14  C   UNL     1      -1.551  11.821  21.206  0.00  0.00    +0.000 A 
ATOM     15  C   UNL     1      -1.812  11.738  22.580  0.00  0.00    +0.000 A 
ATOM     16  C   UNL     1      -2.585  12.714  23.227  0.00  0.00    +0.000 A 
BRANCH  11  18
ATOM     17  C   UNL     1      -5.038  14.438  23.699  0.00  0.00    +0.000 C 
ATOM     18  O   UNL     1      -3.851  14.813  23.013  0.00  0.00    +0.000 OA
ENDBRANCH  11  18
ENDBRANCH   7  14
ENDBRANCH   1   8
BRANCH   4  19
ATOM     19  N   UNL     1       2.704   6.126  17.917  0.00  0.00    +0.000 N 
ATOM     20  C   UNL     1       4.047   5.947  17.622  0.00  0.00    +0.000 C 
ATOM     21  O   UNL     1       4.945   6.731  17.926  0.00  0.00    +0.000 OA
ATOM     22  H   UNL     1       2.081   5.670  17.258  0.00  0.00    +0.000 HD
BRANCH  20  23
ATOM     23  C   UNL     1       4.356   4.647  16.878  0.00  0.00    +0.000 C 
BRANCH  23  24
ATOM     24  N   UNL     1       4.050   3.407  17.653  0.00  0.00    +0.000 NA
ATOM     25  C   UNL     1       4.453   3.564  19.065  0.00  0.00    +0.000 C 
ATOM     26  C   UNL     1       4.024   2.366  19.921  0.00  0.00    +0.000 C 
ATOM     27  C   UNL     1       2.508   2.158  19.878  0.00  0.00    +0.000 C 
ATOM     28  C   UNL     1       2.071   2.038  18.417  0.00  0.00    +0.000 C 
ATOM     29  C   UNL     1       2.581   3.202  17.563  0.00  0.00    +0.000 C 
BRANCH  27  30
ATOM     30  C   UNL     1       1.760   3.262  20.622  0.00  0.00    +0.000 C 
ATOM     31  N   UNL     1       2.141   3.457  21.919  0.00  0.00    +0.000 N 
ATOM     32  O   UNL     1       0.861   3.941  20.138  0.00  0.00    +0.000 OA
ATOM     33  H   UNL     1       2.747   2.822  22.417  0.00  0.00    +0.000 HD
ATOM     34  H   UNL     1       1.627   4.148  22.451  0.00  0.00    +0.000 HD
ENDBRANCH  27  30
ENDBRANCH  23  24
ENDBRANCH  20  23
ENDBRANCH   4  19
TORSDOF 7
ENDMDL
MODEL 2
REMARK VINA RESULT:      -7.9      6.466      8.790
REMARK  Name = 
REMARK  8 active torsions:
REMARK  status: ('A' for Active; 'I' for Inactive)
REMARK    1  A    between atoms: C_1  and  O_2
REMARK    2  A    between atoms: O_2  and  C_3
REMARK    3  A    between atoms: C_6  and  N_7
REMARK    4  A    between atoms: C_8  and  C_10
REMARK    5  A    between atoms: C_13  and  N_14
REMARK    6  A    between atoms: C_15  and  C_17
REMARK    7  A    between atoms: C_17  and  N_18
REMARK    8  A    between atoms: C_21  and  C_22
REMARK                            x       y       z     vdW  Elec       q    Type
REMARK                         _______ _______ _______ _____ _____    ______ ____
ROOT
ATOM      1  C   UNL     1       8.398   8.658  18.552  0.00  0.00    +0.000 A 
ATOM      2  C   UNL     1       7.510   8.675  17.459  0.00  0.00    +0.000 A 
ATOM      3  C   UNL     1       6.796   7.532  17.095  0.00  0.00    +0.000 A 
ATOM      4  C   UNL     1       7.011   6.338  17.775  0.00  0.00    +0.000 A 
ATOM      5  C   UNL     1       7.889   6.312  18.869  0.00  0.00    +0.000 A 
ATOM      6  C   UNL     1       8.576   7.469  19.263  0.00  0.00    +0.000 A 
ENDROOT
BRANCH   1   8
ATOM      7  N   UNL     1       9.415  10.748  17.770  0.00  0.00    +0.000 N 
ATOM      8  C   UNL     1       9.131   9.914  18.847  0.00  0.00    +0.000 C 
ATOM      9  O   UNL     1       9.462  10.110  20.010  0.00  0.00    +0.000 OA
ATOM     10  H   UNL     1       9.109  10.445  16.852  0.00  0.00    +0.000 HD
BRANCH   7  14
ATOM     11  C   UNL     1      11.546  14.406  17.862  0.00  0.00    +0.000 A 
ATOM     12  C   UNL     1      12.221  13.219  17.594  0.00  0.00    +0.000 A 
ATOM     13  C   UNL     1      11.536  12.001  17.556  0.00  0.00    +0.000 A 
ATOM     14  C   UNL     1      10.165  11.945  17.804  0.00  0.00    +0.000 A 
ATOM     15  C   UNL     1       9.491  13.139  18.092  0.00  0.00    +0.000 A 
ATOM     16  C   UNL     1      10.177  14.363  18.122  0.00  0.00    +0.000 A 
BRANCH  11  18
ATOM     17  C   UNL     1      11.748  16.705  17.353  0.00  0.00    +0.000 C 
ATOM     18  O   UNL     1      12.333  15.523  17.882  0.00  0.00    +0.000 OA
ENDBRANCH  11  18
ENDBRANCH   7  14
ENDBRANCH   1   8
BRANCH   4  19
ATOM     19  N   UNL     1       6.361   5.175  17.315  0.00  0.00    +0.000 N 
ATOM     20  C   UNL     1       4.978   5.099  17.249  0.00  0.00    +0.000 C 
ATOM     21  O   UNL     1       4.208   6.011  17.547  0.00  0.00    +0.000 OA
ATOM     22  H   UNL     1       6.809   4.277  17.469  0.00  0.00    +0.000 HD
BRANCH  20  23
ATOM     23  C   UNL     1       4.449   3.756  16.744  0.00  0.00    +0.000 C 
BRANCH  23  24
ATOM     24  N   UNL     1       4.052   2.805  17.825  0.00  0.00    +0.000 NA
ATOM     25  C   UNL     1       4.446   3.330  19.149  0.00  0.00    +0.000 C 
ATOM     26  C   UNL     1       3.927   2.449  20.293  0.00  0.00    +0.000 C 
ATOM     27  C   UNL     1       2.401   2.328  20.262  0.00  0.00    +0.000 C 
ATOM     28  C   UNL     1       1.977   1.828  18.880  0.00  0.00    +0.000 C 
ATOM     29  C   UNL     1       2.574   2.671  17.750  0.00  0.00    +0.000 C 
BRANCH  27  30
ATOM     30  C   UNL     1       1.718   3.640  20.643  0.00  0.00    +0.000 C 
ATOM     31  N   UNL     1       0.423   3.769  20.229  0.00  0.00    +0.000 N 
ATOM     32  O   UNL     1       2.258   4.551  21.261  0.00  0.00    +0.000 OA
ATOM     33  H   UNL     1      -0.013   3.133  19.577  0.00  0.00    +0.000 HD
ATOM     34  H   UNL     1      -0.037   4.649  20.423  0.00  0.00    +0.000 HD
ENDBRANCH  27  30
ENDBRANCH  23  24
ENDBRANCH  20  23
ENDBRANCH   4  19
TORSDOF 7
ENDMDL
MODEL 3
REMARK VINA RESULT:      -7.9      2.981      4.317
REMARK  Name = 
REMARK  8 active torsions:
REMARK  status: ('A' for Active; 'I' for Inactive)
REMARK    1  A    between atoms: C_1  and  O_2
REMARK    2  A    between atoms: O_2  and  C_3
REMARK    3  A    between atoms: C_6  and  N_7
REMARK    4  A    between atoms: C_8  and  C_10
REMARK    5  A    between atoms: C_13  and  N_14
REMARK    6  A    between atoms: C_15  and  C_17
REMARK    7  A    between atoms: C_17  and  N_18
REMARK    8  A    between atoms: C_21  and  C_22
REMARK                            x       y       z     vdW  Elec       q    Type
REMARK                         _______ _______ _______ _____ _____    ______ ____
ROOT
ATOM      1  C   UNL     1       0.641   9.451  18.799  0.00  0.00    +0.000 A 
ATOM      2  C   UNL     1       0.716   8.874  20.081  0.00  0.00    +0.000 A 
ATOM      3  C   UNL     1       1.677   7.906  20.378  0.00  0.00    +0.000 A 
ATOM      4  C   UNL     1       2.533   7.453  19.379  0.00  0.00    +0.000 A 
ATOM      5  C   UNL     1       2.470   8.026  18.101  0.00  0.00    +0.000 A 
ATOM      6  C   UNL     1       1.533   9.027  17.811  0.00  0.00    +0.000 A 
ENDROOT
BRANCH   1   8
ATOM      7  N   UNL     1      -1.719   9.966  18.373  0.00  0.00    +0.000 N 
ATOM      8  C   UNL     1      -0.430  10.453  18.569  0.00  0.00    +0.000 C 
ATOM      9  O   UNL     1      -0.097  11.631  18.536  0.00  0.00    +0.000 OA
ATOM     10  H   UNL     1      -1.846   8.960  18.393  0.00  0.00    +0.000 HD
BRANCH   7  14
ATOM     11  C   UNL     1      -5.189  12.256  17.573  0.00  0.00    +0.000 A 
ATOM     12  C   UNL     1      -4.632  11.471  16.568  0.00  0.00    +0.000 A 
ATOM     13  C   UNL     1      -3.488  10.705  16.811  0.00  0.00    +0.000 A 
ATOM     14  C   UNL     1      -2.870  10.725  18.061  0.00  0.00    +0.000 A 
ATOM     15  C   UNL     1      -3.422  11.531  19.065  0.00  0.00    +0.000 A 
ATOM     16  C   UNL     1      -4.575  12.293  18.824  0.00  0.00    +0.000 A 
BRANCH  11  18
ATOM     17  C   UNL     1      -7.438  12.815  18.034  0.00  0.00    +0.000 C 
ATOM     18  O   UNL     1      -6.297  12.965  17.201  0.00  0.00    +0.000 OA
ENDBRANCH  11  18
ENDBRANCH   7  14
ENDBRANCH   1   8
BRANCH   4  19
ATOM     19  N   UNL     1       3.417   6.397  19.680  0.00  0.00    +0.000 N 
ATOM     20  C   UNL     1       3.108   5.083  19.360  0.00  0.00    +0.000 C 
ATOM     21  O   UNL     1       2.085   4.722  18.779  0.00  0.00    +0.000 OA
ATOM     22  H   UNL     1       4.016   6.485  20.495  0.00  0.00    +0.000 HD
BRANCH  20  23
ATOM     23  C   UNL     1       4.175   4.071  19.778  0.00  0.00    +0.000 C 
BRANCH  23  24
ATOM     24  N   UNL     1       5.242   3.844  18.757  0.00  0.00    +0.000 NA
ATOM     25  C   UNL     1       4.708   4.044  17.394  0.00  0.00    +0.000 C 
ATOM     26  C   UNL     1       5.809   3.961  16.329  0.00  0.00    +0.000 C 
ATOM     27  C   UNL     1       6.905   5.002  16.569  0.00  0.00    +0.000 C 
ATOM     28  C   UNL     1       7.435   4.834  17.994  0.00  0.00    +0.000 C 
ATOM     29  C   UNL     1       6.312   4.836  19.035  0.00  0.00    +0.000 C 
BRANCH  27  30
ATOM     30  C   UNL     1       6.413   6.421  16.293  0.00  0.00    +0.000 C 
ATOM     31  N   UNL     1       7.116   7.416  16.909  0.00  0.00    +0.000 N 
ATOM     32  O   UNL     1       5.449   6.697  15.588  0.00  0.00    +0.000 OA
ATOM     33  H   UNL     1       7.803   7.242  17.628  0.00  0.00    +0.000 HD
ATOM     34  H   UNL     1       6.781   8.363  16.785  0.00  0.00    +0.000 HD
ENDBRANCH  27  30
ENDBRANCH  23  24
ENDBRANCH  20  23
ENDBRANCH   4  19
TORSDOF 7
ENDMDL
MODEL 4
REMARK VINA RESULT:      -7.9      6.260      8.616
REMARK  Name = 
REMARK  8 active torsions:
REMARK  status: ('A' for Active; 'I' for Inactive)
REMARK    1  A    between atoms: C_1  and  O_2
REMARK    2  A    between atoms: O_2  and  C_3
REMARK    3  A    between atoms: C_6  and  N_7
REMARK    4  A    between atoms: C_8  and  C_10
REMARK    5  A    between atoms: C_13  and  N_14
REMARK    6  A    between atoms: C_15  and  C_17
REMARK    7  A    between atoms: C_17  and  N_18
REMARK    8  A    between atoms: C_21  and  C_22
REMARK                            x       y       z     vdW  Elec       q    Type
REMARK                         _______ _______ _______ _____ _____    ______ ____
ROOT
ATOM      1  C   UNL     1       8.225   8.603  18.446  0.00  0.00    +0.000 A 
ATOM      2  C   UNL     1       7.218   8.687  17.465  0.00  0.00    +0.000 A 
ATOM      3  C   UNL     1       6.481   7.560  17.095  0.00  0.00    +0.000 A 
ATOM      4  C   UNL     1       6.787   6.321  17.649  0.00  0.00    +0.000 A 
ATOM      5  C   UNL     1       7.784   6.229  18.632  0.00  0.00    +0.000 A 
ATOM      6  C   UNL     1       8.497   7.367  19.036  0.00  0.00    +0.000 A 
ENDROOT
BRANCH   1   8
ATOM      7  N   UNL     1       9.014  10.823  17.763  0.00  0.00    +0.000 N 
ATOM      8  C   UNL     1       8.972   9.848  18.756  0.00  0.00    +0.000 C 
ATOM      9  O   UNL     1       9.524   9.914  19.848  0.00  0.00    +0.000 OA
ATOM     10  H   UNL     1       8.539  10.621  16.890  0.00  0.00    +0.000 HD
BRANCH   7  14
ATOM     11  C   UNL     1      11.031  14.544  17.889  0.00  0.00    +0.000 A 
ATOM     12  C   UNL     1      11.740  13.382  17.598  0.00  0.00    +0.000 A 
ATOM     13  C   UNL     1      11.094  12.143  17.549  0.00  0.00    +0.000 A 
ATOM     14  C   UNL     1       9.727  12.042  17.808  0.00  0.00    +0.000 A 
ATOM     15  C   UNL     1       9.019  13.210  18.119  0.00  0.00    +0.000 A 
ATOM     16  C   UNL     1       9.667  14.454  18.160  0.00  0.00    +0.000 A 
BRANCH  11  18
ATOM     17  C   UNL     1      11.349  16.736  17.067  0.00  0.00    +0.000 C 
ATOM     18  O   UNL     1      11.783  15.684  17.918  0.00  0.00    +0.000 OA
ENDBRANCH  11  18
ENDBRANCH   7  14
ENDBRANCH   1   8
BRANCH   4  19
ATOM     19  N   UNL     1       6.103   5.185  17.174  0.00  0.00    +0.000 N 
ATOM     20  C   UNL     1       5.551   4.257  18.045  0.00  0.00    +0.000 C 
ATOM     21  O   UNL     1       5.578   4.341  19.272  0.00  0.00    +0.000 OA
ATOM     22  H   UNL     1       6.387   4.785  16.284  0.00  0.00    +0.000 HD
BRANCH  20  23
ATOM     23  C   UNL     1       4.864   3.080  17.352  0.00  0.00    +0.000 C 
BRANCH  23  24
ATOM     24  N   UNL     1       3.418   2.924  17.692  0.00  0.00    +0.000 NA
ATOM     25  C   UNL     1       3.259   2.175  18.955  0.00  0.00    +0.000 C 
ATOM     26  C   UNL     1       1.795   2.121  19.410  0.00  0.00    +0.000 C 
ATOM     27  C   UNL     1       1.215   3.523  19.611  0.00  0.00    +0.000 C 
ATOM     28  C   UNL     1       1.414   4.324  18.323  0.00  0.00    +0.000 C 
ATOM     29  C   UNL     1       2.868   4.296  17.841  0.00  0.00    +0.000 C 
BRANCH  27  30
ATOM     30  C   UNL     1       1.817   4.219  20.830  0.00  0.00    +0.000 C 
ATOM     31  N   UNL     1       1.916   5.578  20.740  0.00  0.00    +0.000 N 
ATOM     32  O   UNL     1       2.214   3.640  21.835  0.00  0.00    +0.000 OA
ATOM     33  H   UNL     1       1.767   6.086  19.881  0.00  0.00    +0.000 HD
ATOM     34  H   UNL     1       2.359   6.060  21.513  0.00  0.00    +0.000 HD
ENDBRANCH  27  30
ENDBRANCH  23  24
ENDBRANCH  20  23
ENDBRANCH   4  19
TORSDOF 7
ENDMDL
MODEL 5
REMARK VINA RESULT:      -7.9      2.129      3.840
REMARK  Name = 
REMARK  8 active torsions:
REMARK  status: ('A' for Active; 'I' for Inactive)
REMARK    1  A    between atoms: C_1  and  O_2
REMARK    2  A    between atoms: O_2  and  C_3
REMARK    3  A    between atoms: C_6  and  N_7
REMARK    4  A    between atoms: C_8  and  C_10
REMARK    5  A    between atoms: C_13  and  N_14
REMARK    6  A    between atoms: C_15  and  C_17
REMARK    7  A    between atoms: C_17  and  N_18
REMARK    8  A    between atoms: C_21  and  C_22
REMARK                            x       y       z     vdW  Elec       q    Type
REMARK                         _______ _______ _______ _____ _____    ______ ____
ROOT
ATOM      1  C   UNL     1      -0.112  10.296  21.167  0.00  0.00    +0.000 A 
ATOM      2  C   UNL     1       0.185  10.074  19.808  0.00  0.00    +0.000 A 
ATOM      3  C   UNL     1       1.043   9.043  19.419  0.00  0.00    +0.000 A 
ATOM      4  C   UNL     1       1.669   8.264  20.386  0.00  0.00    +0.000 A 
ATOM      5  C   UNL     1       1.375   8.473  21.742  0.00  0.00    +0.000 A 
ATOM      6  C   UNL     1       0.482   9.481  22.133  0.00  0.00    +0.000 A 
ENDROOT
BRANCH   1   8
ATOM      7  N   UNL     1      -1.010  11.892  22.798  0.00  0.00    +0.000 N 
ATOM      8  C   UNL     1      -1.014  11.431  21.485  0.00  0.00    +0.000 C 
ATOM      9  O   UNL     1      -1.720  11.857  20.579  0.00  0.00    +0.000 OA
ATOM     10  H   UNL     1      -0.397  11.422  23.456  0.00  0.00    +0.000 HD
BRANCH   7  14
ATOM     11  C   UNL     1      -3.601  14.837  24.393  0.00  0.00    +0.000 A 
ATOM     12  C   UNL     1      -2.271  15.153  24.134  0.00  0.00    +0.000 A 
ATOM     13  C   UNL     1      -1.399  14.196  23.605  0.00  0.00    +0.000 A 
ATOM     14  C   UNL     1      -1.838  12.899  23.342  0.00  0.00    +0.000 A 
ATOM     15  C   UNL     1      -3.173  12.578  23.621  0.00  0.00    +0.000 A 
ATOM     16  C   UNL     1      -4.050  13.540  24.144  0.00  0.00    +0.000 A 
BRANCH  11  18
ATOM     17  C   UNL     1      -4.316  17.080  24.198  0.00  0.00    +0.000 C 
ATOM     18  O   UNL     1      -4.342  15.856  24.920  0.00  0.00    +0.000 OA
ENDBRANCH  11  18
ENDBRANCH   7  14
ENDBRANCH   1   8
BRANCH   4  19
ATOM     19  N   UNL     1       2.615   7.306  19.968  0.00  0.00    +0.000 N 
ATOM     20  C   UNL     1       2.337   5.948  20.017  0.00  0.00    +0.000 C 
ATOM     21  O   UNL     1       1.270   5.461  20.388  0.00  0.00    +0.000 OA
ATOM     22  H   UNL     1       3.601   7.521  20.076  0.00  0.00    +0.000 HD
BRANCH  20  23
ATOM     23  C   UNL     1       3.485   5.057  19.543  0.00  0.00    +0.000 C 
BRANCH  23  24
ATOM     24  N   UNL     1       3.739   5.111  18.071  0.00  0.00    +0.000 NA
ATOM     25  C   UNL     1       4.443   6.358  17.710  0.00  0.00    +0.000 C 
ATOM     26  C   UNL     1       4.848   6.382  16.231  0.00  0.00    +0.000 C 
ATOM     27  C   UNL     1       5.756   5.201  15.877  0.00  0.00    +0.000 C 
ATOM     28  C   UNL     1       5.055   3.905  16.287  0.00  0.00    +0.000 C 
ATOM     29  C   UNL     1       4.586   3.935  17.744  0.00  0.00    +0.000 C 
BRANCH  27  30
ATOM     30  C   UNL     1       7.141   5.340  16.504  0.00  0.00    +0.000 C 
ATOM     31  N   UNL     1       7.589   6.620  16.661  0.00  0.00    +0.000 N 
ATOM     32  O   UNL     1       7.848   4.397  16.844  0.00  0.00    +0.000 OA
ATOM     33  H   UNL     1       7.130   7.419  16.248  0.00  0.00    +0.000 HD
ATOM     34  H   UNL     1       8.525   6.740  17.027  0.00  0.00    +0.000 HD
ENDBRANCH  27  30
ENDBRANCH  23  24
ENDBRANCH  20  23
ENDBRANCH   4  19
TORSDOF 7
ENDMDL
MODEL 6
REMARK VINA RESULT:      -7.9      2.945      4.429
REMARK  Name = 
REMARK  8 active torsions:
REMARK  status: ('A' for Active; 'I' for Inactive)
REMARK    1  A    between atoms: C_1  and  O_2
REMARK    2  A    between atoms: O_2  and  C_3
REMARK    3  A    between atoms: C_6  and  N_7
REMARK    4  A    between atoms: C_8  and  C_10
REMARK    5  A    between atoms: C_13  and  N_14
REMARK    6  A    between atoms: C_15  and  C_17
REMARK    7  A    between atoms: C_17  and  N_18
REMARK    8  A    between atoms: C_21  and  C_22
REMARK                            x       y       z     vdW  Elec       q    Type
REMARK                         _______ _______ _______ _____ _____    ______ ____
ROOT
ATOM      1  C   UNL     1       0.603   9.434  18.775  0.00  0.00    +0.000 A 
ATOM      2  C   UNL     1       0.706   8.878  20.064  0.00  0.00    +0.000 A 
ATOM      3  C   UNL     1       1.676   7.918  20.357  0.00  0.00    +0.000 A 
ATOM      4  C   UNL     1       2.511   7.450  19.348  0.00  0.00    +0.000 A 
ATOM      5  C   UNL     1       2.421   8.002  18.062  0.00  0.00    +0.000 A 
ATOM      6  C   UNL     1       1.475   8.997  17.776  0.00  0.00    +0.000 A 
ENDROOT
BRANCH   1   8
ATOM      7  N   UNL     1      -1.751   9.933  18.298  0.00  0.00    +0.000 N 
ATOM      8  C   UNL     1      -0.476  10.430  18.552  0.00  0.00    +0.000 C 
ATOM      9  O   UNL     1      -0.159  11.613  18.574  0.00  0.00    +0.000 OA
ATOM     10  H   UNL     1      -1.864   8.926  18.275  0.00  0.00    +0.000 HD
BRANCH   7  14
ATOM     11  C   UNL     1      -5.176  12.175  17.214  0.00  0.00    +0.000 A 
ATOM     12  C   UNL     1      -4.670  12.266  18.507  0.00  0.00    +0.000 A 
ATOM     13  C   UNL     1      -3.539  11.536  18.886  0.00  0.00    +0.000 A 
ATOM     14  C   UNL     1      -2.902  10.688  17.980  0.00  0.00    +0.000 A 
ATOM     15  C   UNL     1      -3.424  10.583  16.685  0.00  0.00    +0.000 A 
ATOM     16  C   UNL     1      -4.555  11.322  16.302  0.00  0.00    +0.000 A 
BRANCH  11  18
ATOM     17  C   UNL     1      -6.832  13.606  18.105  0.00  0.00    +0.000 C 
ATOM     18  O   UNL     1      -6.291  12.928  16.979  0.00  0.00    +0.000 OA
ENDBRANCH  11  18
ENDBRANCH   7  14
ENDBRANCH   1   8
BRANCH   4  19
ATOM     19  N   UNL     1       3.404   6.401  19.647  0.00  0.00    +0.000 N 
ATOM     20  C   UNL     1       3.048   5.074  19.461  0.00  0.00    +0.000 C 
ATOM     21  O   UNL     1       1.970   4.692  19.008  0.00  0.00    +0.000 OA
ATOM     22  H   UNL     1       4.079   6.538  20.394  0.00  0.00    +0.000 HD
BRANCH  20  23
ATOM     23  C   UNL     1       4.135   4.074  19.857  0.00  0.00    +0.000 C 
BRANCH  23  24
ATOM     24  N   UNL     1       5.198   3.880  18.825  0.00  0.00    +0.000 NA
ATOM     25  C   UNL     1       4.647   4.077  17.468  0.00  0.00    +0.000 C 
ATOM     26  C   UNL     1       5.740   4.028  16.393  0.00  0.00    +0.000 C 
ATOM     27  C   UNL     1       6.814   5.093  16.632  0.00  0.00    +0.000 C 
ATOM     28  C   UNL     1       7.360   4.926  18.051  0.00  0.00    +0.000 C 
ATOM     29  C   UNL     1       6.247   4.895  19.101  0.00  0.00    +0.000 C 
BRANCH  27  30
ATOM     30  C   UNL     1       6.287   6.502  16.371  0.00  0.00    +0.000 C 
ATOM     31  N   UNL     1       5.369   6.608  15.366  0.00  0.00    +0.000 N 
ATOM     32  O   UNL     1       6.644   7.502  16.983  0.00  0.00    +0.000 OA
ATOM     33  H   UNL     1       5.168   5.857  14.721  0.00  0.00    +0.000 HD
ATOM     34  H   UNL     1       5.041   7.538  15.137  0.00  0.00    +0.000 HD
ENDBRANCH  27  30
ENDBRANCH  23  24
ENDBRANCH  20  23
ENDBRANCH   4  19
TORSDOF 7
ENDMDL
MODEL 7
REMARK VINA RESULT:      -7.7      5.785      8.224
REMARK  Name = 
REMARK  8 active torsions:
REMARK  status: ('A' for Active; 'I' for Inactive)
REMARK    1  A    between atoms: C_1  and  O_2
REMARK    2  A    between atoms: O_2  and  C_3
REMARK    3  A    between atoms: C_6  and  N_7
REMARK    4  A    between atoms: C_8  and  C_10
REMARK    5  A    between atoms: C_13  and  N_14
REMARK    6  A    between atoms: C_15  and  C_17
REMARK    7  A    between atoms: C_17  and  N_18
REMARK    8  A    between atoms: C_21  and  C_22
REMARK                            x       y       z     vdW  Elec       q    Type
REMARK                         _______ _______ _______ _____ _____    ______ ____
ROOT
ATOM      1  C   UNL     1       7.448   7.518  17.979  0.00  0.00    +0.000 A 
ATOM      2  C   UNL     1       8.044   6.502  18.750  0.00  0.00    +0.000 A 
ATOM      3  C   UNL     1       7.492   5.221  18.802  0.00  0.00    +0.000 A 
ATOM      4  C   UNL     1       6.298   4.956  18.138  0.00  0.00    +0.000 A 
ATOM      5  C   UNL     1       5.700   5.960  17.362  0.00  0.00    +0.000 A 
ATOM      6  C   UNL     1       6.275   7.235  17.275  0.00  0.00    +0.000 A 
ENDROOT
BRANCH   1   8
ATOM      7  N   UNL     1       8.925   9.132  19.086  0.00  0.00    +0.000 N 
ATOM      8  C   UNL     1       8.093   8.855  18.006  0.00  0.00    +0.000 C 
ATOM      9  O   UNL     1       7.820   9.627  17.095  0.00  0.00    +0.000 OA
ATOM     10  H   UNL     1       9.035   8.410  19.789  0.00  0.00    +0.000 HD
BRANCH   7  14
ATOM     11  C   UNL     1      10.950  12.784  19.789  0.00  0.00    +0.000 A 
ATOM     12  C   UNL     1      10.200  12.203  20.806  0.00  0.00    +0.000 A 
ATOM     13  C   UNL     1       9.525  10.996  20.596  0.00  0.00    +0.000 A 
ATOM     14  C   UNL     1       9.575  10.357  19.358  0.00  0.00    +0.000 A 
ATOM     15  C   UNL     1      10.316  10.955  18.329  0.00  0.00    +0.000 A 
ATOM     16  C   UNL     1      10.999  12.161  18.542  0.00  0.00    +0.000 A 
BRANCH  11  18
ATOM     17  C   UNL     1      10.679  14.994  20.581  0.00  0.00    +0.000 C 
ATOM     18  O   UNL     1      11.547  13.968  20.120  0.00  0.00    +0.000 OA
ENDBRANCH  11  18
ENDBRANCH   7  14
ENDBRANCH   1   8
BRANCH   4  19
ATOM     19  N   UNL     1       5.706   3.688  18.300  0.00  0.00    +0.000 N 
ATOM     20  C   UNL     1       4.686   3.255  17.466  0.00  0.00    +0.000 C 
ATOM     21  O   UNL     1       4.230   3.897  16.521  0.00  0.00    +0.000 OA
ATOM     22  H   UNL     1       5.662   3.289  19.233  0.00  0.00    +0.000 HD
BRANCH  20  23
ATOM     23  C   UNL     1       4.153   1.862  17.801  0.00  0.00    +0.000 C 
BRANCH  23  24
ATOM     24  N   UNL     1       3.066   1.849  18.826  0.00  0.00    +0.000 NA
ATOM     25  C   UNL     1       3.523   2.492  20.076  0.00  0.00    +0.000 C 
ATOM     26  C   UNL     1       2.389   2.626  21.100  0.00  0.00    +0.000 C 
ATOM     27  C   UNL     1       1.220   3.442  20.543  0.00  0.00    +0.000 C 
ATOM     28  C   UNL     1       0.767   2.810  19.225  0.00  0.00    +0.000 C 
ATOM     29  C   UNL     1       1.929   2.609  18.249  0.00  0.00    +0.000 C 
BRANCH  27  30
ATOM     30  C   UNL     1       1.577   4.919  20.390  0.00  0.00    +0.000 C 
ATOM     31  N   UNL     1       2.259   5.469  21.436  0.00  0.00    +0.000 N 
ATOM     32  O   UNL     1       1.280   5.609  19.421  0.00  0.00    +0.000 OA
ATOM     33  H   UNL     1       2.380   5.001  22.323  0.00  0.00    +0.000 HD
ATOM     34  H   UNL     1       2.464   6.459  21.384  0.00  0.00    +0.000 HD
ENDBRANCH  27  30
ENDBRANCH  23  24
ENDBRANCH  20  23
ENDBRANCH   4  19
TORSDOF 7
ENDMDL
MODEL 8
REMARK VINA RESULT:      -7.7      2.396     10.946
REMARK  Name = 
REMARK  8 active torsions:
REMARK  status: ('A' for Active; 'I' for Inactive)
REMARK    1  A    between atoms: C_1  and  O_2
REMARK    2  A    between atoms: O_2  and  C_3
REMARK    3  A    between atoms: C_6  and  N_7
REMARK    4  A    between atoms: C_8  and  C_10
REMARK    5  A    between atoms: C_13  and  N_14
REMARK    6  A    between atoms: C_15  and  C_17
REMARK    7  A    between atoms: C_17  and  N_18
REMARK    8  A    between atoms: C_21  and  C_22
REMARK                            x       y       z     vdW  Elec       q    Type
REMARK                         _______ _______ _______ _____ _____    ______ ____
ROOT
ATOM      1  C   UNL     1       1.405   8.882  19.380  0.00  0.00    +0.000 A 
ATOM      2  C   UNL     1       0.616   9.967  18.950  0.00  0.00    +0.000 A 
ATOM      3  C   UNL     1      -0.133  10.715  19.861  0.00  0.00    +0.000 A 
ATOM      4  C   UNL     1      -0.158  10.346  21.202  0.00  0.00    +0.000 A 
ATOM      5  C   UNL     1       0.629   9.271  21.640  0.00  0.00    +0.000 A 
ATOM      6  C   UNL     1       1.415   8.544  20.735  0.00  0.00    +0.000 A 
ENDROOT
BRANCH   1   8
ATOM      7  N   UNL     1       2.718   6.920  18.715  0.00  0.00    +0.000 N 
ATOM      8  C   UNL     1       2.147   8.131  18.336  0.00  0.00    +0.000 C 
ATOM      9  O   UNL     1       2.231   8.646  17.227  0.00  0.00    +0.000 OA
ATOM     10  H   UNL     1       2.598   6.628  19.679  0.00  0.00    +0.000 HD
BRANCH   7  14
ATOM     11  C   UNL     1       5.210   4.522  16.271  0.00  0.00    +0.000 A 
ATOM     12  C   UNL     1       4.065   3.973  16.841  0.00  0.00    +0.000 A 
ATOM     13  C   UNL     1       3.227   4.748  17.649  0.00  0.00    +0.000 A 
ATOM     14  C   UNL     1       3.529   6.083  17.916  0.00  0.00    +0.000 A 
ATOM     15  C   UNL     1       4.692   6.628  17.357  0.00  0.00    +0.000 A 
ATOM     16  C   UNL     1       5.529   5.853  16.539  0.00  0.00    +0.000 A 
BRANCH  11  18
ATOM     17  C   UNL     1       6.073   3.986  14.138  0.00  0.00    +0.000 C 
ATOM     18  O   UNL     1       5.947   3.656  15.515  0.00  0.00    +0.000 OA
ENDBRANCH  11  18
ENDBRANCH   7  14
ENDBRANCH   1   8
BRANCH   4  19
ATOM     19  N   UNL     1      -1.010  11.050  22.077  0.00  0.00    +0.000 N 
ATOM     20  C   UNL     1      -0.758  12.369  22.425  0.00  0.00    +0.000 C 
ATOM     21  O   UNL     1       0.181  13.041  22.001  0.00  0.00    +0.000 OA
ATOM     22  H   UNL     1      -1.503  10.529  22.796  0.00  0.00    +0.000 HD
BRANCH  20  23
ATOM     23  C   UNL     1      -1.777  12.964  23.397  0.00  0.00    +0.000 C 
BRANCH  23  24
ATOM     24  N   UNL     1      -3.173  12.468  23.207  0.00  0.00    +0.000 NA
ATOM     25  C   UNL     1      -4.029  12.879  24.339  0.00  0.00    +0.000 C 
ATOM     26  C   UNL     1      -5.500  12.511  24.108  0.00  0.00    +0.000 C 
ATOM     27  C   UNL     1      -6.050  13.158  22.834  0.00  0.00    +0.000 C 
ATOM     28  C   UNL     1      -5.145  12.776  21.662  0.00  0.00    +0.000 C 
ATOM     29  C   UNL     1      -3.670  13.075  21.946  0.00  0.00    +0.000 C 
BRANCH  27  30
ATOM     30  C   UNL     1      -6.203  14.671  22.984  0.00  0.00    +0.000 C 
ATOM     31  N   UNL     1      -6.515  15.107  24.239  0.00  0.00    +0.000 N 
ATOM     32  O   UNL     1      -6.082  15.475  22.067  0.00  0.00    +0.000 OA
ATOM     33  H   UNL     1      -6.793  14.487  24.986  0.00  0.00    +0.000 HD
ATOM     34  H   UNL     1      -6.673  16.100  24.356  0.00  0.00    +0.000 HD
ENDBRANCH  27  30
ENDBRANCH  23  24
ENDBRANCH  20  23
ENDBRANCH   4  19
TORSDOF 7
ENDMDL
MODEL 9
REMARK VINA RESULT:      -7.7      1.242      1.423
REMARK  Name = 
REMARK  8 active torsions:
REMARK  status: ('A' for Active; 'I' for Inactive)
REMARK    1  A    between atoms: C_1  and  O_2
REMARK    2  A    between atoms: O_2  and  C_3
REMARK    3  A    between atoms: C_6  and  N_7
REMARK    4  A    between atoms: C_8  and  C_10
REMARK    5  A    between atoms: C_13  and  N_14
REMARK    6  A    between atoms: C_15  and  C_17
REMARK    7  A    between atoms: C_17  and  N_18
REMARK    8  A    between atoms: C_21  and  C_22
REMARK                            x       y       z     vdW  Elec       q    Type
REMARK                         _______ _______ _______ _____ _____    ______ ____
ROOT
ATOM      1  C   UNL     1       1.295   9.513  19.247  0.00  0.00    +0.000 A 
ATOM      2  C   UNL     1       1.507   8.413  20.100  0.00  0.00    +0.000 A 
ATOM      3  C   UNL     1       2.127   7.252  19.635  0.00  0.00    +0.000 A 
ATOM      4  C   UNL     1       2.482   7.149  18.293  0.00  0.00    +0.000 A 
ATOM      5  C   UNL     1       2.281   8.242  17.438  0.00  0.00    +0.000 A 
ATOM      6  C   UNL     1       1.695   9.424  17.913  0.00  0.00    +0.000 A 
ENDROOT
BRANCH   1   8
ATOM      7  N   UNL     1       0.352  10.669  21.194  0.00  0.00    +0.000 N 
ATOM      8  C   UNL     1       0.605  10.694  19.826  0.00  0.00    +0.000 C 
ATOM      9  O   UNL     1       0.279  11.587  19.053  0.00  0.00    +0.000 OA
ATOM     10  H   UNL     1       0.648   9.848  21.710  0.00  0.00    +0.000 HD
BRANCH   7  14
ATOM     11  C   UNL     1      -1.668  13.663  23.406  0.00  0.00    +0.000 A 
ATOM     12  C   UNL     1      -2.084  12.338  23.495  0.00  0.00    +0.000 A 
ATOM     13  C   UNL     1      -1.430  11.334  22.775  0.00  0.00    +0.000 A 
ATOM     14  C   UNL     1      -0.357  11.639  21.938  0.00  0.00    +0.000 A 
ATOM     15  C   UNL     1       0.048  12.977  21.836  0.00  0.00    +0.000 A 
ATOM     16  C   UNL     1      -0.603  13.984  22.565  0.00  0.00    +0.000 A 
BRANCH  11  18
ATOM     17  C   UNL     1      -3.777  14.646  23.815  0.00  0.00    +0.000 C 
ATOM     18  O   UNL     1      -2.399  14.546  24.148  0.00  0.00    +0.000 OA
ENDBRANCH  11  18
ENDBRANCH   7  14
ENDBRANCH   1   8
BRANCH   4  19
ATOM     19  N   UNL     1       3.003   5.925  17.828  0.00  0.00    +0.000 N 
ATOM     20  C   UNL     1       4.356   5.770  17.564  0.00  0.00    +0.000 C 
ATOM     21  O   UNL     1       5.209   6.641  17.727  0.00  0.00    +0.000 OA
ATOM     22  H   UNL     1       2.409   5.331  17.258  0.00  0.00    +0.000 HD
BRANCH  20  23
ATOM     23  C   UNL     1       4.737   4.382  17.049  0.00  0.00    +0.000 C 
BRANCH  23  24
ATOM     24  N   UNL     1       4.298   3.257  17.928  0.00  0.00    +0.000 NA
ATOM     25  C   UNL     1       4.604   3.554  19.343  0.00  0.00    +0.000 C 
ATOM     26  C   UNL     1       4.038   2.487  20.289  0.00  0.00    +0.000 C 
ATOM     27  C   UNL     1       2.519   2.356  20.146  0.00  0.00    +0.000 C 
ATOM     28  C   UNL     1       2.187   2.092  18.676  0.00  0.00    +0.000 C 
ATOM     29  C   UNL     1       2.830   3.121  17.743  0.00  0.00    +0.000 C 
BRANCH  27  30
ATOM     30  C   UNL     1       1.788   3.577  20.700  0.00  0.00    +0.000 C 
ATOM     31  N   UNL     1       0.541   3.795  20.189  0.00  0.00    +0.000 N 
ATOM     32  O   UNL     1       2.253   4.347  21.533  0.00  0.00    +0.000 OA
ATOM     33  H   UNL     1       0.179   3.301  19.387  0.00  0.00    +0.000 HD
ATOM     34  H   UNL     1       0.054   4.626  20.501  0.00  0.00    +0.000 HD
ENDBRANCH  27  30
ENDBRANCH  23  24
ENDBRANCH  20  23
ENDBRANCH   4  19
TORSDOF 7
ENDMDL
