MODEL 1
REMARK VINA RESULT:      -8.5      0.000      0.000
REMARK  Name = 
REMARK  7 active torsions:
REMARK  status: ('A' for Active; 'I' for Inactive)
REMARK    1  A    between atoms: C_2  and  O_3
REMARK    2  A    between atoms: C_2  and  C_4
REMARK    3  A    between atoms: N_6  and  C_7
REMARK    4  A    between atoms: C_10  and  C_11
REMARK    5  A    between atoms: C_12  and  C_13
REMARK    6  A    between atoms: C_15  and  C_16
REMARK    7  A    between atoms: C_21  and  C_22
REMARK                            x       y       z     vdW  Elec       q    Type
REMARK                         _______ _______ _______ _____ _____    ______ ____
ROOT
ATOM      1  C   UNL     1       1.313   8.477  20.236  0.00  0.00    +0.000 C 
ATOM      2  C   UNL     1       1.880   7.631  19.594  0.00  0.00    +0.000 C 
ENDROOT
BRANCH   1   6
ATOM      3  C   UNL     1      -0.822  11.305  22.574  0.00  0.00    +0.000 A 
ATOM      4  C   UNL     1      -0.588  10.010  23.037  0.00  0.00    +0.000 A 
ATOM      5  C   UNL     1       0.107   9.080  22.260  0.00  0.00    +0.000 A 
ATOM      6  C   UNL     1       0.572   9.434  20.997  0.00  0.00    +0.000 A 
ATOM      7  C   UNL     1       0.320  10.717  20.507  0.00  0.00    +0.000 A 
ATOM      8  C   UNL     1      -0.387  11.647  21.286  0.00  0.00    +0.000 A 
BRANCH   3  11
ATOM      9  C   UNL     1      -2.819  12.625  23.223  0.00  0.00    +0.000 C 
ATOM     10  O   UNL     1      -3.685  12.151  22.493  0.00  0.00    +0.000 OA
ATOM     11  N   UNL     1      -1.488  12.271  23.357  0.00  0.00    +0.000 N 
ATOM     12  H   UNL     1      -0.987  12.704  24.128  0.00  0.00    +0.000 HD
BRANCH   9  14
ATOM     13  O   UNL     1      -2.947  14.899  24.040  0.00  0.00    +0.000 OA
ATOM     14  C   UNL     1      -3.284  13.738  24.169  0.00  0.00    +0.000 C 
BRANCH  14  15
ATOM     15  O   UNL     1      -4.090  13.240  25.127  0.00  0.00    +0.000 OA
ATOM     16  H   UNL     1      -4.887  12.844  24.696  0.00  0.00    +0.000 HD
ENDBRANCH  14  15
ENDBRANCH   9  14
ENDBRANCH   3  11
ENDBRANCH   1   6
BRANCH   2  17
ATOM     17  C   UNL     1       2.526   6.596  18.848  0.00  0.00    +0.000 A 
ATOM     18  C   UNL     1       3.561   6.909  17.960  0.00  0.00    +0.000 A 
ATOM     19  C   UNL     1       4.182   5.902  17.202  0.00  0.00    +0.000 A 
ATOM     20  C   UNL     1       3.749   4.574  17.353  0.00  0.00    +0.000 A 
ATOM     21  C   UNL     1       2.713   4.246  18.245  0.00  0.00    +0.000 A 
ATOM     22  C   UNL     1       2.109   5.271  18.991  0.00  0.00    +0.000 A 
BRANCH  19  23
ATOM     23  C   UNL     1       5.293   6.230  16.232  0.00  0.00    +0.000 C 
ATOM     24  F   UNL     1       6.337   6.898  16.795  0.00  0.00    +0.000 F 
ATOM     25  F   UNL     1       5.826   5.116  15.660  0.00  0.00    +0.000 F 
ATOM     26  F   UNL     1       4.863   7.009  15.201  0.00  0.00    +0.000 F 
ENDBRANCH  19  23
BRANCH  21  27
ATOM     27  C   UNL     1       2.241   2.821  18.408  0.00  0.00    +0.000 C 
ATOM     28  F   UNL     1       2.790   2.188  19.481  0.00  0.00    +0.000 F 
ATOM     29  F   UNL     1       0.892   2.737  18.574  0.00  0.00    +0.000 F 
ATOM     30  F   UNL     1       2.536   2.048  17.327  0.00  0.00    +0.000 F 
ENDBRANCH  21  27
ENDBRANCH   2  17
TORSDOF 7
ENDMDL
MODEL 2
REMARK VINA RESULT:      -8.4      1.162      1.625
REMARK  Name = 
REMARK  7 active torsions:
REMARK  status: ('A' for Active; 'I' for Inactive)
REMARK    1  A    between atoms: C_2  and  O_3
REMARK    2  A    between atoms: C_2  and  C_4
REMARK    3  A    between atoms: N_6  and  C_7
REMARK    4  A    between atoms: C_10  and  C_11
REMARK    5  A    between atoms: C_12  and  C_13
REMARK    6  A    between atoms: C_15  and  C_16
REMARK    7  A    between atoms: C_21  and  C_22
REMARK                            x       y       z     vdW  Elec       q    Type
REMARK                         _______ _______ _______ _____ _____    ______ ____
ROOT
ATOM      1  C   UNL     1       1.702   7.880  20.236  0.00  0.00    +0.000 C 
ATOM      2  C   UNL     1       2.315   7.047  19.622  0.00  0.00    +0.000 C 
ENDROOT
BRANCH   1   6
ATOM      3  C   UNL     1      -0.622  10.888  22.126  0.00  0.00    +0.000 A 
ATOM      4  C   UNL     1      -0.400  10.902  20.749  0.00  0.00    +0.000 A 
ATOM      5  C   UNL     1       0.374   9.915  20.133  0.00  0.00    +0.000 A 
ATOM      6  C   UNL     1       0.945   8.900  20.894  0.00  0.00    +0.000 A 
ATOM      7  C   UNL     1       0.756   8.888  22.277  0.00  0.00    +0.000 A 
ATOM      8  C   UNL     1      -0.014   9.887  22.895  0.00  0.00    +0.000 A 
BRANCH   3  11
ATOM      9  C   UNL     1      -1.044  13.148  23.057  0.00  0.00    +0.000 C 
ATOM     10  O   UNL     1      -0.003  13.737  22.776  0.00  0.00    +0.000 OA
ATOM     11  N   UNL     1      -1.431  11.852  22.763  0.00  0.00    +0.000 N 
ATOM     12  H   UNL     1      -2.399  11.618  22.970  0.00  0.00    +0.000 HD
BRANCH   9  14
ATOM     13  O   UNL     1      -3.293  13.839  23.622  0.00  0.00    +0.000 OA
ATOM     14  C   UNL     1      -2.098  13.980  23.797  0.00  0.00    +0.000 C 
BRANCH  14  15
ATOM     15  O   UNL     1      -1.508  14.857  24.632  0.00  0.00    +0.000 OA
ATOM     16  H   UNL     1      -1.803  15.770  24.392  0.00  0.00    +0.000 HD
ENDBRANCH  14  15
ENDBRANCH   9  14
ENDBRANCH   3  11
ENDBRANCH   1   6
BRANCH   2  17
ATOM     17  C   UNL     1       3.017   6.060  18.859  0.00  0.00    +0.000 A 
ATOM     18  C   UNL     1       3.796   6.441  17.762  0.00  0.00    +0.000 A 
ATOM     19  C   UNL     1       4.466   5.476  16.990  0.00  0.00    +0.000 A 
ATOM     20  C   UNL     1       4.341   4.122  17.342  0.00  0.00    +0.000 A 
ATOM     21  C   UNL     1       3.565   3.726  18.444  0.00  0.00    +0.000 A 
ATOM     22  C   UNL     1       2.906   4.711  19.198  0.00  0.00    +0.000 A 
BRANCH  19  23
ATOM     23  C   UNL     1       5.302   5.875  15.797  0.00  0.00    +0.000 C 
ATOM     24  F   UNL     1       6.615   6.083  16.089  0.00  0.00    +0.000 F 
ATOM     25  F   UNL     1       5.281   4.934  14.813  0.00  0.00    +0.000 F 
ATOM     26  F   UNL     1       4.860   7.027  15.221  0.00  0.00    +0.000 F 
ENDBRANCH  19  23
BRANCH  21  27
ATOM     27  C   UNL     1       3.424   2.271  18.823  0.00  0.00    +0.000 C 
ATOM     28  F   UNL     1       4.411   1.830  19.651  0.00  0.00    +0.000 F 
ATOM     29  F   UNL     1       2.253   2.013  19.468  0.00  0.00    +0.000 F 
ATOM     30  F   UNL     1       3.448   1.446  17.741  0.00  0.00    +0.000 F 
ENDBRANCH  21  27
ENDBRANCH   2  17
TORSDOF 7
ENDMDL
MODEL 3
REMARK VINA RESULT:      -8.4      0.217      3.333
REMARK  Name = 
REMARK  7 active torsions:
REMARK  status: ('A' for Active; 'I' for Inactive)
REMARK    1  A    between atoms: C_2  and  O_3
REMARK    2  A    between atoms: C_2  and  C_4
REMARK    3  A    between atoms: N_6  and  C_7
REMARK    4  A    between atoms: C_10  and  C_11
REMARK    5  A    between atoms: C_12  and  C_13
REMARK    6  A    between atoms: C_15  and  C_16
REMARK    7  A    between atoms: C_21  and  C_22
REMARK                            x       y       z     vdW  Elec       q    Type
REMARK                         _______ _______ _______ _____ _____    ______ ____
ROOT
ATOM      1  C   UNL     1       1.308   8.400  20.404  0.00  0.00    +0.000 C 
ATOM      2  C   UNL     1       1.863   7.559  19.747  0.00  0.00    +0.000 C 
ENDROOT
BRANCH   1   6
ATOM      3  C   UNL     1      -0.724  11.410  22.603  0.00  0.00    +0.000 A 
ATOM      4  C   UNL     1      -0.666  10.093  23.060  0.00  0.00    +0.000 A 
ATOM      5  C   UNL     1      -0.005   9.104  22.328  0.00  0.00    +0.000 A 
ATOM      6  C   UNL     1       0.605   9.421  21.117  0.00  0.00    +0.000 A 
ATOM      7  C   UNL     1       0.531  10.729  20.632  0.00  0.00    +0.000 A 
ATOM      8  C   UNL     1      -0.143  11.719  21.366  0.00  0.00    +0.000 A 
BRANCH   3  11
ATOM      9  C   UNL     1      -2.708  12.711  23.325  0.00  0.00    +0.000 C 
ATOM     10  O   UNL     1      -3.621  12.119  22.755  0.00  0.00    +0.000 OA
ATOM     11  N   UNL     1      -1.353  12.431  23.345  0.00  0.00    +0.000 N 
ATOM     12  H   UNL     1      -0.796  12.972  24.001  0.00  0.00    +0.000 HD
BRANCH   9  14
ATOM     13  O   UNL     1      -2.545  14.972  24.172  0.00  0.00    +0.000 OA
ATOM     14  C   UNL     1      -3.130  13.906  24.187  0.00  0.00    +0.000 C 
BRANCH  14  15
ATOM     15  O   UNL     1      -4.204  13.593  24.937  0.00  0.00    +0.000 OA
ATOM     16  H   UNL     1      -3.941  12.906  25.597  0.00  0.00    +0.000 HD
ENDBRANCH  14  15
ENDBRANCH   9  14
ENDBRANCH   3  11
ENDBRANCH   1   6
BRANCH   2  17
ATOM     17  C   UNL     1       2.490   6.557  18.939  0.00  0.00    +0.000 A 
ATOM     18  C   UNL     1       2.080   5.223  19.029  0.00  0.00    +0.000 A 
ATOM     19  C   UNL     1       2.709   4.229  18.260  0.00  0.00    +0.000 A 
ATOM     20  C   UNL     1       3.754   4.600  17.397  0.00  0.00    +0.000 A 
ATOM     21  C   UNL     1       4.172   5.937  17.295  0.00  0.00    +0.000 A 
ATOM     22  C   UNL     1       3.527   6.911  18.074  0.00  0.00    +0.000 A 
BRANCH  19  23
ATOM     23  C   UNL     1       2.283   2.783  18.356  0.00  0.00    +0.000 C 
ATOM     24  F   UNL     1       0.934   2.603  18.319  0.00  0.00    +0.000 F 
ATOM     25  F   UNL     1       2.790   2.026  17.345  0.00  0.00    +0.000 F 
ATOM     26  F   UNL     1       2.707   2.197  19.509  0.00  0.00    +0.000 F 
ENDBRANCH  19  23
BRANCH  21  27
ATOM     27  C   UNL     1       5.298   6.339  16.372  0.00  0.00    +0.000 C 
ATOM     28  F   UNL     1       6.024   5.284  15.912  0.00  0.00    +0.000 F 
ATOM     29  F   UNL     1       4.852   6.997  15.266  0.00  0.00    +0.000 F 
ATOM     30  F   UNL     1       6.190   7.174  16.973  0.00  0.00    +0.000 F 
ENDBRANCH  21  27
ENDBRANCH   2  17
TORSDOF 7
ENDMDL
MODEL 4
REMARK VINA RESULT:      -8.4      0.241      1.351
REMARK  Name = 
REMARK  7 active torsions:
REMARK  status: ('A' for Active; 'I' for Inactive)
REMARK    1  A    between atoms: C_2  and  O_3
REMARK    2  A    between atoms: C_2  and  C_4
REMARK    3  A    between atoms: N_6  and  C_7
REMARK    4  A    between atoms: C_10  and  C_11
REMARK    5  A    between atoms: C_12  and  C_13
REMARK    6  A    between atoms: C_15  and  C_16
REMARK    7  A    between atoms: C_21  and  C_22
REMARK                            x       y       z     vdW  Elec       q    Type
REMARK                         _______ _______ _______ _____ _____    ______ ____
ROOT
ATOM      1  C   UNL     1       1.359   8.443  20.276  0.00  0.00    +0.000 C 
ATOM      2  C   UNL     1       1.902   7.589  19.626  0.00  0.00    +0.000 C 
ENDROOT
BRANCH   1   6
ATOM      3  C   UNL     1      -0.757  11.303  22.593  0.00  0.00    +0.000 A 
ATOM      4  C   UNL     1      -0.156  11.651  21.383  0.00  0.00    +0.000 A 
ATOM      5  C   UNL     1       0.547  10.709  20.629  0.00  0.00    +0.000 A 
ATOM      6  C   UNL     1       0.666   9.399  21.084  0.00  0.00    +0.000 A 
ATOM      7  C   UNL     1       0.095   9.041  22.307  0.00  0.00    +0.000 A 
ATOM      8  C   UNL     1      -0.603   9.993  23.068  0.00  0.00    +0.000 A 
BRANCH   3  11
ATOM      9  C   UNL     1      -2.822  12.573  23.114  0.00  0.00    +0.000 C 
ATOM     10  O   UNL     1      -3.614  12.120  22.292  0.00  0.00    +0.000 OA
ATOM     11  N   UNL     1      -1.504  12.229  23.351  0.00  0.00    +0.000 N 
ATOM     12  H   UNL     1      -1.079  12.635  24.181  0.00  0.00    +0.000 HD
BRANCH   9  14
ATOM     13  O   UNL     1      -3.247  14.834  23.865  0.00  0.00    +0.000 OA
ATOM     14  C   UNL     1      -3.386  13.642  24.058  0.00  0.00    +0.000 C 
BRANCH  14  15
ATOM     15  O   UNL     1      -4.028  13.067  25.094  0.00  0.00    +0.000 OA
ATOM     16  H   UNL     1      -3.497  13.211  25.915  0.00  0.00    +0.000 HD
ENDBRANCH  14  15
ENDBRANCH   9  14
ENDBRANCH   3  11
ENDBRANCH   1   6
BRANCH   2  17
ATOM     17  C   UNL     1       2.538   6.545  18.882  0.00  0.00    +0.000 A 
ATOM     18  C   UNL     1       3.520   6.853  17.936  0.00  0.00    +0.000 A 
ATOM     19  C   UNL     1       4.130   5.836  17.180  0.00  0.00    +0.000 A 
ATOM     20  C   UNL     1       3.737   4.504  17.396  0.00  0.00    +0.000 A 
ATOM     21  C   UNL     1       2.754   4.181  18.347  0.00  0.00    +0.000 A 
ATOM     22  C   UNL     1       2.161   5.217  19.088  0.00  0.00    +0.000 A 
BRANCH  19  23
ATOM     23  C   UNL     1       5.184   6.157  16.147  0.00  0.00    +0.000 C 
ATOM     24  F   UNL     1       5.500   5.108  15.339  0.00  0.00    +0.000 F 
ATOM     25  F   UNL     1       4.805   7.168  15.319  0.00  0.00    +0.000 F 
ATOM     26  F   UNL     1       6.355   6.558  16.715  0.00  0.00    +0.000 F 
ENDBRANCH  19  23
BRANCH  21  27
ATOM     27  C   UNL     1       2.326   2.752  18.579  0.00  0.00    +0.000 C 
ATOM     28  F   UNL     1       2.962   1.859  17.772  0.00  0.00    +0.000 F 
ATOM     29  F   UNL     1       2.564   2.339  19.855  0.00  0.00    +0.000 F 
ATOM     30  F   UNL     1       0.994   2.566  18.366  0.00  0.00    +0.000 F 
ENDBRANCH  21  27
ENDBRANCH   2  17
TORSDOF 7
ENDMDL
MODEL 5
REMARK VINA RESULT:      -8.4      0.111      3.329
REMARK  Name = 
REMARK  7 active torsions:
REMARK  status: ('A' for Active; 'I' for Inactive)
REMARK    1  A    between atoms: C_2  and  O_3
REMARK    2  A    between atoms: C_2  and  C_4
REMARK    3  A    between atoms: N_6  and  C_7
REMARK    4  A    between atoms: C_10  and  C_11
REMARK    5  A    between atoms: C_12  and  C_13
REMARK    6  A    between atoms: C_15  and  C_16
REMARK    7  A    between atoms: C_21  and  C_22
REMARK                            x       y       z     vdW  Elec       q    Type
REMARK                         _______ _______ _______ _____ _____    ______ ____
ROOT
ATOM      1  C   UNL     1       1.295   8.505  20.185  0.00  0.00    +0.000 C 
ATOM      2  C   UNL     1       1.862   7.662  19.540  0.00  0.00    +0.000 C 
ENDROOT
BRANCH   1   6
ATOM      3  C   UNL     1      -0.831  11.309  22.560  0.00  0.00    +0.000 A 
ATOM      4  C   UNL     1      -0.592  10.011  23.011  0.00  0.00    +0.000 A 
ATOM      5  C   UNL     1       0.099   9.088  22.222  0.00  0.00    +0.000 A 
ATOM      6  C   UNL     1       0.557   9.454  20.959  0.00  0.00    +0.000 A 
ATOM      7  C   UNL     1       0.301  10.741  20.481  0.00  0.00    +0.000 A 
ATOM      8  C   UNL     1      -0.403  11.663  21.273  0.00  0.00    +0.000 A 
BRANCH   3  11
ATOM      9  C   UNL     1      -2.822  12.631  23.223  0.00  0.00    +0.000 C 
ATOM     10  O   UNL     1      -3.689  12.173  22.483  0.00  0.00    +0.000 OA
ATOM     11  N   UNL     1      -1.494  12.267  23.355  0.00  0.00    +0.000 N 
ATOM     12  H   UNL     1      -0.992  12.686  24.134  0.00  0.00    +0.000 HD
BRANCH   9  14
ATOM     13  O   UNL     1      -2.965  14.899  24.055  0.00  0.00    +0.000 OA
ATOM     14  C   UNL     1      -3.284  13.733  24.183  0.00  0.00    +0.000 C 
BRANCH  14  15
ATOM     15  O   UNL     1      -4.063  13.218  25.154  0.00  0.00    +0.000 OA
ATOM     16  H   UNL     1      -3.866  12.253  25.241  0.00  0.00    +0.000 HD
ENDBRANCH  14  15
ENDBRANCH   9  14
ENDBRANCH   3  11
ENDBRANCH   1   6
BRANCH   2  17
ATOM     17  C   UNL     1       2.513   6.630  18.793  0.00  0.00    +0.000 A 
ATOM     18  C   UNL     1       2.146   5.292  18.974  0.00  0.00    +0.000 A 
ATOM     19  C   UNL     1       2.799   4.269  18.265  0.00  0.00    +0.000 A 
ATOM     20  C   UNL     1       3.824   4.614  17.368  0.00  0.00    +0.000 A 
ATOM     21  C   UNL     1       4.199   5.955  17.174  0.00  0.00    +0.000 A 
ATOM     22  C   UNL     1       3.531   6.957  17.896  0.00  0.00    +0.000 A 
BRANCH  19  23
ATOM     23  C   UNL     1       2.419   2.820  18.460  0.00  0.00    +0.000 C 
ATOM     24  F   UNL     1       2.802   2.008  17.437  0.00  0.00    +0.000 F 
ATOM     25  F   UNL     1       2.969   2.289  19.586  0.00  0.00    +0.000 F 
ATOM     26  F   UNL     1       1.074   2.654  18.587  0.00  0.00    +0.000 F 
ENDBRANCH  19  23
BRANCH  21  27
ATOM     27  C   UNL     1       5.304   6.330  16.215  0.00  0.00    +0.000 C 
ATOM     28  F   UNL     1       4.871   7.059  15.150  0.00  0.00    +0.000 F 
ATOM     29  F   UNL     1       6.276   7.075  16.809  0.00  0.00    +0.000 F 
ATOM     30  F   UNL     1       5.931   5.241  15.692  0.00  0.00    +0.000 F 
ENDBRANCH  21  27
ENDBRANCH   2  17
TORSDOF 7
ENDMDL
MODEL 6
REMARK VINA RESULT:      -8.3      0.840      1.486
REMARK  Name = 
REMARK  7 active torsions:
REMARK  status: ('A' for Active; 'I' for Inactive)
REMARK    1  A    between atoms: C_2  and  O_3
REMARK    2  A    between atoms: C_2  and  C_4
REMARK    3  A    between atoms: N_6  and  C_7
REMARK    4  A    between atoms: C_10  and  C_11
REMARK    5  A    between atoms: C_12  and  C_13
REMARK    6  A    between atoms: C_15  and  C_16
REMARK    7  A    between atoms: C_21  and  C_22
REMARK                            x       y       z     vdW  Elec       q    Type
REMARK                         _______ _______ _______ _____ _____    ______ ____
ROOT
ATOM      1  C   UNL     1       1.201   8.420  20.714  0.00  0.00    +0.000 C 
ATOM      2  C   UNL     1       1.685   7.476  20.146  0.00  0.00    +0.000 C 
ENDROOT
BRANCH   1   6
ATOM      3  C   UNL     1      -0.756  11.642  22.667  0.00  0.00    +0.000 A 
ATOM      4  C   UNL     1       0.010  11.848  21.519  0.00  0.00    +0.000 A 
ATOM      5  C   UNL     1       0.660  10.786  20.886  0.00  0.00    +0.000 A 
ATOM      6  C   UNL     1       0.557   9.497  21.401  0.00  0.00    +0.000 A 
ATOM      7  C   UNL     1      -0.181   9.279  22.566  0.00  0.00    +0.000 A 
ATOM      8  C   UNL     1      -0.826  10.350  23.206  0.00  0.00    +0.000 A 
BRANCH   3  11
ATOM      9  C   UNL     1      -2.827  12.831  23.335  0.00  0.00    +0.000 C 
ATOM     10  O   UNL     1      -3.701  12.074  22.919  0.00  0.00    +0.000 OA
ATOM     11  N   UNL     1      -1.451  12.693  23.300  0.00  0.00    +0.000 N 
ATOM     12  H   UNL     1      -0.921  13.377  23.835  0.00  0.00    +0.000 HD
BRANCH   9  14
ATOM     13  O   UNL     1      -2.638  15.079  24.210  0.00  0.00    +0.000 OA
ATOM     14  C   UNL     1      -3.328  14.091  24.050  0.00  0.00    +0.000 C 
BRANCH  14  15
ATOM     15  O   UNL     1      -4.601  13.929  24.460  0.00  0.00    +0.000 OA
ATOM     16  H   UNL     1      -4.832  12.969  24.405  0.00  0.00    +0.000 HD
ENDBRANCH  14  15
ENDBRANCH   9  14
ENDBRANCH   3  11
ENDBRANCH   1   6
BRANCH   2  17
ATOM     17  C   UNL     1       2.235   6.328  19.493  0.00  0.00    +0.000 A 
ATOM     18  C   UNL     1       3.243   6.478  18.536  0.00  0.00    +0.000 A 
ATOM     19  C   UNL     1       3.769   5.357  17.869  0.00  0.00    +0.000 A 
ATOM     20  C   UNL     1       3.267   4.084  18.185  0.00  0.00    +0.000 A 
ATOM     21  C   UNL     1       2.257   3.919  19.149  0.00  0.00    +0.000 A 
ATOM     22  C   UNL     1       1.750   5.055  19.800  0.00  0.00    +0.000 A 
BRANCH  19  23
ATOM     23  C   UNL     1       4.849   5.508  16.824  0.00  0.00    +0.000 C 
ATOM     24  F   UNL     1       6.113   5.452  17.327  0.00  0.00    +0.000 F 
ATOM     25  F   UNL     1       4.783   4.541  15.869  0.00  0.00    +0.000 F 
ATOM     26  F   UNL     1       4.762   6.694  16.161  0.00  0.00    +0.000 F 
ENDBRANCH  19  23
BRANCH  21  27
ATOM     27  C   UNL     1       1.712   2.552  19.488  0.00  0.00    +0.000 C 
ATOM     28  F   UNL     1       0.463   2.330  18.994  0.00  0.00    +0.000 F 
ATOM     29  F   UNL     1       2.491   1.547  19.002  0.00  0.00    +0.000 F 
ATOM     30  F   UNL     1       1.626   2.346  20.831  0.00  0.00    +0.000 F 
ENDBRANCH  21  27
ENDBRANCH   2  17
TORSDOF 7
ENDMDL
MODEL 7
REMARK VINA RESULT:      -8.3      1.214      1.468
REMARK  Name = 
REMARK  7 active torsions:
REMARK  status: ('A' for Active; 'I' for Inactive)
REMARK    1  A    between atoms: C_2  and  O_3
REMARK    2  A    between atoms: C_2  and  C_4
REMARK    3  A    between atoms: N_6  and  C_7
REMARK    4  A    between atoms: C_10  and  C_11
REMARK    5  A    between atoms: C_12  and  C_13
REMARK    6  A    between atoms: C_15  and  C_16
REMARK    7  A    between atoms: C_21  and  C_22
REMARK                            x       y       z     vdW  Elec       q    Type
REMARK                         _______ _______ _______ _____ _____    ______ ____
ROOT
ATOM      1  C   UNL     1       1.660   7.902  20.216  0.00  0.00    +0.000 C 
ATOM      2  C   UNL     1       2.296   7.075  19.617  0.00  0.00    +0.000 C 
ENDROOT
BRANCH   1   6
ATOM      3  C   UNL     1      -0.634  10.885  22.182  0.00  0.00    +0.000 A 
ATOM      4  C   UNL     1       0.040   9.898  22.901  0.00  0.00    +0.000 A 
ATOM      5  C   UNL     1       0.786   8.913  22.249  0.00  0.00    +0.000 A 
ATOM      6  C   UNL     1       0.860   8.898  20.860  0.00  0.00    +0.000 A 
ATOM      7  C   UNL     1       0.167   9.862  20.124  0.00  0.00    +0.000 A 
ATOM      8  C   UNL     1      -0.590  10.845  20.782  0.00  0.00    +0.000 A 
BRANCH   3  11
ATOM      9  C   UNL     1      -0.913  13.206  23.009  0.00  0.00    +0.000 C 
ATOM     10  O   UNL     1       0.120  13.742  22.616  0.00  0.00    +0.000 OA
ATOM     11  N   UNL     1      -1.361  11.911  22.821  0.00  0.00    +0.000 N 
ATOM     12  H   UNL     1      -2.317  11.722  23.114  0.00  0.00    +0.000 HD
BRANCH   9  14
ATOM     13  O   UNL     1      -1.604  15.254  24.099  0.00  0.00    +0.000 OA
ATOM     14  C   UNL     1      -1.881  14.115  23.777  0.00  0.00    +0.000 C 
BRANCH  14  15
ATOM     15  O   UNL     1      -3.036  13.470  24.029  0.00  0.00    +0.000 OA
ATOM     16  H   UNL     1      -2.972  13.041  24.918  0.00  0.00    +0.000 HD
ENDBRANCH  14  15
ENDBRANCH   9  14
ENDBRANCH   3  11
ENDBRANCH   1   6
BRANCH   2  17
ATOM     17  C   UNL     1       3.019   6.086  18.877  0.00  0.00    +0.000 A 
ATOM     18  C   UNL     1       3.788   6.459  17.770  0.00  0.00    +0.000 A 
ATOM     19  C   UNL     1       4.479   5.491  17.021  0.00  0.00    +0.000 A 
ATOM     20  C   UNL     1       4.387   4.143  17.407  0.00  0.00    +0.000 A 
ATOM     21  C   UNL     1       3.621   3.756  18.520  0.00  0.00    +0.000 A 
ATOM     22  C   UNL     1       2.941   4.744  19.251  0.00  0.00    +0.000 A 
BRANCH  19  23
ATOM     23  C   UNL     1       5.303   5.879  15.817  0.00  0.00    +0.000 C 
ATOM     24  F   UNL     1       6.616   6.105  16.097  0.00  0.00    +0.000 F 
ATOM     25  F   UNL     1       5.287   4.923  14.848  0.00  0.00    +0.000 F 
ATOM     26  F   UNL     1       4.846   7.017  15.225  0.00  0.00    +0.000 F 
ENDBRANCH  19  23
BRANCH  21  27
ATOM     27  C   UNL     1       3.516   2.308  18.935  0.00  0.00    +0.000 C 
ATOM     28  F   UNL     1       2.365   2.020  19.604  0.00  0.00    +0.000 F 
ATOM     29  F   UNL     1       3.553   1.459  17.871  0.00  0.00    +0.000 F 
ATOM     30  F   UNL     1       4.532   1.927  19.757  0.00  0.00    +0.000 F 
ENDBRANCH  21  27
ENDBRANCH   2  17
TORSDOF 7
ENDMDL
MODEL 8
REMARK VINA RESULT:      -8.3      0.317      3.438
REMARK  Name = 
REMARK  7 active torsions:
REMARK  status: ('A' for Active; 'I' for Inactive)
REMARK    1  A    between atoms: C_2  and  O_3
REMARK    2  A    between atoms: C_2  and  C_4
REMARK    3  A    between atoms: N_6  and  C_7
REMARK    4  A    between atoms: C_10  and  C_11
REMARK    5  A    between atoms: C_12  and  C_13
REMARK    6  A    between atoms: C_15  and  C_16
REMARK    7  A    between atoms: C_21  and  C_22
REMARK                            x       y       z     vdW  Elec       q    Type
REMARK                         _______ _______ _______ _____ _____    ______ ____
ROOT
ATOM      1  C   UNL     1       1.412   8.324  20.349  0.00  0.00    +0.000 C 
ATOM      2  C   UNL     1       1.946   7.481  19.676  0.00  0.00    +0.000 C 
ENDROOT
BRANCH   1   6
ATOM      3  C   UNL     1      -0.737  11.172  22.649  0.00  0.00    +0.000 A 
ATOM      4  C   UNL     1      -0.221  11.494  21.393  0.00  0.00    +0.000 A 
ATOM      5  C   UNL     1       0.494  10.557  20.644  0.00  0.00    +0.000 A 
ATOM      6  C   UNL     1       0.710   9.278  21.150  0.00  0.00    +0.000 A 
ATOM      7  C   UNL     1       0.226   8.948  22.417  0.00  0.00    +0.000 A 
ATOM      8  C   UNL     1      -0.485   9.896  23.172  0.00  0.00    +0.000 A 
BRANCH   3  11
ATOM      9  C   UNL     1      -2.784  12.495  23.109  0.00  0.00    +0.000 C 
ATOM     10  O   UNL     1      -3.541  12.109  22.223  0.00  0.00    +0.000 OA
ATOM     11  N   UNL     1      -1.494  12.091  23.405  0.00  0.00    +0.000 N 
ATOM     12  H   UNL     1      -1.104  12.445  24.276  0.00  0.00    +0.000 HD
BRANCH   9  14
ATOM     13  O   UNL     1      -3.117  14.729  23.979  0.00  0.00    +0.000 OA
ATOM     14  C   UNL     1      -3.364  13.541  24.068  0.00  0.00    +0.000 C 
BRANCH  14  15
ATOM     15  O   UNL     1      -4.153  12.955  24.988  0.00  0.00    +0.000 OA
ATOM     16  H   UNL     1      -4.049  11.974  24.916  0.00  0.00    +0.000 HD
ENDBRANCH  14  15
ENDBRANCH   9  14
ENDBRANCH   3  11
ENDBRANCH   1   6
BRANCH   2  17
ATOM     17  C   UNL     1       2.555   6.449  18.893  0.00  0.00    +0.000 A 
ATOM     18  C   UNL     1       2.205   5.111  19.099  0.00  0.00    +0.000 A 
ATOM     19  C   UNL     1       2.818   4.089  18.354  0.00  0.00    +0.000 A 
ATOM     20  C   UNL     1       3.785   4.436  17.395  0.00  0.00    +0.000 A 
ATOM     21  C   UNL     1       4.142   5.777  17.175  0.00  0.00    +0.000 A 
ATOM     22  C   UNL     1       3.514   6.779  17.934  0.00  0.00    +0.000 A 
BRANCH  19  23
ATOM     23  C   UNL     1       2.458   2.639  18.575  0.00  0.00    +0.000 C 
ATOM     24  F   UNL     1       2.635   2.217  19.857  0.00  0.00    +0.000 F 
ATOM     25  F   UNL     1       1.157   2.377  18.271  0.00  0.00    +0.000 F 
ATOM     26  F   UNL     1       3.199   1.800  17.799  0.00  0.00    +0.000 F 
ENDBRANCH  19  23
BRANCH  21  27
ATOM     27  C   UNL     1       5.184   6.155  16.149  0.00  0.00    +0.000 C 
ATOM     28  F   UNL     1       5.467   5.153  15.272  0.00  0.00    +0.000 F 
ATOM     29  F   UNL     1       4.803   7.220  15.391  0.00  0.00    +0.000 F 
ATOM     30  F   UNL     1       6.371   6.501  16.717  0.00  0.00    +0.000 F 
ENDBRANCH  21  27
ENDBRANCH   2  17
TORSDOF 7
ENDMDL
MODEL 9
REMARK VINA RESULT:      -8.3      0.905      1.563
REMARK  Name = 
REMARK  7 active torsions:
REMARK  status: ('A' for Active; 'I' for Inactive)
REMARK    1  A    between atoms: C_2  and  O_3
REMARK    2  A    between atoms: C_2  and  C_4
REMARK    3  A    between atoms: N_6  and  C_7
REMARK    4  A    between atoms: C_10  and  C_11
REMARK    5  A    between atoms: C_12  and  C_13
REMARK    6  A    between atoms: C_15  and  C_16
REMARK    7  A    between atoms: C_21  and  C_22
REMARK                            x       y       z     vdW  Elec       q    Type
REMARK                         _______ _______ _______ _____ _____    ______ ____
ROOT
ATOM      1  C   UNL     1       1.207   8.381  20.770  0.00  0.00    +0.000 C 
ATOM      2  C   UNL     1       1.699   7.440  20.203  0.00  0.00    +0.000 C 
ENDROOT
BRANCH   1   6
ATOM      3  C   UNL     1      -0.792  11.620  22.650  0.00  0.00    +0.000 A 
ATOM      4  C   UNL     1      -0.026  11.810  21.500  0.00  0.00    +0.000 A 
ATOM      5  C   UNL     1       0.639  10.743  20.890  0.00  0.00    +0.000 A 
ATOM      6  C   UNL     1       0.549   9.464  21.432  0.00  0.00    +0.000 A 
ATOM      7  C   UNL     1      -0.190   9.262  22.600  0.00  0.00    +0.000 A 
ATOM      8  C   UNL     1      -0.849  10.339  23.216  0.00  0.00    +0.000 A 
BRANCH   3  11
ATOM      9  C   UNL     1      -2.867  12.877  23.165  0.00  0.00    +0.000 C 
ATOM     10  O   UNL     1      -3.726  12.181  22.630  0.00  0.00    +0.000 OA
ATOM     11  N   UNL     1      -1.501  12.676  23.259  0.00  0.00    +0.000 N 
ATOM     12  H   UNL     1      -0.998  13.311  23.874  0.00  0.00    +0.000 HD
BRANCH   9  14
ATOM     13  O   UNL     1      -3.288  14.287  25.086  0.00  0.00    +0.000 OA
ATOM     14  C   UNL     1      -3.382  14.129  23.884  0.00  0.00    +0.000 C 
BRANCH  14  15
ATOM     15  O   UNL     1      -3.936  14.986  23.005  0.00  0.00    +0.000 OA
ATOM     16  H   UNL     1      -4.874  15.152  23.272  0.00  0.00    +0.000 HD
ENDBRANCH  14  15
ENDBRANCH   9  14
ENDBRANCH   3  11
ENDBRANCH   1   6
BRANCH   2  17
ATOM     17  C   UNL     1       2.249   6.297  19.541  0.00  0.00    +0.000 A 
ATOM     18  C   UNL     1       3.257   6.455  18.585  0.00  0.00    +0.000 A 
ATOM     19  C   UNL     1       3.784   5.341  17.909  0.00  0.00    +0.000 A 
ATOM     20  C   UNL     1       3.282   4.064  18.214  0.00  0.00    +0.000 A 
ATOM     21  C   UNL     1       2.272   3.891  19.175  0.00  0.00    +0.000 A 
ATOM     22  C   UNL     1       1.763   5.022  19.836  0.00  0.00    +0.000 A 
BRANCH  19  23
ATOM     23  C   UNL     1       4.865   5.500  16.867  0.00  0.00    +0.000 C 
ATOM     24  F   UNL     1       4.859   6.712  16.248  0.00  0.00    +0.000 F 
ATOM     25  F   UNL     1       6.113   5.353  17.390  0.00  0.00    +0.000 F 
ATOM     26  F   UNL     1       4.765   4.573  15.875  0.00  0.00    +0.000 F 
ENDBRANCH  19  23
BRANCH  21  27
ATOM     27  C   UNL     1       1.726   2.522  19.503  0.00  0.00    +0.000 C 
ATOM     28  F   UNL     1       2.465   1.506  18.979  0.00  0.00    +0.000 F 
ATOM     29  F   UNL     1       1.672   2.292  20.844  0.00  0.00    +0.000 F 
ATOM     30  F   UNL     1       0.459   2.342  19.038  0.00  0.00    +0.000 F 
ENDBRANCH  21  27
ENDBRANCH   2  17
TORSDOF 7
ENDMDL
