MODEL 1
REMARK VINA RESULT:      -8.7      0.000      0.000
REMARK  Name = 
REMARK  7 active torsions:
REMARK  status: ('A' for Active; 'I' for Inactive)
REMARK    1  A    between atoms: C_1  and  C_2
REMARK    2  A    between atoms: C_6  and  O_7
REMARK    3  A    between atoms: N_9  and  C_10
REMARK    4  A    between atoms: C_10  and  C_11
REMARK    5  A    between atoms: C_16  and  O_17
REMARK    6  A    between atoms: O_17  and  C_18
REMARK    7  A    between atoms: C_18  and  C_19
REMARK                            x       y       z     vdW  Elec       q    Type
REMARK                         _______ _______ _______ _____ _____    ______ ____
ROOT
ATOM      1  C   UNL     1       5.214   4.835  17.128  0.00  0.00    +0.000 A 
ATOM      2  C   UNL     1       6.459   4.688  17.601  0.00  0.00    +0.000 A 
ATOM      3  C   UNL     1       7.222   5.886  17.889  0.00  0.00    +0.000 A 
ATOM      4  C   UNL     1       8.058   5.958  18.995  0.00  0.00    +0.000 A 
ATOM      5  C   UNL     1       8.636   7.181  19.334  0.00  0.00    +0.000 A 
ATOM      6  C   UNL     1       8.478   8.304  18.515  0.00  0.00    +0.000 A 
ATOM      7  C   UNL     1       7.658   8.236  17.389  0.00  0.00    +0.000 A 
ATOM      8  C   UNL     1       6.972   7.038  17.151  0.00  0.00    +0.000 A 
ATOM      9  O   UNL     1       5.853   7.054  16.296  0.00  0.00    +0.000 OA
ATOM     10  C   UNL     1       4.806   6.184  16.639  0.00  0.00    +0.000 A 
ATOM     11  O   UNL     1       3.635   6.472  16.426  0.00  0.00    +0.000 OA
ENDROOT
BRANCH   1  12
ATOM     12  C   UNL     1       4.228   3.704  16.985  0.00  0.00    +0.000 C 
BRANCH  12  20
ATOM     13  C   UNL     1       1.396   4.487  17.763  0.00  0.00    +0.000 C 
ATOM     14  C   UNL     1       2.292   3.696  18.683  0.00  0.00    +0.000 A 
ATOM     15  C   UNL     1       1.796   3.391  19.902  0.00  0.00    +0.000 A 
ATOM     16  C   UNL     1       2.628   2.678  20.904  0.00  0.00    +0.000 A 
ATOM     17  O   UNL     1       2.214   2.389  22.018  0.00  0.00    +0.000 OA
ATOM     18  C   UNL     1       4.016   2.338  20.486  0.00  0.00    +0.000 A 
ATOM     19  C   UNL     1       4.398   2.670  19.246  0.00  0.00    +0.000 A 
ATOM     20  N   UNL     1       3.603   3.326  18.292  0.00  0.00    +0.000 N 
BRANCH  18  21
ATOM     21  O   UNL     1       4.855   1.747  21.407  0.00  0.00    +0.000 OA
ATOM     22  H   UNL     1       4.519   2.052  22.277  0.00  0.00    +0.000 HD
ENDBRANCH  18  21
ENDBRANCH  12  20
ENDBRANCH   1  12
BRANCH   6  23
ATOM     23  O   UNL     1       8.999   9.457  19.031  0.00  0.00    +0.000 OA
BRANCH  23  24
ATOM     24  C   UNL     1       8.839  10.643  18.255  0.00  0.00    +0.000 C 
BRANCH  24  25
ATOM     25  C   UNL     1      10.050  11.516  18.527  0.00  0.00    +0.000 A 
ATOM     26  C   UNL     1      10.887  11.236  19.621  0.00  0.00    +0.000 A 
ATOM     27  C   UNL     1      12.013  12.021  19.887  0.00  0.00    +0.000 A 
ATOM     28  C   UNL     1      12.318  13.102  19.062  0.00  0.00    +0.000 A 
ATOM     29  C   UNL     1      11.496  13.388  17.973  0.00  0.00    +0.000 A 
ATOM     30 CL   UNL     1      11.876  14.722  16.952  0.00  0.00    +0.000 Cl
ATOM     31  C   UNL     1      10.370  12.604  17.701  0.00  0.00    +0.000 A 
ENDBRANCH  24  25
ENDBRANCH  23  24
ENDBRANCH   6  23
TORSDOF 6
ENDMDL
MODEL 2
REMARK VINA RESULT:      -8.5      6.223      9.077
REMARK  Name = 
REMARK  7 active torsions:
REMARK  status: ('A' for Active; 'I' for Inactive)
REMARK    1  A    between atoms: C_1  and  C_2
REMARK    2  A    between atoms: C_6  and  O_7
REMARK    3  A    between atoms: N_9  and  C_10
REMARK    4  A    between atoms: C_10  and  C_11
REMARK    5  A    between atoms: C_16  and  O_17
REMARK    6  A    between atoms: O_17  and  C_18
REMARK    7  A    between atoms: C_18  and  C_19
REMARK                            x       y       z     vdW  Elec       q    Type
REMARK                         _______ _______ _______ _____ _____    ______ ____
ROOT
ATOM      1  C   UNL     1       0.487  10.101  20.136  0.00  0.00    +0.000 A 
ATOM      2  C   UNL     1       1.420   9.853  19.207  0.00  0.00    +0.000 A 
ATOM      3  C   UNL     1       1.890   8.489  19.063  0.00  0.00    +0.000 A 
ATOM      4  C   UNL     1       2.168   7.952  17.814  0.00  0.00    +0.000 A 
ATOM      5  C   UNL     1       2.447   6.590  17.703  0.00  0.00    +0.000 A 
ATOM      6  C   UNL     1       2.563   5.785  18.842  0.00  0.00    +0.000 A 
ATOM      7  C   UNL     1       2.308   6.321  20.104  0.00  0.00    +0.000 A 
ATOM      8  C   UNL     1       1.887   7.655  20.175  0.00  0.00    +0.000 A 
ATOM      9  O   UNL     1       1.240   8.102  21.344  0.00  0.00    +0.000 OA
ATOM     10  C   UNL     1       0.220   9.048  21.157  0.00  0.00    +0.000 A 
ATOM     11  O   UNL     1      -0.769   9.078  21.880  0.00  0.00    +0.000 OA
ENDROOT
BRANCH   1  12
ATOM     12  C   UNL     1      -0.251  11.409  20.260  0.00  0.00    +0.000 C 
BRANCH  12  20
ATOM     13  C   UNL     1      -2.783  12.882  21.070  0.00  0.00    +0.000 C 
ATOM     14  C   UNL     1      -2.679  12.116  19.776  0.00  0.00    +0.000 A 
ATOM     15  C   UNL     1      -3.789  12.067  19.006  0.00  0.00    +0.000 A 
ATOM     16  C   UNL     1      -3.807  11.277  17.748  0.00  0.00    +0.000 A 
ATOM     17  O   UNL     1      -4.793  11.207  17.030  0.00  0.00    +0.000 OA
ATOM     18  C   UNL     1      -2.551  10.554  17.407  0.00  0.00    +0.000 A 
ATOM     19  C   UNL     1      -1.504  10.687  18.231  0.00  0.00    +0.000 A 
ATOM     20  N   UNL     1      -1.482  11.451  19.409  0.00  0.00    +0.000 N 
BRANCH  18  21
ATOM     21  O   UNL     1      -2.542   9.741  16.292  0.00  0.00    +0.000 OA
ATOM     22  H   UNL     1      -2.061  10.261  15.614  0.00  0.00    +0.000 HD
ENDBRANCH  18  21
ENDBRANCH  12  20
ENDBRANCH   1  12
BRANCH   6  23
ATOM     23  O   UNL     1       2.721   4.454  18.577  0.00  0.00    +0.000 OA
BRANCH  23  24
ATOM     24  C   UNL     1       3.875   3.819  19.124  0.00  0.00    +0.000 C 
BRANCH  24  25
ATOM     25  C   UNL     1       5.038   4.150  18.207  0.00  0.00    +0.000 A 
ATOM     26  C   UNL     1       6.198   4.747  18.729  0.00  0.00    +0.000 A 
ATOM     27  C   UNL     1       7.285   5.054  17.906  0.00  0.00    +0.000 A 
ATOM     28  C   UNL     1       7.227   4.770  16.543  0.00  0.00    +0.000 A 
ATOM     29  C   UNL     1       6.083   4.175  16.014  0.00  0.00    +0.000 A 
ATOM     30 CL   UNL     1       6.014   3.820  14.330  0.00  0.00    +0.000 Cl
ATOM     31  C   UNL     1       4.994   3.864  16.834  0.00  0.00    +0.000 A 
ENDBRANCH  24  25
ENDBRANCH  23  24
ENDBRANCH   6  23
TORSDOF 6
ENDMDL
MODEL 3
REMARK VINA RESULT:      -8.3      1.106      1.219
REMARK  Name = 
REMARK  7 active torsions:
REMARK  status: ('A' for Active; 'I' for Inactive)
REMARK    1  A    between atoms: C_1  and  C_2
REMARK    2  A    between atoms: C_6  and  O_7
REMARK    3  A    between atoms: N_9  and  C_10
REMARK    4  A    between atoms: C_10  and  C_11
REMARK    5  A    between atoms: C_16  and  O_17
REMARK    6  A    between atoms: O_17  and  C_18
REMARK    7  A    between atoms: C_18  and  C_19
REMARK                            x       y       z     vdW  Elec       q    Type
REMARK                         _______ _______ _______ _____ _____    ______ ____
ROOT
ATOM      1  C   UNL     1       5.197   4.755  17.163  0.00  0.00    +0.000 A 
ATOM      2  C   UNL     1       6.452   4.634  17.617  0.00  0.00    +0.000 A 
ATOM      3  C   UNL     1       7.198   5.849  17.882  0.00  0.00    +0.000 A 
ATOM      4  C   UNL     1       8.051   5.946  18.973  0.00  0.00    +0.000 A 
ATOM      5  C   UNL     1       8.612   7.182  19.292  0.00  0.00    +0.000 A 
ATOM      6  C   UNL     1       8.420   8.295  18.465  0.00  0.00    +0.000 A 
ATOM      7  C   UNL     1       7.583   8.201  17.353  0.00  0.00    +0.000 A 
ATOM      8  C   UNL     1       6.915   6.989  17.137  0.00  0.00    +0.000 A 
ATOM      9  O   UNL     1       5.782   6.976  16.301  0.00  0.00    +0.000 OA
ATOM     10  C   UNL     1       4.757   6.091  16.669  0.00  0.00    +0.000 A 
ATOM     11  O   UNL     1       3.577   6.356  16.472  0.00  0.00    +0.000 OA
ENDROOT
BRANCH   1  12
ATOM     12  C   UNL     1       4.229   3.605  17.047  0.00  0.00    +0.000 C 
BRANCH  12  20
ATOM     13  C   UNL     1       1.418   4.440  17.842  0.00  0.00    +0.000 C 
ATOM     14  C   UNL     1       2.308   3.642  18.761  0.00  0.00    +0.000 A 
ATOM     15  C   UNL     1       1.818   3.356  19.987  0.00  0.00    +0.000 A 
ATOM     16  C   UNL     1       2.647   2.637  20.988  0.00  0.00    +0.000 A 
ATOM     17  O   UNL     1       2.238   2.365  22.107  0.00  0.00    +0.000 OA
ATOM     18  C   UNL     1       4.025   2.272  20.560  0.00  0.00    +0.000 A 
ATOM     19  C   UNL     1       4.402   2.587  19.315  0.00  0.00    +0.000 A 
ATOM     20  N   UNL     1       3.610   3.248  18.362  0.00  0.00    +0.000 N 
BRANCH  18  21
ATOM     21  O   UNL     1       4.862   1.675  21.480  0.00  0.00    +0.000 OA
ATOM     22  H   UNL     1       4.270   1.114  22.025  0.00  0.00    +0.000 HD
ENDBRANCH  18  21
ENDBRANCH  12  20
ENDBRANCH   1  12
BRANCH   6  23
ATOM     23  O   UNL     1       8.928   9.461  18.962  0.00  0.00    +0.000 OA
BRANCH  23  24
ATOM     24  C   UNL     1       9.087  10.540  18.043  0.00  0.00    +0.000 C 
BRANCH  24  25
ATOM     25  C   UNL     1      10.026  11.540  18.693  0.00  0.00    +0.000 A 
ATOM     26  C   UNL     1      11.312  11.744  18.163  0.00  0.00    +0.000 A 
ATOM     27  C   UNL     1      12.192  12.665  18.739  0.00  0.00    +0.000 A 
ATOM     28  C   UNL     1      11.798  13.396  19.858  0.00  0.00    +0.000 A 
ATOM     29  C   UNL     1      10.525  13.204  20.391  0.00  0.00    +0.000 A 
ATOM     30 CL   UNL     1      10.039  14.112  21.771  0.00  0.00    +0.000 Cl
ATOM     31  C   UNL     1       9.640  12.286  19.817  0.00  0.00    +0.000 A 
ENDBRANCH  24  25
ENDBRANCH  23  24
ENDBRANCH   6  23
TORSDOF 6
ENDMDL
MODEL 4
REMARK VINA RESULT:      -8.3      8.390     11.309
REMARK  Name = 
REMARK  7 active torsions:
REMARK  status: ('A' for Active; 'I' for Inactive)
REMARK    1  A    between atoms: C_1  and  C_2
REMARK    2  A    between atoms: C_6  and  O_7
REMARK    3  A    between atoms: N_9  and  C_10
REMARK    4  A    between atoms: C_10  and  C_11
REMARK    5  A    between atoms: C_16  and  O_17
REMARK    6  A    between atoms: O_17  and  C_18
REMARK    7  A    between atoms: C_18  and  C_19
REMARK                            x       y       z     vdW  Elec       q    Type
REMARK                         _______ _______ _______ _____ _____    ______ ____
ROOT
ATOM      1  C   UNL     1      -0.595  12.029  21.807  0.00  0.00    +0.000 A 
ATOM      2  C   UNL     1       0.177  12.197  20.725  0.00  0.00    +0.000 A 
ATOM      3  C   UNL     1       0.768  11.019  20.122  0.00  0.00    +0.000 A 
ATOM      4  C   UNL     1       0.876  10.892  18.744  0.00  0.00    +0.000 A 
ATOM      5  C   UNL     1       1.287   9.676  18.201  0.00  0.00    +0.000 A 
ATOM      6  C   UNL     1       1.701   8.622  19.024  0.00  0.00    +0.000 A 
ATOM      7  C   UNL     1       1.618   8.748  20.411  0.00  0.00    +0.000 A 
ATOM      8  C   UNL     1       1.064   9.926  20.929  0.00  0.00    +0.000 A 
ATOM      9  O   UNL     1       0.592   9.928  22.256  0.00  0.00    +0.000 OA
ATOM     10  C   UNL     1      -0.548  10.710  22.501  0.00  0.00    +0.000 A 
ATOM     11  O   UNL     1      -1.386  10.382  23.332  0.00  0.00    +0.000 OA
ENDROOT
BRANCH   1  12
ATOM     12  C   UNL     1      -1.445  13.116  22.412  0.00  0.00    +0.000 C 
BRANCH  12  20
ATOM     13  C   UNL     1      -3.784  12.918  24.343  0.00  0.00    +0.000 C 
ATOM     14  C   UNL     1      -3.976  12.926  22.847  0.00  0.00    +0.000 A 
ATOM     15  C   UNL     1      -5.241  12.786  22.395  0.00  0.00    +0.000 A 
ATOM     16  C   UNL     1      -5.524  12.710  20.939  0.00  0.00    +0.000 A 
ATOM     17  O   UNL     1      -6.655  12.581  20.494  0.00  0.00    +0.000 OA
ATOM     18  C   UNL     1      -4.344  12.786  20.035  0.00  0.00    +0.000 A 
ATOM     19  C   UNL     1      -3.135  12.944  20.589  0.00  0.00    +0.000 A 
ATOM     20  N   UNL     1      -2.872  13.037  21.966  0.00  0.00    +0.000 N 
BRANCH  18  21
ATOM     21  O   UNL     1      -4.544  12.639  18.678  0.00  0.00    +0.000 OA
ATOM     22  H   UNL     1      -5.516  12.712  18.564  0.00  0.00    +0.000 HD
ENDBRANCH  18  21
ENDBRANCH  12  20
ENDBRANCH   1  12
BRANCH   6  23
ATOM     23  O   UNL     1       1.962   7.457  18.361  0.00  0.00    +0.000 OA
BRANCH  23  24
ATOM     24  C   UNL     1       2.962   6.606  18.920  0.00  0.00    +0.000 C 
BRANCH  24  25
ATOM     25  C   UNL     1       2.350   5.223  19.038  0.00  0.00    +0.000 A 
ATOM     26  C   UNL     1       2.036   4.491  17.880  0.00  0.00    +0.000 A 
ATOM     27  C   UNL     1       1.479   3.212  17.963  0.00  0.00    +0.000 A 
ATOM     28  C   UNL     1       1.224   2.644  19.210  0.00  0.00    +0.000 A 
ATOM     29  C   UNL     1       1.533   3.359  20.366  0.00  0.00    +0.000 A 
ATOM     30 CL   UNL     1       1.222   2.655  21.906  0.00  0.00    +0.000 Cl
ATOM     31  C   UNL     1       2.093   4.639  20.288  0.00  0.00    +0.000 A 
ENDBRANCH  24  25
ENDBRANCH  23  24
ENDBRANCH   6  23
TORSDOF 6
ENDMDL
MODEL 5
REMARK VINA RESULT:      -8.3      6.594      9.214
REMARK  Name = 
REMARK  7 active torsions:
REMARK  status: ('A' for Active; 'I' for Inactive)
REMARK    1  A    between atoms: C_1  and  C_2
REMARK    2  A    between atoms: C_6  and  O_7
REMARK    3  A    between atoms: N_9  and  C_10
REMARK    4  A    between atoms: C_10  and  C_11
REMARK    5  A    between atoms: C_16  and  O_17
REMARK    6  A    between atoms: O_17  and  C_18
REMARK    7  A    between atoms: C_18  and  C_19
REMARK                            x       y       z     vdW  Elec       q    Type
REMARK                         _______ _______ _______ _____ _____    ______ ____
ROOT
ATOM      1  C   UNL     1       0.854  11.010  19.154  0.00  0.00    +0.000 A 
ATOM      2  C   UNL     1       0.390   9.888  19.721  0.00  0.00    +0.000 A 
ATOM      3  C   UNL     1       1.181   8.681  19.584  0.00  0.00    +0.000 A 
ATOM      4  C   UNL     1       1.300   7.776  20.630  0.00  0.00    +0.000 A 
ATOM      5  C   UNL     1       2.206   6.722  20.520  0.00  0.00    +0.000 A 
ATOM      6  C   UNL     1       2.909   6.498  19.331  0.00  0.00    +0.000 A 
ATOM      7  C   UNL     1       2.778   7.389  18.265  0.00  0.00    +0.000 A 
ATOM      8  C   UNL     1       1.975   8.520  18.454  0.00  0.00    +0.000 A 
ATOM      9  O   UNL     1       2.137   9.621  17.590  0.00  0.00    +0.000 OA
ATOM     10  C   UNL     1       1.969  10.888  18.171  0.00  0.00    +0.000 A 
ATOM     11  O   UNL     1       2.614  11.858  17.795  0.00  0.00    +0.000 OA
ENDROOT
BRANCH   1  12
ATOM     12  C   UNL     1       0.265  12.378  19.387  0.00  0.00    +0.000 C 
BRANCH  12  20
ATOM     13  C   UNL     1      -1.493  13.152  21.741  0.00  0.00    +0.000 C 
ATOM     14  C   UNL     1      -2.070  12.709  20.421  0.00  0.00    +0.000 A 
ATOM     15  C   UNL     1      -3.416  12.619  20.344  0.00  0.00    +0.000 A 
ATOM     16  C   UNL     1      -4.075  12.123  19.108  0.00  0.00    +0.000 A 
ATOM     17  O   UNL     1      -5.288  12.025  19.004  0.00  0.00    +0.000 OA
ATOM     18  C   UNL     1      -3.171  11.732  17.992  0.00  0.00    +0.000 A 
ATOM     19  C   UNL     1      -1.852  11.880  18.169  0.00  0.00    +0.000 A 
ATOM     20  N   UNL     1      -1.231  12.370  19.330  0.00  0.00    +0.000 N 
BRANCH  18  21
ATOM     21  O   UNL     1      -3.729  11.189  16.853  0.00  0.00    +0.000 OA
ATOM     22  H   UNL     1      -4.696  11.282  16.985  0.00  0.00    +0.000 HD
ENDBRANCH  18  21
ENDBRANCH  12  20
ENDBRANCH   1  12
BRANCH   6  23
ATOM     23  O   UNL     1       3.845   5.505  19.407  0.00  0.00    +0.000 OA
BRANCH  23  24
ATOM     24  C   UNL     1       3.708   4.417  18.494  0.00  0.00    +0.000 C 
BRANCH  24  25
ATOM     25  C   UNL     1       4.938   4.430  17.605  0.00  0.00    +0.000 A 
ATOM     26  C   UNL     1       6.206   4.672  18.162  0.00  0.00    +0.000 A 
ATOM     27  C   UNL     1       7.354   4.680  17.365  0.00  0.00    +0.000 A 
ATOM     28  C   UNL     1       7.251   4.448  15.994  0.00  0.00    +0.000 A 
ATOM     29  C   UNL     1       6.000   4.204  15.432  0.00  0.00    +0.000 A 
ATOM     30 CL   UNL     1       5.875   3.913  13.739  0.00  0.00    +0.000 Cl
ATOM     31  C   UNL     1       4.848   4.192  16.225  0.00  0.00    +0.000 A 
ENDBRANCH  24  25
ENDBRANCH  23  24
ENDBRANCH   6  23
TORSDOF 6
ENDMDL
MODEL 6
REMARK VINA RESULT:      -8.2      5.118      8.023
REMARK  Name = 
REMARK  7 active torsions:
REMARK  status: ('A' for Active; 'I' for Inactive)
REMARK    1  A    between atoms: C_1  and  C_2
REMARK    2  A    between atoms: C_6  and  O_7
REMARK    3  A    between atoms: N_9  and  C_10
REMARK    4  A    between atoms: C_10  and  C_11
REMARK    5  A    between atoms: C_16  and  O_17
REMARK    6  A    between atoms: O_17  and  C_18
REMARK    7  A    between atoms: C_18  and  C_19
REMARK                            x       y       z     vdW  Elec       q    Type
REMARK                         _______ _______ _______ _____ _____    ______ ____
ROOT
ATOM      1  C   UNL     1       3.921   3.788  18.049  0.00  0.00    +0.000 A 
ATOM      2  C   UNL     1       3.192   4.789  17.536  0.00  0.00    +0.000 A 
ATOM      3  C   UNL     1       2.595   5.735  18.458  0.00  0.00    +0.000 A 
ATOM      4  C   UNL     1       2.533   7.089  18.160  0.00  0.00    +0.000 A 
ATOM      5  C   UNL     1       2.113   7.986  19.142  0.00  0.00    +0.000 A 
ATOM      6  C   UNL     1       1.646   7.531  20.380  0.00  0.00    +0.000 A 
ATOM      7  C   UNL     1       1.683   6.169  20.681  0.00  0.00    +0.000 A 
ATOM      8  C   UNL     1       2.246   5.305  19.734  0.00  0.00    +0.000 A 
ATOM      9  O   UNL     1       2.670   4.027  20.147  0.00  0.00    +0.000 OA
ATOM     10  C   UNL     1       3.819   3.528  19.513  0.00  0.00    +0.000 A 
ATOM     11  O   UNL     1       4.619   2.812  20.104  0.00  0.00    +0.000 OA
ENDROOT
BRANCH   1  12
ATOM     12  C   UNL     1       4.775   2.860  17.223  0.00  0.00    +0.000 C 
BRANCH  12  20
ATOM     13  C   UNL     1       6.807   4.881  18.233  0.00  0.00    +0.000 C 
ATOM     14  C   UNL     1       6.654   4.561  16.767  0.00  0.00    +0.000 A 
ATOM     15  C   UNL     1       7.430   5.256  15.907  0.00  0.00    +0.000 A 
ATOM     16  C   UNL     1       7.300   5.063  14.441  0.00  0.00    +0.000 A 
ATOM     17  O   UNL     1       7.983   5.676  13.633  0.00  0.00    +0.000 OA
ATOM     18  C   UNL     1       6.274   4.081  13.994  0.00  0.00    +0.000 A 
ATOM     19  C   UNL     1       5.573   3.432  14.933  0.00  0.00    +0.000 A 
ATOM     20  N   UNL     1       5.712   3.601  16.320  0.00  0.00    +0.000 N 
BRANCH  18  21
ATOM     21  O   UNL     1       6.059   3.924  12.641  0.00  0.00    +0.000 OA
ATOM     22  H   UNL     1       6.847   3.435  12.321  0.00  0.00    +0.000 HD
ENDBRANCH  18  21
ENDBRANCH  12  20
ENDBRANCH   1  12
BRANCH   6  23
ATOM     23  O   UNL     1       1.381   8.522  21.282  0.00  0.00    +0.000 OA
BRANCH  23  24
ATOM     24  C   UNL     1       0.012   8.742  21.616  0.00  0.00    +0.000 C 
BRANCH  24  25
ATOM     25  C   UNL     1      -0.168  10.240  21.777  0.00  0.00    +0.000 A 
ATOM     26  C   UNL     1      -0.966  10.745  22.818  0.00  0.00    +0.000 A 
ATOM     27  C   UNL     1      -1.140  12.121  22.992  0.00  0.00    +0.000 A 
ATOM     28  C   UNL     1      -0.520  13.016  22.121  0.00  0.00    +0.000 A 
ATOM     29  C   UNL     1       0.275  12.527  21.086  0.00  0.00    +0.000 A 
ATOM     30 CL   UNL     1       1.044  13.634  20.014  0.00  0.00    +0.000 Cl
ATOM     31  C   UNL     1       0.455  11.151  20.910  0.00  0.00    +0.000 A 
ENDBRANCH  24  25
ENDBRANCH  23  24
ENDBRANCH   6  23
TORSDOF 6
ENDMDL
MODEL 7
REMARK VINA RESULT:      -8.2      8.450     11.417
REMARK  Name = 
REMARK  7 active torsions:
REMARK  status: ('A' for Active; 'I' for Inactive)
REMARK    1  A    between atoms: C_1  and  C_2
REMARK    2  A    between atoms: C_6  and  O_7
REMARK    3  A    between atoms: N_9  and  C_10
REMARK    4  A    between atoms: C_10  and  C_11
REMARK    5  A    between atoms: C_16  and  O_17
REMARK    6  A    between atoms: O_17  and  C_18
REMARK    7  A    between atoms: C_18  and  C_19
REMARK                            x       y       z     vdW  Elec       q    Type
REMARK                         _______ _______ _______ _____ _____    ______ ____
ROOT
ATOM      1  C   UNL     1      -1.509  12.400  21.122  0.00  0.00    +0.000 A 
ATOM      2  C   UNL     1      -0.586  12.118  20.193  0.00  0.00    +0.000 A 
ATOM      3  C   UNL     1       0.192  10.905  20.355  0.00  0.00    +0.000 A 
ATOM      4  C   UNL     1       0.535  10.119  19.264  0.00  0.00    +0.000 A 
ATOM      5  C   UNL     1       1.130   8.876  19.479  0.00  0.00    +0.000 A 
ATOM      6  C   UNL     1       1.488   8.463  20.767  0.00  0.00    +0.000 A 
ATOM      7  C   UNL     1       1.168   9.257  21.869  0.00  0.00    +0.000 A 
ATOM      8  C   UNL     1       0.440  10.431  21.639  0.00  0.00    +0.000 A 
ATOM      9  O   UNL     1      -0.243  11.030  22.716  0.00  0.00    +0.000 OA
ATOM     10  C   UNL     1      -1.468  11.638  22.403  0.00  0.00    +0.000 A 
ATOM     11  O   UNL     1      -2.401  11.649  23.197  0.00  0.00    +0.000 OA
ENDROOT
BRANCH   1  12
ATOM     12  C   UNL     1      -2.535  13.496  20.984  0.00  0.00    +0.000 C 
BRANCH  12  20
ATOM     13  C   UNL     1      -5.024  13.762  22.708  0.00  0.00    +0.000 C 
ATOM     14  C   UNL     1      -5.045  13.068  21.370  0.00  0.00    +0.000 A 
ATOM     15  C   UNL     1      -6.218  12.517  20.988  0.00  0.00    +0.000 A 
ATOM     16  C   UNL     1      -6.320  11.750  19.720  0.00  0.00    +0.000 A 
ATOM     17  O   UNL     1      -7.363  11.235  19.345  0.00  0.00    +0.000 OA
ATOM     18  C   UNL     1      -5.069  11.626  18.923  0.00  0.00    +0.000 A 
ATOM     19  C   UNL     1      -3.966  12.229  19.385  0.00  0.00    +0.000 A 
ATOM     20  N   UNL     1      -3.876  12.971  20.574  0.00  0.00    +0.000 N 
BRANCH  18  21
ATOM     21  O   UNL     1      -5.091  10.856  17.778  0.00  0.00    +0.000 OA
ATOM     22  H   UNL     1      -4.146  10.707  17.564  0.00  0.00    +0.000 HD
ENDBRANCH  18  21
ENDBRANCH  12  20
ENDBRANCH   1  12
BRANCH   6  23
ATOM     23  O   UNL     1       1.951   7.179  20.840  0.00  0.00    +0.000 OA
BRANCH  23  24
ATOM     24  C   UNL     1       2.452   6.605  19.634  0.00  0.00    +0.000 C 
BRANCH  24  25
ATOM     25  C   UNL     1       2.233   5.107  19.734  0.00  0.00    +0.000 A 
ATOM     26  C   UNL     1       1.331   4.589  20.680  0.00  0.00    +0.000 A 
ATOM     27  C   UNL     1       1.106   3.214  20.785  0.00  0.00    +0.000 A 
ATOM     28  C   UNL     1       1.782   2.332  19.945  0.00  0.00    +0.000 A 
ATOM     29  C   UNL     1       2.677   2.833  19.001  0.00  0.00    +0.000 A 
ATOM     30 CL   UNL     1       3.509   1.743  17.960  0.00  0.00    +0.000 Cl
ATOM     31  C   UNL     1       2.904   4.209  18.890  0.00  0.00    +0.000 A 
ENDBRANCH  24  25
ENDBRANCH  23  24
ENDBRANCH   6  23
TORSDOF 6
ENDMDL
MODEL 8
REMARK VINA RESULT:      -8.1      5.327      8.095
REMARK  Name = 
REMARK  7 active torsions:
REMARK  status: ('A' for Active; 'I' for Inactive)
REMARK    1  A    between atoms: C_1  and  C_2
REMARK    2  A    between atoms: C_6  and  O_7
REMARK    3  A    between atoms: N_9  and  C_10
REMARK    4  A    between atoms: C_10  and  C_11
REMARK    5  A    between atoms: C_16  and  O_17
REMARK    6  A    between atoms: O_17  and  C_18
REMARK    7  A    between atoms: C_18  and  C_19
REMARK                            x       y       z     vdW  Elec       q    Type
REMARK                         _______ _______ _______ _____ _____    ______ ____
ROOT
ATOM      1  C   UNL     1       3.558   4.147  18.302  0.00  0.00    +0.000 A 
ATOM      2  C   UNL     1       2.946   5.182  17.710  0.00  0.00    +0.000 A 
ATOM      3  C   UNL     1       2.376   6.210  18.559  0.00  0.00    +0.000 A 
ATOM      4  C   UNL     1       2.445   7.551  18.209  0.00  0.00    +0.000 A 
ATOM      5  C   UNL     1       2.043   8.518  19.131  0.00  0.00    +0.000 A 
ATOM      6  C   UNL     1       1.468   8.152  20.353  0.00  0.00    +0.000 A 
ATOM      7  C   UNL     1       1.373   6.805  20.704  0.00  0.00    +0.000 A 
ATOM      8  C   UNL     1       1.917   5.861  19.824  0.00  0.00    +0.000 A 
ATOM      9  O   UNL     1       2.210   4.570  20.308  0.00  0.00    +0.000 OA
ATOM     10  C   UNL     1       3.349   3.955  19.765  0.00  0.00    +0.000 A 
ATOM     11  O   UNL     1       4.050   3.202  20.430  0.00  0.00    +0.000 OA
ENDROOT
BRANCH   1  12
ATOM     12  C   UNL     1       4.379   3.121  17.564  0.00  0.00    +0.000 C 
BRANCH  12  20
ATOM     13  C   UNL     1       6.525   5.022  18.571  0.00  0.00    +0.000 C 
ATOM     14  C   UNL     1       6.401   4.651  17.115  0.00  0.00    +0.000 A 
ATOM     15  C   UNL     1       7.260   5.246  16.259  0.00  0.00    +0.000 A 
ATOM     16  C   UNL     1       7.170   4.999  14.797  0.00  0.00    +0.000 A 
ATOM     17  O   UNL     1       7.928   5.522  13.994  0.00  0.00    +0.000 OA
ATOM     18  C   UNL     1       6.087   4.080  14.351  0.00  0.00    +0.000 A 
ATOM     19  C   UNL     1       5.303   3.529  15.286  0.00  0.00    +0.000 A 
ATOM     20  N   UNL     1       5.404   3.747  16.670  0.00  0.00    +0.000 N 
BRANCH  18  21
ATOM     21  O   UNL     1       5.910   3.881  12.997  0.00  0.00    +0.000 OA
ATOM     22  H   UNL     1       5.316   4.609  12.717  0.00  0.00    +0.000 HD
ENDBRANCH  18  21
ENDBRANCH  12  20
ENDBRANCH   1  12
BRANCH   6  23
ATOM     23  O   UNL     1       1.233   9.197  21.202  0.00  0.00    +0.000 OA
BRANCH  23  24
ATOM     24  C   UNL     1      -0.119   9.635  21.328  0.00  0.00    +0.000 C 
BRANCH  24  25
ATOM     25  C   UNL     1      -0.336  10.709  20.279  0.00  0.00    +0.000 A 
ATOM     26  C   UNL     1       0.323  11.946  20.392  0.00  0.00    +0.000 A 
ATOM     27  C   UNL     1       0.146  12.948  19.434  0.00  0.00    +0.000 A 
ATOM     28  C   UNL     1      -0.698  12.729  18.347  0.00  0.00    +0.000 A 
ATOM     29  C   UNL     1      -1.355  11.506  18.223  0.00  0.00    +0.000 A 
ATOM     30 CL   UNL     1      -2.394  11.236  16.876  0.00  0.00    +0.000 Cl
ATOM     31  C   UNL     1      -1.179  10.499  19.177  0.00  0.00    +0.000 A 
ENDBRANCH  24  25
ENDBRANCH  23  24
ENDBRANCH   6  23
TORSDOF 6
ENDMDL
MODEL 9
REMARK VINA RESULT:      -8.1      5.404      8.319
REMARK  Name = 
REMARK  7 active torsions:
REMARK  status: ('A' for Active; 'I' for Inactive)
REMARK    1  A    between atoms: C_1  and  C_2
REMARK    2  A    between atoms: C_6  and  O_7
REMARK    3  A    between atoms: N_9  and  C_10
REMARK    4  A    between atoms: C_10  and  C_11
REMARK    5  A    between atoms: C_16  and  O_17
REMARK    6  A    between atoms: O_17  and  C_18
REMARK    7  A    between atoms: C_18  and  C_19
REMARK                            x       y       z     vdW  Elec       q    Type
REMARK                         _______ _______ _______ _____ _____    ______ ____
ROOT
ATOM      1  C   UNL     1       4.044   3.788  17.982  0.00  0.00    +0.000 A 
ATOM      2  C   UNL     1       3.300   4.768  17.453  0.00  0.00    +0.000 A 
ATOM      3  C   UNL     1       2.702   5.730  18.357  0.00  0.00    +0.000 A 
ATOM      4  C   UNL     1       2.622   7.076  18.026  0.00  0.00    +0.000 A 
ATOM      5  C   UNL     1       2.202   7.991  18.990  0.00  0.00    +0.000 A 
ATOM      6  C   UNL     1       1.751   7.562  20.243  0.00  0.00    +0.000 A 
ATOM      7  C   UNL     1       1.805   6.208  20.577  0.00  0.00    +0.000 A 
ATOM      8  C   UNL     1       2.368   5.327  19.645  0.00  0.00    +0.000 A 
ATOM      9  O   UNL     1       2.811   4.064  20.086  0.00  0.00    +0.000 OA
ATOM     10  C   UNL     1       3.959   3.562  19.454  0.00  0.00    +0.000 A 
ATOM     11  O   UNL     1       4.772   2.869  20.054  0.00  0.00    +0.000 OA
ENDROOT
BRANCH   1  12
ATOM     12  C   UNL     1       4.900   2.848  17.172  0.00  0.00    +0.000 C 
BRANCH  12  20
ATOM     13  C   UNL     1       7.031   4.856  17.987  0.00  0.00    +0.000 C 
ATOM     14  C   UNL     1       6.750   4.526  16.543  0.00  0.00    +0.000 A 
ATOM     15  C   UNL     1       7.456   5.207  15.615  0.00  0.00    +0.000 A 
ATOM     16  C   UNL     1       7.200   5.004  14.166  0.00  0.00    +0.000 A 
ATOM     17  O   UNL     1       7.817   5.605  13.298  0.00  0.00    +0.000 OA
ATOM     18  C   UNL     1       6.130   4.030  13.817  0.00  0.00    +0.000 A 
ATOM     19  C   UNL     1       5.506   3.396  14.817  0.00  0.00    +0.000 A 
ATOM     20  N   UNL     1       5.764   3.573  16.186  0.00  0.00    +0.000 N 
BRANCH  18  21
ATOM     21  O   UNL     1       5.798   3.865  12.488  0.00  0.00    +0.000 OA
ATOM     22  H   UNL     1       5.412   4.727  12.222  0.00  0.00    +0.000 HD
ENDBRANCH  18  21
ENDBRANCH  12  20
ENDBRANCH   1  12
BRANCH   6  23
ATOM     23  O   UNL     1       1.484   8.572  21.123  0.00  0.00    +0.000 OA
BRANCH  23  24
ATOM     24  C   UNL     1       0.152   8.654  21.627  0.00  0.00    +0.000 C 
BRANCH  24  25
ATOM     25  C   UNL     1      -0.339  10.063  21.352  0.00  0.00    +0.000 A 
ATOM     26  C   UNL     1      -0.598  10.472  20.032  0.00  0.00    +0.000 A 
ATOM     27  C   UNL     1      -1.058  11.762  19.754  0.00  0.00    +0.000 A 
ATOM     28  C   UNL     1      -1.265  12.667  20.794  0.00  0.00    +0.000 A 
ATOM     29  C   UNL     1      -1.013  12.272  22.107  0.00  0.00    +0.000 A 
ATOM     30 CL   UNL     1      -1.273  13.389  23.392  0.00  0.00    +0.000 Cl
ATOM     31  C   UNL     1      -0.555  10.981  22.391  0.00  0.00    +0.000 A 
ENDBRANCH  24  25
ENDBRANCH  23  24
ENDBRANCH   6  23
TORSDOF 6
ENDMDL
