MODEL 1
REMARK VINA RESULT:      -8.6      0.000      0.000
REMARK  Name = 
REMARK  8 active torsions:
REMARK  status: ('A' for Active; 'I' for Inactive)
REMARK    1  A    between atoms: C_1  and  C_2
REMARK    2  A    between atoms: C_2  and  O_3
REMARK    3  A    between atoms: O_3  and  C_4
REMARK    4  A    between atoms: C_4  and  C_6
REMARK    5  A    between atoms: C_9  and  N_10
REMARK    6  A    between atoms: N_13  and  C_14
REMARK    7  A    between atoms: C_17  and  C_18
REMARK    8  A    between atoms: C_22  and  C_23
REMARK                            x       y       z     vdW  Elec       q    Type
REMARK                         _______ _______ _______ _____ _____    ______ ____
ROOT
ATOM      1  C   UNL     1       1.184   9.762  19.435  0.00  0.00    +0.000 A 
ATOM      2  C   UNL     1       1.678   9.472  18.168  0.00  0.00    +0.000 A 
ATOM      3  C   UNL     1       2.349   8.268  17.933  0.00  0.00    +0.000 A 
ATOM      4  C   UNL     1       2.513   7.300  18.942  0.00  0.00    +0.000 A 
ATOM      5  C   UNL     1       2.017   7.628  20.219  0.00  0.00    +0.000 A 
ATOM      6  C   UNL     1       1.390   8.857  20.472  0.00  0.00    +0.000 A 
ENDROOT
BRANCH   1  10
ATOM      7  N   UNL     1      -1.337  12.148  20.474  0.00  0.00    +0.000 N 
ATOM      8  C   UNL     1      -0.780  10.889  20.329  0.00  0.00    +0.000 C 
ATOM      9  O   UNL     1      -1.293   9.849  20.729  0.00  0.00    +0.000 OA
ATOM     10  N   UNL     1       0.457  10.944  19.698  0.00  0.00    +0.000 N 
ATOM     11  H   UNL     1      -1.097  12.816  19.758  0.00  0.00    +0.000 HD
ATOM     12  H   UNL     1       1.014  11.753  19.938  0.00  0.00    +0.000 HD
BRANCH   7  16
ATOM     13  C   UNL     1      -4.763  12.977  22.825  0.00  0.00    +0.000 A 
ATOM     14  C   UNL     1      -3.565  12.610  23.442  0.00  0.00    +0.000 A 
ATOM     15  C   UNL     1      -2.430  12.342  22.674  0.00  0.00    +0.000 A 
ATOM     16  C   UNL     1      -2.468  12.428  21.278  0.00  0.00    +0.000 A 
ATOM     17  C   UNL     1      -3.658  12.824  20.659  0.00  0.00    +0.000 A 
ATOM     18  C   UNL     1      -4.804  13.086  21.428  0.00  0.00    +0.000 A 
BRANCH  13  19
ATOM     19  C   UNL     1      -5.949  13.178  23.700  0.00  0.00    +0.000 C 
ATOM     20  O   UNL     1      -6.630  12.261  24.132  0.00  0.00    +0.000 OA
BRANCH  19  21
ATOM     21  O   UNL     1      -6.205  14.500  23.855  0.00  0.00    +0.000 OA
BRANCH  21  23
ATOM     22  C   UNL     1      -7.184  15.954  22.231  0.00  0.00    +0.000 C 
ATOM     23  C   UNL     1      -7.464  14.945  23.328  0.00  0.00    +0.000 C 
ENDBRANCH  21  23
ENDBRANCH  19  21
ENDBRANCH  13  19
ENDBRANCH   7  16
ENDBRANCH   1  10
BRANCH   4  24
ATOM     24  C   UNL     1       3.190   6.006  18.659  0.00  0.00    +0.000 A 
ATOM     25  C   UNL     1       3.242   4.971  19.606  0.00  0.00    +0.000 A 
ATOM     26  C   UNL     1       3.928   3.780  19.347  0.00  0.00    +0.000 A 
ATOM     27  C   UNL     1       4.607   3.615  18.143  0.00  0.00    +0.000 A 
ATOM     28  C   UNL     1       4.599   4.621  17.174  0.00  0.00    +0.000 A 
ATOM     29  C   UNL     1       3.854   5.784  17.431  0.00  0.00    +0.000 A 
BRANCH  28  30
ATOM     30  C   UNL     1       5.434   4.478  15.973  0.00  0.00    +0.000 A 
ATOM     31  N   UNL     1       6.482   5.227  15.671  0.00  0.00    +0.000 NA
ATOM     32  C   UNL     1       6.818   4.917  14.378  0.00  0.00    +0.000 A 
ATOM     33  C   UNL     1       7.795   5.478  13.546  0.00  0.00    +0.000 A 
ATOM     34  C   UNL     1       7.891   5.022  12.225  0.00  0.00    +0.000 A 
ATOM     35  C   UNL     1       7.043   4.018  11.751  0.00  0.00    +0.000 A 
ATOM     36  C   UNL     1       6.078   3.428  12.577  0.00  0.00    +0.000 A 
ATOM     37  C   UNL     1       5.998   3.913  13.883  0.00  0.00    +0.000 A 
ATOM     38  N   UNL     1       5.180   3.603  14.938  0.00  0.00    +0.000 N 
ATOM     39  H   UNL     1       4.454   2.902  14.921  0.00  0.00    +0.000 HD
ENDBRANCH  28  30
ENDBRANCH   4  24
TORSDOF 7
ENDMDL
MODEL 2
REMARK VINA RESULT:      -8.5      1.346      1.833
REMARK  Name = 
REMARK  8 active torsions:
REMARK  status: ('A' for Active; 'I' for Inactive)
REMARK    1  A    between atoms: C_1  and  C_2
REMARK    2  A    between atoms: C_2  and  O_3
REMARK    3  A    between atoms: O_3  and  C_4
REMARK    4  A    between atoms: C_4  and  C_6
REMARK    5  A    between atoms: C_9  and  N_10
REMARK    6  A    between atoms: N_13  and  C_14
REMARK    7  A    between atoms: C_17  and  C_18
REMARK    8  A    between atoms: C_22  and  C_23
REMARK                            x       y       z     vdW  Elec       q    Type
REMARK                         _______ _______ _______ _____ _____    ______ ____
ROOT
ATOM      1  C   UNL     1       0.995   9.833  19.289  0.00  0.00    +0.000 A 
ATOM      2  C   UNL     1       1.144   8.910  20.318  0.00  0.00    +0.000 A 
ATOM      3  C   UNL     1       1.849   7.722  20.102  0.00  0.00    +0.000 A 
ATOM      4  C   UNL     1       2.458   7.435  18.866  0.00  0.00    +0.000 A 
ATOM      5  C   UNL     1       2.277   8.379  17.837  0.00  0.00    +0.000 A 
ATOM      6  C   UNL     1       1.527   9.549  18.035  0.00  0.00    +0.000 A 
ENDROOT
BRANCH   1  10
ATOM      7  N   UNL     1      -1.503  12.433  19.643  0.00  0.00    +0.000 N 
ATOM      8  C   UNL     1      -1.054  11.138  19.453  0.00  0.00    +0.000 C 
ATOM      9  O   UNL     1      -1.782  10.162  19.302  0.00  0.00    +0.000 OA
ATOM     10  N   UNL     1       0.334  11.066  19.484  0.00  0.00    +0.000 N 
ATOM     11  H   UNL     1      -0.891  13.160  19.306  0.00  0.00    +0.000 HD
ATOM     12  H   UNL     1       0.771  11.694  20.145  0.00  0.00    +0.000 HD
BRANCH   7  16
ATOM     13  C   UNL     1      -5.566  13.397  20.363  0.00  0.00    +0.000 A 
ATOM     14  C   UNL     1      -4.554  14.105  21.015  0.00  0.00    +0.000 A 
ATOM     15  C   UNL     1      -3.212  13.799  20.777  0.00  0.00    +0.000 A 
ATOM     16  C   UNL     1      -2.853  12.776  19.892  0.00  0.00    +0.000 A 
ATOM     17  C   UNL     1      -3.864  12.084  19.216  0.00  0.00    +0.000 A 
ATOM     18  C   UNL     1      -5.214  12.385  19.459  0.00  0.00    +0.000 A 
BRANCH  13  19
ATOM     19  C   UNL     1      -6.971  13.730  20.718  0.00  0.00    +0.000 C 
ATOM     20  O   UNL     1      -7.452  14.846  20.586  0.00  0.00    +0.000 OA
BRANCH  19  21
ATOM     21  O   UNL     1      -7.585  12.662  21.283  0.00  0.00    +0.000 OA
BRANCH  21  23
ATOM     22  C   UNL     1      -7.909  13.001  23.627  0.00  0.00    +0.000 C 
ATOM     23  C   UNL     1      -7.085  12.283  22.575  0.00  0.00    +0.000 C 
ENDBRANCH  21  23
ENDBRANCH  19  21
ENDBRANCH  13  19
ENDBRANCH   7  16
ENDBRANCH   1  10
BRANCH   4  24
ATOM     24  C   UNL     1       3.242   6.185  18.671  0.00  0.00    +0.000 A 
ATOM     25  C   UNL     1       3.419   5.249  19.702  0.00  0.00    +0.000 A 
ATOM     26  C   UNL     1       4.202   4.105  19.521  0.00  0.00    +0.000 A 
ATOM     27  C   UNL     1       4.855   3.892  18.310  0.00  0.00    +0.000 A 
ATOM     28  C   UNL     1       4.724   4.801  17.258  0.00  0.00    +0.000 A 
ATOM     29  C   UNL     1       3.884   5.912  17.441  0.00  0.00    +0.000 A 
BRANCH  28  30
ATOM     30  C   UNL     1       5.530   4.624  16.042  0.00  0.00    +0.000 A 
ATOM     31  N   UNL     1       6.560   5.375  15.686  0.00  0.00    +0.000 NA
ATOM     32  C   UNL     1       6.867   5.022  14.397  0.00  0.00    +0.000 A 
ATOM     33  C   UNL     1       7.816   5.563  13.521  0.00  0.00    +0.000 A 
ATOM     34  C   UNL     1       7.884   5.061  12.214  0.00  0.00    +0.000 A 
ATOM     35  C   UNL     1       7.037   4.031  11.799  0.00  0.00    +0.000 A 
ATOM     36  C   UNL     1       6.101   3.460  12.670  0.00  0.00    +0.000 A 
ATOM     37  C   UNL     1       6.048   3.991  13.960  0.00  0.00    +0.000 A 
ATOM     38  N   UNL     1       5.261   3.710  15.046  0.00  0.00    +0.000 N 
ATOM     39  H   UNL     1       4.544   3.000  15.073  0.00  0.00    +0.000 HD
ENDBRANCH  28  30
ENDBRANCH   4  24
TORSDOF 7
ENDMDL
MODEL 3
REMARK VINA RESULT:      -8.4      1.860      2.282
REMARK  Name = 
REMARK  8 active torsions:
REMARK  status: ('A' for Active; 'I' for Inactive)
REMARK    1  A    between atoms: C_1  and  C_2
REMARK    2  A    between atoms: C_2  and  O_3
REMARK    3  A    between atoms: O_3  and  C_4
REMARK    4  A    between atoms: C_4  and  C_6
REMARK    5  A    between atoms: C_9  and  N_10
REMARK    6  A    between atoms: N_13  and  C_14
REMARK    7  A    between atoms: C_17  and  C_18
REMARK    8  A    between atoms: C_22  and  C_23
REMARK                            x       y       z     vdW  Elec       q    Type
REMARK                         _______ _______ _______ _____ _____    ______ ____
ROOT
ATOM      1  C   UNL     1       0.941   9.715  19.270  0.00  0.00    +0.000 A 
ATOM      2  C   UNL     1       1.171   8.837  20.325  0.00  0.00    +0.000 A 
ATOM      3  C   UNL     1       1.911   7.669  20.120  0.00  0.00    +0.000 A 
ATOM      4  C   UNL     1       2.477   7.359  18.869  0.00  0.00    +0.000 A 
ATOM      5  C   UNL     1       2.215   8.257  17.816  0.00  0.00    +0.000 A 
ATOM      6  C   UNL     1       1.429   9.404  18.005  0.00  0.00    +0.000 A 
ENDROOT
BRANCH   1  10
ATOM      7  N   UNL     1      -0.906  12.501  20.668  0.00  0.00    +0.000 N 
ATOM      8  C   UNL     1      -0.231  11.293  20.706  0.00  0.00    +0.000 C 
ATOM      9  O   UNL     1      -0.044  10.630  21.722  0.00  0.00    +0.000 OA
ATOM     10  N   UNL     1       0.242  10.929  19.451  0.00  0.00    +0.000 N 
ATOM     11  H   UNL     1      -1.380  12.708  19.802  0.00  0.00    +0.000 HD
ATOM     12  H   UNL     1       0.559  11.702  18.882  0.00  0.00    +0.000 HD
BRANCH   7  16
ATOM     13  C   UNL     1      -2.099  14.637  24.127  0.00  0.00    +0.000 A 
ATOM     14  C   UNL     1      -0.926  14.991  23.458  0.00  0.00    +0.000 A 
ATOM     15  C   UNL     1      -0.530  14.297  22.313  0.00  0.00    +0.000 A 
ATOM     16  C   UNL     1      -1.290  13.233  21.817  0.00  0.00    +0.000 A 
ATOM     17  C   UNL     1      -2.481  12.894  22.468  0.00  0.00    +0.000 A 
ATOM     18  C   UNL     1      -2.879  13.585  23.624  0.00  0.00    +0.000 A 
BRANCH  13  19
ATOM     19  C   UNL     1      -2.423  15.373  25.379  0.00  0.00    +0.000 C 
ATOM     20  O   UNL     1      -1.654  15.463  26.324  0.00  0.00    +0.000 OA
BRANCH  19  21
ATOM     21  O   UNL     1      -3.698  15.830  25.345  0.00  0.00    +0.000 OA
BRANCH  21  23
ATOM     22  C   UNL     1      -4.431  18.101  25.467  0.00  0.00    +0.000 C 
ATOM     23  C   UNL     1      -3.904  17.011  24.555  0.00  0.00    +0.000 C 
ENDBRANCH  21  23
ENDBRANCH  19  21
ENDBRANCH  13  19
ENDBRANCH   7  16
ENDBRANCH   1  10
BRANCH   4  24
ATOM     24  C   UNL     1       3.300   6.133  18.684  0.00  0.00    +0.000 A 
ATOM     25  C   UNL     1       3.528   5.225  19.730  0.00  0.00    +0.000 A 
ATOM     26  C   UNL     1       4.346   4.104  19.557  0.00  0.00    +0.000 A 
ATOM     27  C   UNL     1       4.983   3.889  18.338  0.00  0.00    +0.000 A 
ATOM     28  C   UNL     1       4.801   4.771  17.270  0.00  0.00    +0.000 A 
ATOM     29  C   UNL     1       3.928   5.857  17.448  0.00  0.00    +0.000 A 
BRANCH  28  30
ATOM     30  C   UNL     1       5.590   4.597  16.043  0.00  0.00    +0.000 A 
ATOM     31  N   UNL     1       6.566   5.392  15.637  0.00  0.00    +0.000 NA
ATOM     32  C   UNL     1       6.866   5.010  14.354  0.00  0.00    +0.000 A 
ATOM     33  C   UNL     1       7.762   5.573  13.437  0.00  0.00    +0.000 A 
ATOM     34  C   UNL     1       7.832   5.027  12.148  0.00  0.00    +0.000 A 
ATOM     35  C   UNL     1       7.038   3.935  11.789  0.00  0.00    +0.000 A 
ATOM     36  C   UNL     1       6.157   3.343  12.702  0.00  0.00    +0.000 A 
ATOM     37  C   UNL     1       6.100   3.918  13.973  0.00  0.00    +0.000 A 
ATOM     38  N   UNL     1       5.354   3.632  15.087  0.00  0.00    +0.000 N 
ATOM     39  H   UNL     1       4.681   2.883  15.156  0.00  0.00    +0.000 HD
ENDBRANCH  28  30
ENDBRANCH   4  24
TORSDOF 7
ENDMDL
MODEL 4
REMARK VINA RESULT:      -8.3      2.465      3.053
REMARK  Name = 
REMARK  8 active torsions:
REMARK  status: ('A' for Active; 'I' for Inactive)
REMARK    1  A    between atoms: C_1  and  C_2
REMARK    2  A    between atoms: C_2  and  O_3
REMARK    3  A    between atoms: O_3  and  C_4
REMARK    4  A    between atoms: C_4  and  C_6
REMARK    5  A    between atoms: C_9  and  N_10
REMARK    6  A    between atoms: N_13  and  C_14
REMARK    7  A    between atoms: C_17  and  C_18
REMARK    8  A    between atoms: C_22  and  C_23
REMARK                            x       y       z     vdW  Elec       q    Type
REMARK                         _______ _______ _______ _____ _____    ______ ____
ROOT
ATOM      1  C   UNL     1       1.011   9.482  19.405  0.00  0.00    +0.000 A 
ATOM      2  C   UNL     1       1.720   9.323  18.218  0.00  0.00    +0.000 A 
ATOM      3  C   UNL     1       2.536   8.204  18.031  0.00  0.00    +0.000 A 
ATOM      4  C   UNL     1       2.641   7.191  19.002  0.00  0.00    +0.000 A 
ATOM      5  C   UNL     1       1.926   7.386  20.199  0.00  0.00    +0.000 A 
ATOM      6  C   UNL     1       1.146   8.533  20.413  0.00  0.00    +0.000 A 
ENDROOT
BRANCH   1  10
ATOM      7  N   UNL     1      -0.913  12.182  20.865  0.00  0.00    +0.000 N 
ATOM      8  C   UNL     1       0.004  11.145  20.869  0.00  0.00    +0.000 C 
ATOM      9  O   UNL     1       0.646  10.786  21.851  0.00  0.00    +0.000 OA
ATOM     10  N   UNL     1       0.138  10.573  19.609  0.00  0.00    +0.000 N 
ATOM     11  H   UNL     1      -1.667  12.095  20.200  0.00  0.00    +0.000 HD
ATOM     12  H   UNL     1       0.072  11.228  18.842  0.00  0.00    +0.000 HD
BRANCH   7  16
ATOM     13  C   UNL     1      -1.464  14.868  24.095  0.00  0.00    +0.000 A 
ATOM     14  C   UNL     1      -0.412  15.061  23.199  0.00  0.00    +0.000 A 
ATOM     15  C   UNL     1      -0.228  14.185  22.127  0.00  0.00    +0.000 A 
ATOM     16  C   UNL     1      -1.084  13.095  21.933  0.00  0.00    +0.000 A 
ATOM     17  C   UNL     1      -2.157  12.915  22.813  0.00  0.00    +0.000 A 
ATOM     18  C   UNL     1      -2.340  13.791  23.896  0.00  0.00    +0.000 A 
BRANCH  13  19
ATOM     19  C   UNL     1      -1.558  15.798  25.252  0.00  0.00    +0.000 C 
ATOM     20  O   UNL     1      -2.518  16.526  25.455  0.00  0.00    +0.000 OA
BRANCH  19  21
ATOM     21  O   UNL     1      -0.406  15.785  25.967  0.00  0.00    +0.000 OA
BRANCH  21  23
ATOM     22  C   UNL     1       0.146  17.128  27.864  0.00  0.00    +0.000 C 
ATOM     23  C   UNL     1       0.091  17.076  26.350  0.00  0.00    +0.000 C 
ENDBRANCH  21  23
ENDBRANCH  19  21
ENDBRANCH  13  19
ENDBRANCH   7  16
ENDBRANCH   1  10
BRANCH   4  24
ATOM     24  C   UNL     1       3.481   5.985  18.763  0.00  0.00    +0.000 A 
ATOM     25  C   UNL     1       3.770   5.066  19.785  0.00  0.00    +0.000 A 
ATOM     26  C   UNL     1       4.604   3.967  19.561  0.00  0.00    +0.000 A 
ATOM     27  C   UNL     1       5.195   3.783  18.314  0.00  0.00    +0.000 A 
ATOM     28  C   UNL     1       4.951   4.677  17.269  0.00  0.00    +0.000 A 
ATOM     29  C   UNL     1       4.063   5.741  17.499  0.00  0.00    +0.000 A 
BRANCH  28  30
ATOM     30  C   UNL     1       5.693   4.539  16.008  0.00  0.00    +0.000 A 
ATOM     31  N   UNL     1       6.659   5.341  15.591  0.00  0.00    +0.000 NA
ATOM     32  C   UNL     1       6.908   5.000  14.286  0.00  0.00    +0.000 A 
ATOM     33  C   UNL     1       7.774   5.587  13.355  0.00  0.00    +0.000 A 
ATOM     34  C   UNL     1       7.792   5.083  12.047  0.00  0.00    +0.000 A 
ATOM     35  C   UNL     1       6.977   4.008  11.684  0.00  0.00    +0.000 A 
ATOM     36  C   UNL     1       6.126   3.392  12.609  0.00  0.00    +0.000 A 
ATOM     37  C   UNL     1       6.121   3.925  13.900  0.00  0.00    +0.000 A 
ATOM     38  N   UNL     1       5.415   3.607  15.030  0.00  0.00    +0.000 N 
ATOM     39  H   UNL     1       4.739   2.861  15.100  0.00  0.00    +0.000 HD
ENDBRANCH  28  30
ENDBRANCH   4  24
TORSDOF 7
ENDMDL
MODEL 5
REMARK VINA RESULT:      -8.2      3.086      3.819
REMARK  Name = 
REMARK  8 active torsions:
REMARK  status: ('A' for Active; 'I' for Inactive)
REMARK    1  A    between atoms: C_1  and  C_2
REMARK    2  A    between atoms: C_2  and  O_3
REMARK    3  A    between atoms: O_3  and  C_4
REMARK    4  A    between atoms: C_4  and  C_6
REMARK    5  A    between atoms: C_9  and  N_10
REMARK    6  A    between atoms: N_13  and  C_14
REMARK    7  A    between atoms: C_17  and  C_18
REMARK    8  A    between atoms: C_22  and  C_23
REMARK                            x       y       z     vdW  Elec       q    Type
REMARK                         _______ _______ _______ _____ _____    ______ ____
ROOT
ATOM      1  C   UNL     1       0.963   9.812  19.315  0.00  0.00    +0.000 A 
ATOM      2  C   UNL     1       1.061   8.861  20.325  0.00  0.00    +0.000 A 
ATOM      3  C   UNL     1       1.793   7.688  20.119  0.00  0.00    +0.000 A 
ATOM      4  C   UNL     1       2.481   7.445  18.915  0.00  0.00    +0.000 A 
ATOM      5  C   UNL     1       2.351   8.417  17.905  0.00  0.00    +0.000 A 
ATOM      6  C   UNL     1       1.575   9.571  18.089  0.00  0.00    +0.000 A 
ENDROOT
BRANCH   1  10
ATOM      7  N   UNL     1      -0.306  12.928  20.662  0.00  0.00    +0.000 N 
ATOM      8  C   UNL     1       0.473  11.783  20.658  0.00  0.00    +0.000 C 
ATOM      9  O   UNL     1       1.264  11.475  21.544  0.00  0.00    +0.000 OA
ATOM     10  N   UNL     1       0.276  11.032  19.505  0.00  0.00    +0.000 N 
ATOM     11  H   UNL     1      -1.187  12.856  20.176  0.00  0.00    +0.000 HD
ATOM     12  H   UNL     1       0.122  11.579  18.669  0.00  0.00    +0.000 HD
BRANCH   7  16
ATOM     13  C   UNL     1       0.135  16.074  23.465  0.00  0.00    +0.000 A 
ATOM     14  C   UNL     1       0.899  16.068  22.296  0.00  0.00    +0.000 A 
ATOM     15  C   UNL     1       0.753  15.039  21.363  0.00  0.00    +0.000 A 
ATOM     16  C   UNL     1      -0.149  13.992  21.581  0.00  0.00    +0.000 A 
ATOM     17  C   UNL     1      -0.936  14.010  22.738  0.00  0.00    +0.000 A 
ATOM     18  C   UNL     1      -0.787  15.040  23.681  0.00  0.00    +0.000 A 
BRANCH  13  19
ATOM     19  C   UNL     1       0.393  17.163  24.445  0.00  0.00    +0.000 C 
ATOM     20  O   UNL     1      -0.004  18.309  24.296  0.00  0.00    +0.000 OA
BRANCH  19  21
ATOM     21  O   UNL     1       1.194  16.723  25.445  0.00  0.00    +0.000 OA
BRANCH  21  23
ATOM     22  C   UNL     1      -0.516  16.635  27.112  0.00  0.00    +0.000 C 
ATOM     23  C   UNL     1       0.849  17.193  26.757  0.00  0.00    +0.000 C 
ENDBRANCH  21  23
ENDBRANCH  19  21
ENDBRANCH  13  19
ENDBRANCH   7  16
ENDBRANCH   1  10
BRANCH   4  24
ATOM     24  C   UNL     1       3.291   6.210  18.733  0.00  0.00    +0.000 A 
ATOM     25  C   UNL     1       3.511   5.302  19.782  0.00  0.00    +0.000 A 
ATOM     26  C   UNL     1       4.318   4.173  19.611  0.00  0.00    +0.000 A 
ATOM     27  C   UNL     1       4.952   3.948  18.392  0.00  0.00    +0.000 A 
ATOM     28  C   UNL     1       4.778   4.829  17.322  0.00  0.00    +0.000 A 
ATOM     29  C   UNL     1       3.916   5.924  17.498  0.00  0.00    +0.000 A 
BRANCH  28  30
ATOM     30  C   UNL     1       5.565   4.644  16.095  0.00  0.00    +0.000 A 
ATOM     31  N   UNL     1       6.566   5.413  15.699  0.00  0.00    +0.000 NA
ATOM     32  C   UNL     1       6.857   5.036  14.413  0.00  0.00    +0.000 A 
ATOM     33  C   UNL     1       7.773   5.580  13.504  0.00  0.00    +0.000 A 
ATOM     34  C   UNL     1       7.829   5.046  12.210  0.00  0.00    +0.000 A 
ATOM     35  C   UNL     1       7.003   3.983  11.838  0.00  0.00    +0.000 A 
ATOM     36  C   UNL     1       6.101   3.409  12.743  0.00  0.00    +0.000 A 
ATOM     37  C   UNL     1       6.059   3.972  14.020  0.00  0.00    +0.000 A 
ATOM     38  N   UNL     1       5.302   3.697  15.128  0.00  0.00    +0.000 N 
ATOM     39  H   UNL     1       4.606   2.969  15.188  0.00  0.00    +0.000 HD
ENDBRANCH  28  30
ENDBRANCH   4  24
TORSDOF 7
ENDMDL
MODEL 6
REMARK VINA RESULT:      -7.8      1.028      1.497
REMARK  Name = 
REMARK  8 active torsions:
REMARK  status: ('A' for Active; 'I' for Inactive)
REMARK    1  A    between atoms: C_1  and  C_2
REMARK    2  A    between atoms: C_2  and  O_3
REMARK    3  A    between atoms: O_3  and  C_4
REMARK    4  A    between atoms: C_4  and  C_6
REMARK    5  A    between atoms: C_9  and  N_10
REMARK    6  A    between atoms: N_13  and  C_14
REMARK    7  A    between atoms: C_17  and  C_18
REMARK    8  A    between atoms: C_22  and  C_23
REMARK                            x       y       z     vdW  Elec       q    Type
REMARK                         _______ _______ _______ _____ _____    ______ ____
ROOT
ATOM      1  C   UNL     1       1.000  10.140  19.153  0.00  0.00    +0.000 A 
ATOM      2  C   UNL     1       1.072   9.226  20.199  0.00  0.00    +0.000 A 
ATOM      3  C   UNL     1       1.731   8.006  20.023  0.00  0.00    +0.000 A 
ATOM      4  C   UNL     1       2.371   7.675  18.814  0.00  0.00    +0.000 A 
ATOM      5  C   UNL     1       2.268   8.612  17.767  0.00  0.00    +0.000 A 
ATOM      6  C   UNL     1       1.563   9.815  17.922  0.00  0.00    +0.000 A 
ENDROOT
BRANCH   1  10
ATOM      7  N   UNL     1      -1.087  12.893  20.246  0.00  0.00    +0.000 N 
ATOM      8  C   UNL     1      -0.599  11.598  20.268  0.00  0.00    +0.000 C 
ATOM      9  O   UNL     1      -0.965  10.728  21.053  0.00  0.00    +0.000 OA
ATOM     10  N   UNL     1       0.387  11.403  19.308  0.00  0.00    +0.000 N 
ATOM     11  H   UNL     1      -1.076  13.346  19.345  0.00  0.00    +0.000 HD
ATOM     12  H   UNL     1       0.990  12.200  19.159  0.00  0.00    +0.000 HD
BRANCH   7  16
ATOM     13  C   UNL     1      -3.625  14.563  23.199  0.00  0.00    +0.000 A 
ATOM     14  C   UNL     1      -2.588  13.706  23.573  0.00  0.00    +0.000 A 
ATOM     15  C   UNL     1      -1.742  13.158  22.606  0.00  0.00    +0.000 A 
ATOM     16  C   UNL     1      -1.918  13.446  21.248  0.00  0.00    +0.000 A 
ATOM     17  C   UNL     1      -2.938  14.327  20.873  0.00  0.00    +0.000 A 
ATOM     18  C   UNL     1      -3.795  14.874  21.842  0.00  0.00    +0.000 A 
BRANCH  13  19
ATOM     19  C   UNL     1      -4.528  15.054  24.274  0.00  0.00    +0.000 C 
ATOM     20  O   UNL     1      -4.266  16.008  24.990  0.00  0.00    +0.000 OA
BRANCH  19  21
ATOM     21  O   UNL     1      -5.607  14.242  24.395  0.00  0.00    +0.000 OA
BRANCH  21  23
ATOM     22  C   UNL     1      -7.910  13.718  24.031  0.00  0.00    +0.000 C 
ATOM     23  C   UNL     1      -6.837  14.779  23.883  0.00  0.00    +0.000 C 
ENDBRANCH  21  23
ENDBRANCH  19  21
ENDBRANCH  13  19
ENDBRANCH   7  16
ENDBRANCH   1  10
BRANCH   4  24
ATOM     24  C   UNL     1       3.106   6.390  18.663  0.00  0.00    +0.000 A 
ATOM     25  C   UNL     1       3.208   5.463  19.714  0.00  0.00    +0.000 A 
ATOM     26  C   UNL     1       3.947   4.284  19.575  0.00  0.00    +0.000 A 
ATOM     27  C   UNL     1       4.629   4.024  18.390  0.00  0.00    +0.000 A 
ATOM     28  C   UNL     1       4.572   4.921  17.321  0.00  0.00    +0.000 A 
ATOM     29  C   UNL     1       3.776   6.070  17.461  0.00  0.00    +0.000 A 
BRANCH  28  30
ATOM     30  C   UNL     1       5.409   4.691  16.136  0.00  0.00    +0.000 A 
ATOM     31  N   UNL     1       6.444   5.430  15.769  0.00  0.00    +0.000 NA
ATOM     32  C   UNL     1       6.785   5.016  14.507  0.00  0.00    +0.000 A 
ATOM     33  C   UNL     1       7.752   5.521  13.629  0.00  0.00    +0.000 A 
ATOM     34  C   UNL     1       7.856   4.955  12.351  0.00  0.00    +0.000 A 
ATOM     35  C   UNL     1       7.025   3.901  11.965  0.00  0.00    +0.000 A 
ATOM     36  C   UNL     1       6.071   3.367  12.840  0.00  0.00    +0.000 A 
ATOM     37  C   UNL     1       5.983   3.960  14.101  0.00  0.00    +0.000 A 
ATOM     38  N   UNL     1       5.170   3.727  15.180  0.00  0.00    +0.000 N 
ATOM     39  H   UNL     1       4.457   3.015  15.224  0.00  0.00    +0.000 HD
ENDBRANCH  28  30
ENDBRANCH   4  24
TORSDOF 7
ENDMDL
MODEL 7
REMARK VINA RESULT:      -7.8      1.977      2.467
REMARK  Name = 
REMARK  8 active torsions:
REMARK  status: ('A' for Active; 'I' for Inactive)
REMARK    1  A    between atoms: C_1  and  C_2
REMARK    2  A    between atoms: C_2  and  O_3
REMARK    3  A    between atoms: O_3  and  C_4
REMARK    4  A    between atoms: C_4  and  C_6
REMARK    5  A    between atoms: C_9  and  N_10
REMARK    6  A    between atoms: N_13  and  C_14
REMARK    7  A    between atoms: C_17  and  C_18
REMARK    8  A    between atoms: C_22  and  C_23
REMARK                            x       y       z     vdW  Elec       q    Type
REMARK                         _______ _______ _______ _____ _____    ______ ____
ROOT
ATOM      1  C   UNL     1       0.729   9.537  19.454  0.00  0.00    +0.000 A 
ATOM      2  C   UNL     1       1.481   9.548  18.284  0.00  0.00    +0.000 A 
ATOM      3  C   UNL     1       2.400   8.527  18.028  0.00  0.00    +0.000 A 
ATOM      4  C   UNL     1       2.570   7.443  18.910  0.00  0.00    +0.000 A 
ATOM      5  C   UNL     1       1.808   7.466  20.095  0.00  0.00    +0.000 A 
ATOM      6  C   UNL     1       0.922   8.516  20.380  0.00  0.00    +0.000 A 
ENDROOT
BRANCH   1  10
ATOM      7  N   UNL     1      -1.377  12.015  21.052  0.00  0.00    +0.000 N 
ATOM      8  C   UNL     1      -0.351  11.088  20.988  0.00  0.00    +0.000 C 
ATOM      9  O   UNL     1       0.398  10.811  21.921  0.00  0.00    +0.000 OA
ATOM     10  N   UNL     1      -0.245  10.524  19.722  0.00  0.00    +0.000 N 
ATOM     11  H   UNL     1      -2.162  11.837  20.444  0.00  0.00    +0.000 HD
ATOM     12  H   UNL     1      -0.441  11.161  18.962  0.00  0.00    +0.000 HD
BRANCH   7  16
ATOM     13  C   UNL     1      -1.940  14.752  24.236  0.00  0.00    +0.000 A 
ATOM     14  C   UNL     1      -2.537  13.491  24.286  0.00  0.00    +0.000 A 
ATOM     15  C   UNL     1      -2.350  12.580  23.244  0.00  0.00    +0.000 A 
ATOM     16  C   UNL     1      -1.572  12.911  22.129  0.00  0.00    +0.000 A 
ATOM     17  C   UNL     1      -0.949  14.163  22.090  0.00  0.00    +0.000 A 
ATOM     18  C   UNL     1      -1.141  15.084  23.133  0.00  0.00    +0.000 A 
BRANCH  13  19
ATOM     19  C   UNL     1      -2.240  15.695  25.347  0.00  0.00    +0.000 C 
ATOM     20  O   UNL     1      -1.461  15.930  26.259  0.00  0.00    +0.000 OA
BRANCH  19  21
ATOM     21  O   UNL     1      -3.508  16.162  25.245  0.00  0.00    +0.000 OA
BRANCH  21  23
ATOM     22  C   UNL     1      -3.886  17.894  23.643  0.00  0.00    +0.000 C 
ATOM     23  C   UNL     1      -3.626  17.586  25.105  0.00  0.00    +0.000 C 
ENDBRANCH  21  23
ENDBRANCH  19  21
ENDBRANCH  13  19
ENDBRANCH   7  16
ENDBRANCH   1  10
BRANCH   4  24
ATOM     24  C   UNL     1       3.522   6.343  18.597  0.00  0.00    +0.000 A 
ATOM     25  C   UNL     1       4.141   5.585  19.605  0.00  0.00    +0.000 A 
ATOM     26  C   UNL     1       5.073   4.589  19.298  0.00  0.00    +0.000 A 
ATOM     27  C   UNL     1       5.433   4.355  17.974  0.00  0.00    +0.000 A 
ATOM     28  C   UNL     1       4.857   5.092  16.936  0.00  0.00    +0.000 A 
ATOM     29  C   UNL     1       3.879   6.045  17.262  0.00  0.00    +0.000 A 
BRANCH  28  30
ATOM     30  C   UNL     1       5.353   4.920  15.564  0.00  0.00    +0.000 A 
ATOM     31  N   UNL     1       4.912   4.027  14.693  0.00  0.00    +0.000 NA
ATOM     32  C   UNL     1       5.790   4.050  13.639  0.00  0.00    +0.000 A 
ATOM     33  C   UNL     1       5.836   3.247  12.492  0.00  0.00    +0.000 A 
ATOM     34  C   UNL     1       6.891   3.430  11.588  0.00  0.00    +0.000 A 
ATOM     35  C   UNL     1       7.866   4.404  11.816  0.00  0.00    +0.000 A 
ATOM     36  C   UNL     1       7.820   5.233  12.944  0.00  0.00    +0.000 A 
ATOM     37  C   UNL     1       6.765   5.017  13.832  0.00  0.00    +0.000 A 
ATOM     38  N   UNL     1       6.422   5.601  15.023  0.00  0.00    +0.000 N 
ATOM     39  H   UNL     1       6.928   6.354  15.465  0.00  0.00    +0.000 HD
ENDBRANCH  28  30
ENDBRANCH   4  24
TORSDOF 7
ENDMDL
MODEL 8
REMARK VINA RESULT:      -7.7      1.172      2.098
REMARK  Name = 
REMARK  8 active torsions:
REMARK  status: ('A' for Active; 'I' for Inactive)
REMARK    1  A    between atoms: C_1  and  C_2
REMARK    2  A    between atoms: C_2  and  O_3
REMARK    3  A    between atoms: O_3  and  C_4
REMARK    4  A    between atoms: C_4  and  C_6
REMARK    5  A    between atoms: C_9  and  N_10
REMARK    6  A    between atoms: N_13  and  C_14
REMARK    7  A    between atoms: C_17  and  C_18
REMARK    8  A    between atoms: C_22  and  C_23
REMARK                            x       y       z     vdW  Elec       q    Type
REMARK                         _______ _______ _______ _____ _____    ______ ____
ROOT
ATOM      1  C   UNL     1       1.222   8.949  20.600  0.00  0.00    +0.000 A 
ATOM      2  C   UNL     1       1.352   7.772  21.330  0.00  0.00    +0.000 A 
ATOM      3  C   UNL     1       1.915   6.637  20.741  0.00  0.00    +0.000 A 
ATOM      4  C   UNL     1       2.401   6.650  19.420  0.00  0.00    +0.000 A 
ATOM      5  C   UNL     1       2.242   7.850  18.699  0.00  0.00    +0.000 A 
ATOM      6  C   UNL     1       1.631   8.976  19.270  0.00  0.00    +0.000 A 
ENDROOT
BRANCH   1  10
ATOM      7  N   UNL     1      -0.889  11.746  21.522  0.00  0.00    +0.000 N 
ATOM      8  C   UNL     1      -0.581  10.561  20.875  0.00  0.00    +0.000 C 
ATOM      9  O   UNL     1      -1.351   9.945  20.145  0.00  0.00    +0.000 OA
ATOM     10  N   UNL     1       0.705  10.130  21.177  0.00  0.00    +0.000 N 
ATOM     11  H   UNL     1      -0.111  12.364  21.693  0.00  0.00    +0.000 HD
ATOM     12  H   UNL     1       0.996  10.314  22.128  0.00  0.00    +0.000 HD
BRANCH   7  16
ATOM     13  C   UNL     1      -4.780  13.398  21.806  0.00  0.00    +0.000 A 
ATOM     14  C   UNL     1      -4.104  13.411  20.585  0.00  0.00    +0.000 A 
ATOM     15  C   UNL     1      -2.824  12.862  20.482  0.00  0.00    +0.000 A 
ATOM     16  C   UNL     1      -2.191  12.296  21.594  0.00  0.00    +0.000 A 
ATOM     17  C   UNL     1      -2.878  12.255  22.812  0.00  0.00    +0.000 A 
ATOM     18  C   UNL     1      -4.162  12.813  22.921  0.00  0.00    +0.000 A 
BRANCH  13  19
ATOM     19  C   UNL     1      -6.110  14.062  21.859  0.00  0.00    +0.000 C 
ATOM     20  O   UNL     1      -6.352  15.029  22.567  0.00  0.00    +0.000 OA
BRANCH  19  21
ATOM     21  O   UNL     1      -7.008  13.389  21.100  0.00  0.00    +0.000 OA
BRANCH  21  23
ATOM     22  C   UNL     1      -7.440  11.162  20.348  0.00  0.00    +0.000 C 
ATOM     23  C   UNL     1      -7.329  12.067  21.560  0.00  0.00    +0.000 C 
ENDBRANCH  21  23
ENDBRANCH  19  21
ENDBRANCH  13  19
ENDBRANCH   7  16
ENDBRANCH   1  10
BRANCH   4  24
ATOM     24  C   UNL     1       3.038   5.443  18.826  0.00  0.00    +0.000 A 
ATOM     25  C   UNL     1       3.189   4.250  19.550  0.00  0.00    +0.000 A 
ATOM     26  C   UNL     1       3.838   3.140  18.998  0.00  0.00    +0.000 A 
ATOM     27  C   UNL     1       4.380   3.216  17.718  0.00  0.00    +0.000 A 
ATOM     28  C   UNL     1       4.270   4.385  16.963  0.00  0.00    +0.000 A 
ATOM     29  C   UNL     1       3.563   5.467  17.514  0.00  0.00    +0.000 A 
BRANCH  28  30
ATOM     30  C   UNL     1       4.968   4.484  15.674  0.00  0.00    +0.000 A 
ATOM     31  N   UNL     1       4.724   3.740  14.608  0.00  0.00    +0.000 NA
ATOM     32  C   UNL     1       5.739   3.993  13.720  0.00  0.00    +0.000 A 
ATOM     33  C   UNL     1       6.008   3.410  12.476  0.00  0.00    +0.000 A 
ATOM     34  C   UNL     1       7.165   3.802  11.789  0.00  0.00    +0.000 A 
ATOM     35  C   UNL     1       8.023   4.766  12.325  0.00  0.00    +0.000 A 
ATOM     36  C   UNL     1       7.755   5.378  13.555  0.00  0.00    +0.000 A 
ATOM     37  C   UNL     1       6.603   4.956  14.221  0.00  0.00    +0.000 A 
ATOM     38  N   UNL     1       6.050   5.302  15.426  0.00  0.00    +0.000 N 
ATOM     39  H   UNL     1       6.430   5.988  16.062  0.00  0.00    +0.000 HD
ENDBRANCH  28  30
ENDBRANCH   4  24
TORSDOF 7
ENDMDL
MODEL 9
REMARK VINA RESULT:      -7.7      4.207     13.865
REMARK  Name = 
REMARK  8 active torsions:
REMARK  status: ('A' for Active; 'I' for Inactive)
REMARK    1  A    between atoms: C_1  and  C_2
REMARK    2  A    between atoms: C_2  and  O_3
REMARK    3  A    between atoms: O_3  and  C_4
REMARK    4  A    between atoms: C_4  and  C_6
REMARK    5  A    between atoms: C_9  and  N_10
REMARK    6  A    between atoms: N_13  and  C_14
REMARK    7  A    between atoms: C_17  and  C_18
REMARK    8  A    between atoms: C_22  and  C_23
REMARK                            x       y       z     vdW  Elec       q    Type
REMARK                         _______ _______ _______ _____ _____    ______ ____
ROOT
ATOM      1  C   UNL     1       1.337   8.537  20.550  0.00  0.00    +0.000 A 
ATOM      2  C   UNL     1       0.290   8.419  21.459  0.00  0.00    +0.000 A 
ATOM      3  C   UNL     1      -0.585   9.488  21.667  0.00  0.00    +0.000 A 
ATOM      4  C   UNL     1      -0.469  10.693  20.948  0.00  0.00    +0.000 A 
ATOM      5  C   UNL     1       0.609  10.791  20.046  0.00  0.00    +0.000 A 
ATOM      6  C   UNL     1       1.521   9.738  19.873  0.00  0.00    +0.000 A 
ENDROOT
BRANCH   1  10
ATOM      7  N   UNL     1       3.498   6.126  18.923  0.00  0.00    +0.000 N 
ATOM      8  C   UNL     1       2.676   7.238  18.986  0.00  0.00    +0.000 C 
ATOM      9  O   UNL     1       2.407   7.962  18.032  0.00  0.00    +0.000 OA
ATOM     10  N   UNL     1       2.210   7.461  20.276  0.00  0.00    +0.000 N 
ATOM     11  H   UNL     1       3.290   5.394  19.584  0.00  0.00    +0.000 HD
ATOM     12  H   UNL     1       2.875   7.244  21.005  0.00  0.00    +0.000 HD
BRANCH   7  16
ATOM     13  C   UNL     1       5.950   5.164  15.605  0.00  0.00    +0.000 A 
ATOM     14  C   UNL     1       4.782   4.436  15.844  0.00  0.00    +0.000 A 
ATOM     15  C   UNL     1       3.965   4.753  16.931  0.00  0.00    +0.000 A 
ATOM     16  C   UNL     1       4.299   5.793  17.805  0.00  0.00    +0.000 A 
ATOM     17  C   UNL     1       5.453   6.542  17.551  0.00  0.00    +0.000 A 
ATOM     18  C   UNL     1       6.281   6.222  16.463  0.00  0.00    +0.000 A 
BRANCH  13  19
ATOM     19  C   UNL     1       6.808   4.727  14.470  0.00  0.00    +0.000 C 
ATOM     20  O   UNL     1       7.813   5.324  14.118  0.00  0.00    +0.000 OA
BRANCH  19  21
ATOM     21  O   UNL     1       6.261   3.654  13.847  0.00  0.00    +0.000 OA
BRANCH  21  23
ATOM     22  C   UNL     1       5.522   2.526  11.875  0.00  0.00    +0.000 C 
ATOM     23  C   UNL     1       6.381   3.652  12.416  0.00  0.00    +0.000 C 
ENDBRANCH  21  23
ENDBRANCH  19  21
ENDBRANCH  13  19
ENDBRANCH   7  16
ENDBRANCH   1  10
BRANCH   4  24
ATOM     24  C   UNL     1      -1.439  11.803  21.152  0.00  0.00    +0.000 A 
ATOM     25  C   UNL     1      -2.488  12.049  20.251  0.00  0.00    +0.000 A 
ATOM     26  C   UNL     1      -3.360  13.129  20.426  0.00  0.00    +0.000 A 
ATOM     27  C   UNL     1      -3.178  14.006  21.491  0.00  0.00    +0.000 A 
ATOM     28  C   UNL     1      -2.140  13.814  22.405  0.00  0.00    +0.000 A 
ATOM     29  C   UNL     1      -1.313  12.690  22.245  0.00  0.00    +0.000 A 
BRANCH  28  30
ATOM     30  C   UNL     1      -1.886  14.829  23.438  0.00  0.00    +0.000 A 
ATOM     31  N   UNL     1      -2.807  15.570  24.031  0.00  0.00    +0.000 NA
ATOM     32  C   UNL     1      -2.132  16.532  24.738  0.00  0.00    +0.000 A 
ATOM     33  C   UNL     1      -2.626  17.616  25.475  0.00  0.00    +0.000 A 
ATOM     34  C   UNL     1      -1.710  18.504  26.054  0.00  0.00    +0.000 A 
ATOM     35  C   UNL     1      -0.334  18.305  25.915  0.00  0.00    +0.000 A 
ATOM     36  C   UNL     1       0.176  17.211  25.205  0.00  0.00    +0.000 A 
ATOM     37  C   UNL     1      -0.761  16.352  24.629  0.00  0.00    +0.000 A 
ATOM     38  N   UNL     1      -0.635  15.225  23.860  0.00  0.00    +0.000 N 
ATOM     39  H   UNL     1       0.242  14.808  23.584  0.00  0.00    +0.000 HD
ENDBRANCH  28  30
ENDBRANCH   4  24
TORSDOF 7
ENDMDL
