MODEL 1
REMARK VINA RESULT:      -8.1      0.000      0.000
REMARK  Name = 
REMARK  9 active torsions:
REMARK  status: ('A' for Active; 'I' for Inactive)
REMARK    1  A    between atoms: C_1  and  C_2
REMARK    2  A    between atoms: C_2  and  N_3
REMARK    3  A    between atoms: N_3  and  C_4
REMARK    4  A    between atoms: N_3  and  S_18
REMARK    5  A    between atoms: C_4  and  C_5
REMARK    6  A    between atoms: C_5  and  C_6
REMARK    7  A    between atoms: C_6  and  C_7
REMARK    8  A    between atoms: C_7  and  N_8
REMARK    9  A    between atoms: S_18  and  C_21
REMARK                            x       y       z     vdW  Elec       q    Type
REMARK                         _______ _______ _______ _____ _____    ______ ____
ROOT
ATOM      1  N   UNL     1       6.195   6.485  17.829  0.00  0.00    +0.000 NA
ENDROOT
BRANCH   1   2
ATOM      2  S   UNL     1       4.933   6.120  16.666  0.00  0.00    +0.000 S 
ATOM      3  O   UNL     1       4.165   7.300  16.358  0.00  0.00    +0.000 OA
ATOM      4  O   UNL     1       5.619   5.415  15.592  0.00  0.00    +0.000 OA
BRANCH   2   5
ATOM      5  C   UNL     1       3.859   4.946  17.443  0.00  0.00    +0.000 A 
ATOM      6  C   UNL     1       3.810   3.650  16.898  0.00  0.00    +0.000 A 
ATOM      7  C   UNL     1       2.998   2.687  17.476  0.00  0.00    +0.000 A 
ATOM      8  C   UNL     1       2.259   3.013  18.605  0.00  0.00    +0.000 A 
ATOM      9  C   UNL     1       2.295   4.311  19.136  0.00  0.00    +0.000 A 
ATOM     10  C   UNL     1       1.531   4.625  20.269  0.00  0.00    +0.000 A 
ATOM     11  C   UNL     1       1.493   5.926  20.740  0.00  0.00    +0.000 A 
ATOM     12  C   UNL     1       2.217   6.869  20.047  0.00  0.00    +0.000 A 
ATOM     13  N   UNL     1       3.039   6.585  19.015  0.00  0.00    +0.000 NA
ATOM     14  C   UNL     1       3.081   5.325  18.538  0.00  0.00    +0.000 A 
ENDBRANCH   2   5
ENDBRANCH   1   2
BRANCH   1  16
ATOM     15  C   UNL     1       7.705   4.433  17.698  0.00  0.00    +0.000 C 
ATOM     16  C   UNL     1       6.702   5.239  18.509  0.00  0.00    +0.000 C 
ENDBRANCH   1  16
BRANCH   1  17
ATOM     17  C   UNL     1       7.312   7.285  17.203  0.00  0.00    +0.000 C 
BRANCH  17  18
ATOM     18  C   UNL     1       8.185   8.064  18.200  0.00  0.00    +0.000 C 
BRANCH  18  19
ATOM     19  C   UNL     1       8.263   9.575  17.942  0.00  0.00    +0.000 C 
BRANCH  19  20
ATOM     20  C   UNL     1       9.342  10.225  18.816  0.00  0.00    +0.000 C 
BRANCH  20  21
ATOM     21  N   UNL     1      10.093  11.333  18.202  0.00  0.00    +0.000 NA
ATOM     22  C   UNL     1      11.339  11.580  18.954  0.00  0.00    +0.000 C 
ATOM     23  C   UNL     1      11.125  12.189  20.349  0.00  0.00    +0.000 C 
ATOM     24  C   UNL     1      10.279  13.463  20.264  0.00  0.00    +0.000 C 
ATOM     25  C   UNL     1       9.940  14.039  21.647  0.00  0.00    +0.000 C 
ATOM     26  C   UNL     1       9.082  15.301  21.531  0.00  0.00    +0.000 C 
ATOM     27  C   UNL     1       7.832  15.058  20.692  0.00  0.00    +0.000 C 
ATOM     28  C   UNL     1       8.207  14.495  19.327  0.00  0.00    +0.000 C 
ATOM     29  C   UNL     1       8.995  13.197  19.466  0.00  0.00    +0.000 C 
ATOM     30  C   UNL     1       9.322  12.582  18.097  0.00  0.00    +0.000 C 
ENDBRANCH  20  21
ENDBRANCH  19  20
ENDBRANCH  18  19
ENDBRANCH  17  18
ENDBRANCH   1  17
TORSDOF 8
ENDMDL
MODEL 2
REMARK VINA RESULT:      -8.0      1.127      1.487
REMARK  Name = 
REMARK  9 active torsions:
REMARK  status: ('A' for Active; 'I' for Inactive)
REMARK    1  A    between atoms: C_1  and  C_2
REMARK    2  A    between atoms: C_2  and  N_3
REMARK    3  A    between atoms: N_3  and  C_4
REMARK    4  A    between atoms: N_3  and  S_18
REMARK    5  A    between atoms: C_4  and  C_5
REMARK    6  A    between atoms: C_5  and  C_6
REMARK    7  A    between atoms: C_6  and  C_7
REMARK    8  A    between atoms: C_7  and  N_8
REMARK    9  A    between atoms: S_18  and  C_21
REMARK                            x       y       z     vdW  Elec       q    Type
REMARK                         _______ _______ _______ _____ _____    ______ ____
ROOT
ATOM      1  N   UNL     1       6.381   6.493  17.994  0.00  0.00    +0.000 NA
ENDROOT
BRANCH   1   2
ATOM      2  S   UNL     1       5.300   5.901  16.745  0.00  0.00    +0.000 S 
ATOM      3  O   UNL     1       4.535   6.981  16.176  0.00  0.00    +0.000 OA
ATOM      4  O   UNL     1       6.152   5.098  15.878  0.00  0.00    +0.000 OA
BRANCH   2   5
ATOM      5  C   UNL     1       4.180   4.784  17.537  0.00  0.00    +0.000 A 
ATOM      6  C   UNL     1       4.176   3.447  17.100  0.00  0.00    +0.000 A 
ATOM      7  C   UNL     1       3.329   2.525  17.695  0.00  0.00    +0.000 A 
ATOM      8  C   UNL     1       2.510   2.935  18.739  0.00  0.00    +0.000 A 
ATOM      9  C   UNL     1       2.502   4.273  19.163  0.00  0.00    +0.000 A 
ATOM     10  C   UNL     1       1.657   4.670  20.209  0.00  0.00    +0.000 A 
ATOM     11  C   UNL     1       1.580   6.004  20.567  0.00  0.00    +0.000 A 
ATOM     12  C   UNL     1       2.347   6.895  19.851  0.00  0.00    +0.000 A 
ATOM     13  N   UNL     1       3.242   6.537  18.907  0.00  0.00    +0.000 NA
ATOM     14  C   UNL     1       3.324   5.242  18.539  0.00  0.00    +0.000 A 
ENDBRANCH   2   5
ENDBRANCH   1   2
BRANCH   1  16
ATOM     15  C   UNL     1       8.065   5.633  19.706  0.00  0.00    +0.000 C 
ATOM     16  C   UNL     1       6.755   5.404  18.967  0.00  0.00    +0.000 C 
ENDBRANCH   1  16
BRANCH   1  17
ATOM     17  C   UNL     1       7.593   7.170  17.404  0.00  0.00    +0.000 C 
BRANCH  17  18
ATOM     18  C   UNL     1       7.659   8.689  17.633  0.00  0.00    +0.000 C 
BRANCH  18  19
ATOM     19  C   UNL     1       8.739   9.145  18.625  0.00  0.00    +0.000 C 
BRANCH  19  20
ATOM     20  C   UNL     1       9.120  10.610  18.385  0.00  0.00    +0.000 C 
BRANCH  20  21
ATOM     21  N   UNL     1      10.368  11.067  19.017  0.00  0.00    +0.000 NA
ATOM     22  C   UNL     1      10.108  11.495  20.405  0.00  0.00    +0.000 C 
ATOM     23  C   UNL     1       9.297  12.797  20.523  0.00  0.00    +0.000 C 
ATOM     24  C   UNL     1       9.956  13.923  19.721  0.00  0.00    +0.000 C 
ATOM     25  C   UNL     1       9.117  15.209  19.714  0.00  0.00    +0.000 C 
ATOM     26  C   UNL     1       9.792  16.311  18.891  0.00  0.00    +0.000 C 
ATOM     27  C   UNL     1      10.125  15.838  17.481  0.00  0.00    +0.000 C 
ATOM     28  C   UNL     1      10.962  14.567  17.528  0.00  0.00    +0.000 C 
ATOM     29  C   UNL     1      10.238  13.459  18.285  0.00  0.00    +0.000 C 
ATOM     30  C   UNL     1      11.041  12.150  18.282  0.00  0.00    +0.000 C 
ENDBRANCH  20  21
ENDBRANCH  19  20
ENDBRANCH  18  19
ENDBRANCH  17  18
ENDBRANCH   1  17
TORSDOF 8
ENDMDL
MODEL 3
REMARK VINA RESULT:      -8.0      4.638      7.235
REMARK  Name = 
REMARK  9 active torsions:
REMARK  status: ('A' for Active; 'I' for Inactive)
REMARK    1  A    between atoms: C_1  and  C_2
REMARK    2  A    between atoms: C_2  and  N_3
REMARK    3  A    between atoms: N_3  and  C_4
REMARK    4  A    between atoms: N_3  and  S_18
REMARK    5  A    between atoms: C_4  and  C_5
REMARK    6  A    between atoms: C_5  and  C_6
REMARK    7  A    between atoms: C_6  and  C_7
REMARK    8  A    between atoms: C_7  and  N_8
REMARK    9  A    between atoms: S_18  and  C_21
REMARK                            x       y       z     vdW  Elec       q    Type
REMARK                         _______ _______ _______ _____ _____    ______ ____
ROOT
ATOM      1  N   UNL     1       2.565   4.031  19.176  0.00  0.00    +0.000 NA
ENDROOT
BRANCH   1   2
ATOM      2  S   UNL     1       3.970   3.069  18.755  0.00  0.00    +0.000 S 
ATOM      3  O   UNL     1       4.800   2.842  19.910  0.00  0.00    +0.000 OA
ATOM      4  O   UNL     1       3.426   1.926  18.034  0.00  0.00    +0.000 OA
BRANCH   2   5
ATOM      5  C   UNL     1       4.896   4.019  17.583  0.00  0.00    +0.000 A 
ATOM      6  C   UNL     1       4.571   3.869  16.223  0.00  0.00    +0.000 A 
ATOM      7  C   UNL     1       5.253   4.600  15.263  0.00  0.00    +0.000 A 
ATOM      8  C   UNL     1       6.238   5.492  15.665  0.00  0.00    +0.000 A 
ATOM      9  C   UNL     1       6.574   5.627  17.022  0.00  0.00    +0.000 A 
ATOM     10  C   UNL     1       7.580   6.524  17.407  0.00  0.00    +0.000 A 
ATOM     11  C   UNL     1       7.976   6.592  18.731  0.00  0.00    +0.000 A 
ATOM     12  C   UNL     1       7.353   5.747  19.620  0.00  0.00    +0.000 A 
ATOM     13  N   UNL     1       6.315   4.944  19.303  0.00  0.00    +0.000 NA
ATOM     14  C   UNL     1       5.923   4.859  18.016  0.00  0.00    +0.000 A 
ENDBRANCH   2   5
ENDBRANCH   1   2
BRANCH   1  16
ATOM     15  C   UNL     1       1.511   2.819  21.158  0.00  0.00    +0.000 C 
ATOM     16  C   UNL     1       1.433   3.173  19.681  0.00  0.00    +0.000 C 
ENDBRANCH   1  16
BRANCH   1  17
ATOM     17  C   UNL     1       2.917   5.134  20.145  0.00  0.00    +0.000 C 
BRANCH  17  18
ATOM     18  C   UNL     1       1.963   6.339  20.125  0.00  0.00    +0.000 C 
BRANCH  18  19
ATOM     19  C   UNL     1       2.423   7.509  19.244  0.00  0.00    +0.000 C 
BRANCH  19  20
ATOM     20  C   UNL     1       1.458   8.695  19.360  0.00  0.00    +0.000 C 
BRANCH  20  21
ATOM     21  N   UNL     1       1.113   9.376  18.101  0.00  0.00    +0.000 NA
ATOM     22  C   UNL     1       2.040  10.499  17.861  0.00  0.00    +0.000 C 
ATOM     23  C   UNL     1       1.860  11.684  18.824  0.00  0.00    +0.000 C 
ATOM     24  C   UNL     1       0.407  12.169  18.825  0.00  0.00    +0.000 C 
ATOM     25  C   UNL     1       0.156  13.275  19.861  0.00  0.00    +0.000 C 
ATOM     26  C   UNL     1      -1.306  13.728  19.851  0.00  0.00    +0.000 C 
ATOM     27  C   UNL     1      -2.261  12.553  20.026  0.00  0.00    +0.000 C 
ATOM     28  C   UNL     1      -1.988  11.482  18.979  0.00  0.00    +0.000 C 
ATOM     29  C   UNL     1      -0.547  10.990  19.059  0.00  0.00    +0.000 C 
ATOM     30  C   UNL     1      -0.276   9.861  18.053  0.00  0.00    +0.000 C 
ENDBRANCH  20  21
ENDBRANCH  19  20
ENDBRANCH  18  19
ENDBRANCH  17  18
ENDBRANCH   1  17
TORSDOF 8
ENDMDL
MODEL 4
REMARK VINA RESULT:      -8.0      4.755      7.974
REMARK  Name = 
REMARK  9 active torsions:
REMARK  status: ('A' for Active; 'I' for Inactive)
REMARK    1  A    between atoms: C_1  and  C_2
REMARK    2  A    between atoms: C_2  and  N_3
REMARK    3  A    between atoms: N_3  and  C_4
REMARK    4  A    between atoms: N_3  and  S_18
REMARK    5  A    between atoms: C_4  and  C_5
REMARK    6  A    between atoms: C_5  and  C_6
REMARK    7  A    between atoms: C_6  and  C_7
REMARK    8  A    between atoms: C_7  and  N_8
REMARK    9  A    between atoms: S_18  and  C_21
REMARK                            x       y       z     vdW  Elec       q    Type
REMARK                         _______ _______ _______ _____ _____    ______ ____
ROOT
ATOM      1  N   UNL     1       2.337   4.168  18.711  0.00  0.00    +0.000 NA
ENDROOT
BRANCH   1   2
ATOM      2  S   UNL     1       3.832   3.275  18.502  0.00  0.00    +0.000 S 
ATOM      3  O   UNL     1       4.519   3.124  19.759  0.00  0.00    +0.000 OA
ATOM      4  O   UNL     1       3.444   2.086  17.754  0.00  0.00    +0.000 OA
BRANCH   2   5
ATOM      5  C   UNL     1       4.850   4.245  17.426  0.00  0.00    +0.000 A 
ATOM      6  C   UNL     1       4.560   4.210  16.050  0.00  0.00    +0.000 A 
ATOM      7  C   UNL     1       5.315   4.962  15.164  0.00  0.00    +0.000 A 
ATOM      8  C   UNL     1       6.338   5.761  15.655  0.00  0.00    +0.000 A 
ATOM      9  C   UNL     1       6.638   5.781  17.026  0.00  0.00    +0.000 A 
ATOM     10  C   UNL     1       7.684   6.584  17.502  0.00  0.00    +0.000 A 
ATOM     11  C   UNL     1       8.041   6.536  18.838  0.00  0.00    +0.000 A 
ATOM     12  C   UNL     1       7.341   5.671  19.647  0.00  0.00    +0.000 A 
ATOM     13  N   UNL     1       6.267   4.959  19.246  0.00  0.00    +0.000 NA
ATOM     14  C   UNL     1       5.911   4.987  17.945  0.00  0.00    +0.000 A 
ENDBRANCH   2   5
ENDBRANCH   1   2
BRANCH   1  16
ATOM     15  C   UNL     1       0.851   2.881  20.336  0.00  0.00    +0.000 C 
ATOM     16  C   UNL     1       1.158   3.247  18.892  0.00  0.00    +0.000 C 
ENDBRANCH   1  16
BRANCH   1  17
ATOM     17  C   UNL     1       2.446   5.178  19.827  0.00  0.00    +0.000 C 
BRANCH  17  18
ATOM     18  C   UNL     1       2.415   6.647  19.374  0.00  0.00    +0.000 C 
BRANCH  18  19
ATOM     19  C   UNL     1       2.013   7.649  20.465  0.00  0.00    +0.000 C 
BRANCH  19  20
ATOM     20  C   UNL     1       0.850   8.531  19.997  0.00  0.00    +0.000 C 
BRANCH  20  21
ATOM     21  N   UNL     1       1.182   9.571  19.009  0.00  0.00    +0.000 NA
ATOM     22  C   UNL     1       1.146  10.904  19.642  0.00  0.00    +0.000 C 
ATOM     23  C   UNL     1      -0.264  11.386  20.022  0.00  0.00    +0.000 C 
ATOM     24  C   UNL     1      -1.202  11.333  18.812  0.00  0.00    +0.000 C 
ATOM     25  C   UNL     1      -2.650  11.692  19.174  0.00  0.00    +0.000 C 
ATOM     26  C   UNL     1      -3.567  11.615  17.950  0.00  0.00    +0.000 C 
ATOM     27  C   UNL     1      -3.470  10.260  17.258  0.00  0.00    +0.000 C 
ATOM     28  C   UNL     1      -2.023   9.942  16.909  0.00  0.00    +0.000 C 
ATOM     29  C   UNL     1      -1.143   9.947  18.153  0.00  0.00    +0.000 C 
ATOM     30  C   UNL     1       0.308   9.561  17.825  0.00  0.00    +0.000 C 
ENDBRANCH  20  21
ENDBRANCH  19  20
ENDBRANCH  18  19
ENDBRANCH  17  18
ENDBRANCH   1  17
TORSDOF 8
ENDMDL
MODEL 5
REMARK VINA RESULT:      -7.9      4.754      7.698
REMARK  Name = 
REMARK  9 active torsions:
REMARK  status: ('A' for Active; 'I' for Inactive)
REMARK    1  A    between atoms: C_1  and  C_2
REMARK    2  A    between atoms: C_2  and  N_3
REMARK    3  A    between atoms: N_3  and  C_4
REMARK    4  A    between atoms: N_3  and  S_18
REMARK    5  A    between atoms: C_4  and  C_5
REMARK    6  A    between atoms: C_5  and  C_6
REMARK    7  A    between atoms: C_6  and  C_7
REMARK    8  A    between atoms: C_7  and  N_8
REMARK    9  A    between atoms: S_18  and  C_21
REMARK                            x       y       z     vdW  Elec       q    Type
REMARK                         _______ _______ _______ _____ _____    ______ ____
ROOT
ATOM      1  N   UNL     1       2.850   3.982  19.455  0.00  0.00    +0.000 NA
ENDROOT
BRANCH   1   2
ATOM      2  S   UNL     1       4.186   3.037  18.823  0.00  0.00    +0.000 S 
ATOM      3  O   UNL     1       5.123   2.711  19.867  0.00  0.00    +0.000 OA
ATOM      4  O   UNL     1       3.549   1.960  18.076  0.00  0.00    +0.000 OA
BRANCH   2   5
ATOM      5  C   UNL     1       5.009   4.062  17.638  0.00  0.00    +0.000 A 
ATOM      6  C   UNL     1       4.603   3.960  16.295  0.00  0.00    +0.000 A 
ATOM      7  C   UNL     1       5.203   4.750  15.328  0.00  0.00    +0.000 A 
ATOM      8  C   UNL     1       6.187   5.654  15.706  0.00  0.00    +0.000 A 
ATOM      9  C   UNL     1       6.604   5.742  17.044  0.00  0.00    +0.000 A 
ATOM     10  C   UNL     1       7.608   6.651  17.405  0.00  0.00    +0.000 A 
ATOM     11  C   UNL     1       8.086   6.675  18.703  0.00  0.00    +0.000 A 
ATOM     12  C   UNL     1       7.543   5.776  19.592  0.00  0.00    +0.000 A 
ATOM     13  N   UNL     1       6.509   4.957  19.305  0.00  0.00    +0.000 NA
ATOM     14  C   UNL     1       6.038   4.913  18.042  0.00  0.00    +0.000 A 
ENDBRANCH   2   5
ENDBRANCH   1   2
BRANCH   1  16
ATOM     15  C   UNL     1       0.605   3.022  20.194  0.00  0.00    +0.000 C 
ATOM     16  C   UNL     1       2.080   3.224  20.506  0.00  0.00    +0.000 C 
ENDBRANCH   1  16
BRANCH   1  17
ATOM     17  C   UNL     1       3.311   5.331  19.951  0.00  0.00    +0.000 C 
BRANCH  17  18
ATOM     18  C   UNL     1       2.290   6.468  19.771  0.00  0.00    +0.000 C 
BRANCH  18  19
ATOM     19  C   UNL     1       1.274   6.607  20.912  0.00  0.00    +0.000 C 
BRANCH  19  20
ATOM     20  C   UNL     1       0.548   7.955  20.838  0.00  0.00    +0.000 C 
BRANCH  20  21
ATOM     21  N   UNL     1       1.332   9.137  21.234  0.00  0.00    +0.000 NA
ATOM     22  C   UNL     1       1.319   9.286  22.701  0.00  0.00    +0.000 C 
ATOM     23  C   UNL     1      -0.041   9.705  23.283  0.00  0.00    +0.000 C 
ATOM     24  C   UNL     1      -0.556  10.977  22.601  0.00  0.00    +0.000 C 
ATOM     25  C   UNL     1      -1.967  11.364  23.068  0.00  0.00    +0.000 C 
ATOM     26  C   UNL     1      -2.462  12.628  22.359  0.00  0.00    +0.000 C 
ATOM     27  C   UNL     1      -2.377  12.494  20.843  0.00  0.00    +0.000 C 
ATOM     28  C   UNL     1      -0.964  12.117  20.418  0.00  0.00    +0.000 C 
ATOM     29  C   UNL     1      -0.522  10.814  21.075  0.00  0.00    +0.000 C 
ATOM     30  C   UNL     1       0.876  10.386  20.604  0.00  0.00    +0.000 C 
ENDBRANCH  20  21
ENDBRANCH  19  20
ENDBRANCH  18  19
ENDBRANCH  17  18
ENDBRANCH   1  17
TORSDOF 8
ENDMDL
MODEL 6
REMARK VINA RESULT:      -7.7      1.224      2.020
REMARK  Name = 
REMARK  9 active torsions:
REMARK  status: ('A' for Active; 'I' for Inactive)
REMARK    1  A    between atoms: C_1  and  C_2
REMARK    2  A    between atoms: C_2  and  N_3
REMARK    3  A    between atoms: N_3  and  C_4
REMARK    4  A    between atoms: N_3  and  S_18
REMARK    5  A    between atoms: C_4  and  C_5
REMARK    6  A    between atoms: C_5  and  C_6
REMARK    7  A    between atoms: C_6  and  C_7
REMARK    8  A    between atoms: C_7  and  N_8
REMARK    9  A    between atoms: S_18  and  C_21
REMARK                            x       y       z     vdW  Elec       q    Type
REMARK                         _______ _______ _______ _____ _____    ______ ____
ROOT
ATOM      1  N   UNL     1       6.412   6.305  18.184  0.00  0.00    +0.000 NA
ENDROOT
BRANCH   1   2
ATOM      2  S   UNL     1       4.976   5.541  17.524  0.00  0.00    +0.000 S 
ATOM      3  O   UNL     1       4.552   6.205  16.318  0.00  0.00    +0.000 OA
ATOM      4  O   UNL     1       5.307   4.123  17.478  0.00  0.00    +0.000 OA
BRANCH   2   5
ATOM      5  C   UNL     1       3.704   5.730  18.739  0.00  0.00    +0.000 A 
ATOM      6  C   UNL     1       3.074   6.984  18.832  0.00  0.00    +0.000 A 
ATOM      7  C   UNL     1       2.060   7.183  19.756  0.00  0.00    +0.000 A 
ATOM      8  C   UNL     1       1.663   6.126  20.565  0.00  0.00    +0.000 A 
ATOM      9  C   UNL     1       2.305   4.881  20.483  0.00  0.00    +0.000 A 
ATOM     10  C   UNL     1       1.899   3.829  21.317  0.00  0.00    +0.000 A 
ATOM     11  C   UNL     1       2.589   2.630  21.303  0.00  0.00    +0.000 A 
ATOM     12  C   UNL     1       3.671   2.534  20.459  0.00  0.00    +0.000 A 
ATOM     13  N   UNL     1       4.029   3.487  19.573  0.00  0.00    +0.000 NA
ATOM     14  C   UNL     1       3.373   4.666  19.579  0.00  0.00    +0.000 A 
ENDBRANCH   2   5
ENDBRANCH   1   2
BRANCH   1  16
ATOM     15  C   UNL     1       8.142   5.323  19.780  0.00  0.00    +0.000 C 
ATOM     16  C   UNL     1       7.526   5.311  18.390  0.00  0.00    +0.000 C 
ENDBRANCH   1  16
BRANCH   1  17
ATOM     17  C   UNL     1       6.848   7.483  17.348  0.00  0.00    +0.000 C 
BRANCH  17  18
ATOM     18  C   UNL     1       8.151   8.155  17.811  0.00  0.00    +0.000 C 
BRANCH  18  19
ATOM     19  C   UNL     1       8.104   9.689  17.856  0.00  0.00    +0.000 C 
BRANCH  19  20
ATOM     20  C   UNL     1       9.188  10.243  18.787  0.00  0.00    +0.000 C 
BRANCH  20  21
ATOM     21  N   UNL     1      10.030  11.317  18.235  0.00  0.00    +0.000 NA
ATOM     22  C   UNL     1      11.245  11.482  19.054  0.00  0.00    +0.000 C 
ATOM     23  C   UNL     1      10.992  12.080  20.448  0.00  0.00    +0.000 C 
ATOM     24  C   UNL     1      10.224  13.400  20.343  0.00  0.00    +0.000 C 
ATOM     25  C   UNL     1       9.845  13.972  21.717  0.00  0.00    +0.000 C 
ATOM     26  C   UNL     1       9.064  15.282  21.581  0.00  0.00    +0.000 C 
ATOM     27  C   UNL     1       7.849  15.122  20.674  0.00  0.00    +0.000 C 
ATOM     28  C   UNL     1       8.264  14.561  19.321  0.00  0.00    +0.000 C 
ATOM     29  C   UNL     1       8.970  13.219  19.475  0.00  0.00    +0.000 C 
ATOM     30  C   UNL     1       9.335  12.609  18.113  0.00  0.00    +0.000 C 
ENDBRANCH  20  21
ENDBRANCH  19  20
ENDBRANCH  18  19
ENDBRANCH  17  18
ENDBRANCH   1  17
TORSDOF 8
ENDMDL
MODEL 7
REMARK VINA RESULT:      -7.7      5.968      9.994
REMARK  Name = 
REMARK  9 active torsions:
REMARK  status: ('A' for Active; 'I' for Inactive)
REMARK    1  A    between atoms: C_1  and  C_2
REMARK    2  A    between atoms: C_2  and  N_3
REMARK    3  A    between atoms: N_3  and  C_4
REMARK    4  A    between atoms: N_3  and  S_18
REMARK    5  A    between atoms: C_4  and  C_5
REMARK    6  A    between atoms: C_5  and  C_6
REMARK    7  A    between atoms: C_6  and  C_7
REMARK    8  A    between atoms: C_7  and  N_8
REMARK    9  A    between atoms: S_18  and  C_21
REMARK                            x       y       z     vdW  Elec       q    Type
REMARK                         _______ _______ _______ _____ _____    ______ ____
ROOT
ATOM      1  N   UNL     1       0.482  11.184  18.611  0.00  0.00    +0.000 NA
ENDROOT
BRANCH   1   2
ATOM      2  S   UNL     1      -1.011  11.767  19.325  0.00  0.00    +0.000 S 
ATOM      3  O   UNL     1      -1.343  11.011  20.506  0.00  0.00    +0.000 OA
ATOM      4  O   UNL     1      -0.827  13.208  19.429  0.00  0.00    +0.000 OA
BRANCH   2   5
ATOM      5  C   UNL     1      -2.281  11.500  18.121  0.00  0.00    +0.000 A 
ATOM      6  C   UNL     1      -1.888  11.030  16.854  0.00  0.00    +0.000 A 
ATOM      7  C   UNL     1      -2.842  10.790  15.878  0.00  0.00    +0.000 A 
ATOM      8  C   UNL     1      -4.183  10.996  16.176  0.00  0.00    +0.000 A 
ATOM      9  C   UNL     1      -4.572  11.482  17.434  0.00  0.00    +0.000 A 
ATOM     10  C   UNL     1      -5.929  11.696  17.712  0.00  0.00    +0.000 A 
ATOM     11  C   UNL     1      -6.308  12.261  18.917  0.00  0.00    +0.000 A 
ATOM     12  C   UNL     1      -5.306  12.601  19.797  0.00  0.00    +0.000 A 
ATOM     13  N   UNL     1      -4.000  12.320  19.605  0.00  0.00    +0.000 NA
ATOM     14  C   UNL     1      -3.612  11.778  18.432  0.00  0.00    +0.000 A 
ENDBRANCH   2   5
ENDBRANCH   1   2
BRANCH   1  16
ATOM     15  C   UNL     1       2.436  12.701  17.991  0.00  0.00    +0.000 C 
ATOM     16  C   UNL     1       1.673  11.975  19.088  0.00  0.00    +0.000 C 
ENDBRANCH   1  16
BRANCH   1  17
ATOM     17  C   UNL     1       0.660   9.701  18.829  0.00  0.00    +0.000 C 
BRANCH  17  18
ATOM     18  C   UNL     1       1.634   9.018  17.856  0.00  0.00    +0.000 C 
BRANCH  18  19
ATOM     19  C   UNL     1       2.668   8.099  18.520  0.00  0.00    +0.000 C 
BRANCH  19  20
ATOM     20  C   UNL     1       3.358   7.209  17.479  0.00  0.00    +0.000 C 
BRANCH  20  21
ATOM     21  N   UNL     1       4.315   6.220  18.004  0.00  0.00    +0.000 NA
ATOM     22  C   UNL     1       4.434   5.083  17.071  0.00  0.00    +0.000 C 
ATOM     23  C   UNL     1       3.186   4.187  17.003  0.00  0.00    +0.000 C 
ATOM     24  C   UNL     1       2.787   3.704  18.401  0.00  0.00    +0.000 C 
ATOM     25  C   UNL     1       1.477   2.902  18.394  0.00  0.00    +0.000 C 
ATOM     26  C   UNL     1       1.094   2.447  19.805  0.00  0.00    +0.000 C 
ATOM     27  C   UNL     1       1.044   3.617  20.781  0.00  0.00    +0.000 C 
ATOM     28  C   UNL     1       2.361   4.382  20.765  0.00  0.00    +0.000 C 
ATOM     29  C   UNL     1       2.683   4.893  19.366  0.00  0.00    +0.000 C 
ATOM     30  C   UNL     1       3.974   5.724  19.348  0.00  0.00    +0.000 C 
ENDBRANCH  20  21
ENDBRANCH  19  20
ENDBRANCH  18  19
ENDBRANCH  17  18
ENDBRANCH   1  17
TORSDOF 8
ENDMDL
MODEL 8
REMARK VINA RESULT:      -7.6      4.462      7.012
REMARK  Name = 
REMARK  9 active torsions:
REMARK  status: ('A' for Active; 'I' for Inactive)
REMARK    1  A    between atoms: C_1  and  C_2
REMARK    2  A    between atoms: C_2  and  N_3
REMARK    3  A    between atoms: N_3  and  C_4
REMARK    4  A    between atoms: N_3  and  S_18
REMARK    5  A    between atoms: C_4  and  C_5
REMARK    6  A    between atoms: C_5  and  C_6
REMARK    7  A    between atoms: C_6  and  C_7
REMARK    8  A    between atoms: C_7  and  N_8
REMARK    9  A    between atoms: S_18  and  C_21
REMARK                            x       y       z     vdW  Elec       q    Type
REMARK                         _______ _______ _______ _____ _____    ______ ____
ROOT
ATOM      1  N   UNL     1       2.730   4.256  19.140  0.00  0.00    +0.000 NA
ENDROOT
BRANCH   1   2
ATOM      2  S   UNL     1       4.069   3.257  18.604  0.00  0.00    +0.000 S 
ATOM      3  O   UNL     1       4.934   2.924  19.707  0.00  0.00    +0.000 OA
ATOM      4  O   UNL     1       3.442   2.185  17.842  0.00  0.00    +0.000 OA
BRANCH   2   5
ATOM      5  C   UNL     1       4.991   4.231  17.449  0.00  0.00    +0.000 A 
ATOM      6  C   UNL     1       4.652   4.121  16.088  0.00  0.00    +0.000 A 
ATOM      7  C   UNL     1       5.331   4.872  15.142  0.00  0.00    +0.000 A 
ATOM      8  C   UNL     1       6.327   5.746  15.558  0.00  0.00    +0.000 A 
ATOM      9  C   UNL     1       6.677   5.841  16.915  0.00  0.00    +0.000 A 
ATOM     10  C   UNL     1       7.694   6.718  17.314  0.00  0.00    +0.000 A 
ATOM     11  C   UNL     1       8.104   6.747  18.636  0.00  0.00    +0.000 A 
ATOM     12  C   UNL     1       7.482   5.883  19.508  0.00  0.00    +0.000 A 
ATOM     13  N   UNL     1       6.435   5.098  19.179  0.00  0.00    +0.000 NA
ATOM     14  C   UNL     1       6.029   5.051  17.894  0.00  0.00    +0.000 A 
ENDBRANCH   2   5
ENDBRANCH   1   2
BRANCH   1  16
ATOM     15  C   UNL     1       0.797   3.151  20.383  0.00  0.00    +0.000 C 
ATOM     16  C   UNL     1       2.177   3.784  20.460  0.00  0.00    +0.000 C 
ENDBRANCH   1  16
BRANCH   1  17
ATOM     17  C   UNL     1       3.106   5.717  19.171  0.00  0.00    +0.000 C 
BRANCH  17  18
ATOM     18  C   UNL     1       2.220   6.630  18.307  0.00  0.00    +0.000 C 
BRANCH  18  19
ATOM     19  C   UNL     1       2.830   8.000  17.983  0.00  0.00    +0.000 C 
BRANCH  19  20
ATOM     20  C   UNL     1       1.755   9.093  17.985  0.00  0.00    +0.000 C 
BRANCH  20  21
ATOM     21  N   UNL     1       1.154   9.408  19.292  0.00  0.00    +0.000 NA
ATOM     22  C   UNL     1      -0.316   9.466  19.174  0.00  0.00    +0.000 C 
ATOM     23  C   UNL     1      -0.840  10.674  18.380  0.00  0.00    +0.000 C 
ATOM     24  C   UNL     1      -0.288  11.983  18.953  0.00  0.00    +0.000 C 
ATOM     25  C   UNL     1      -0.691  13.207  18.117  0.00  0.00    +0.000 C 
ATOM     26  C   UNL     1      -0.112  14.497  18.703  0.00  0.00    +0.000 C 
ATOM     27  C   UNL     1       1.398  14.405  18.890  0.00  0.00    +0.000 C 
ATOM     28  C   UNL     1       1.757  13.185  19.729  0.00  0.00    +0.000 C 
ATOM     29  C   UNL     1       1.239  11.904  19.086  0.00  0.00    +0.000 C 
ATOM     30  C   UNL     1       1.653  10.659  19.885  0.00  0.00    +0.000 C 
ENDBRANCH  20  21
ENDBRANCH  19  20
ENDBRANCH  18  19
ENDBRANCH  17  18
ENDBRANCH   1  17
TORSDOF 8
ENDMDL
MODEL 9
REMARK VINA RESULT:      -7.6      5.127      8.159
REMARK  Name = 
REMARK  9 active torsions:
REMARK  status: ('A' for Active; 'I' for Inactive)
REMARK    1  A    between atoms: C_1  and  C_2
REMARK    2  A    between atoms: C_2  and  N_3
REMARK    3  A    between atoms: N_3  and  C_4
REMARK    4  A    between atoms: N_3  and  S_18
REMARK    5  A    between atoms: C_4  and  C_5
REMARK    6  A    between atoms: C_5  and  C_6
REMARK    7  A    between atoms: C_6  and  C_7
REMARK    8  A    between atoms: C_7  and  N_8
REMARK    9  A    between atoms: S_18  and  C_21
REMARK                            x       y       z     vdW  Elec       q    Type
REMARK                         _______ _______ _______ _____ _____    ______ ____
ROOT
ATOM      1  N   UNL     1       2.783   4.455  19.093  0.00  0.00    +0.000 NA
ENDROOT
BRANCH   1   2
ATOM      2  S   UNL     1       4.179   3.404  18.934  0.00  0.00    +0.000 S 
ATOM      3  O   UNL     1       4.550   2.848  20.210  0.00  0.00    +0.000 OA
ATOM      4  O   UNL     1       3.836   2.507  17.838  0.00  0.00    +0.000 OA
BRANCH   2   5
ATOM      5  C   UNL     1       5.510   4.421  18.363  0.00  0.00    +0.000 A 
ATOM      6  C   UNL     1       6.249   5.128  19.329  0.00  0.00    +0.000 A 
ATOM      7  C   UNL     1       7.312   5.928  18.939  0.00  0.00    +0.000 A 
ATOM      8  C   UNL     1       7.648   6.000  17.594  0.00  0.00    +0.000 A 
ATOM      9  C   UNL     1       6.898   5.308  16.629  0.00  0.00    +0.000 A 
ATOM     10  C   UNL     1       7.243   5.404  15.274  0.00  0.00    +0.000 A 
ATOM     11  C   UNL     1       6.452   4.799  14.314  0.00  0.00    +0.000 A 
ATOM     12  C   UNL     1       5.334   4.127  14.750  0.00  0.00    +0.000 A 
ATOM     13  N   UNL     1       5.025   3.931  16.049  0.00  0.00    +0.000 NA
ATOM     14  C   UNL     1       5.780   4.522  16.998  0.00  0.00    +0.000 A 
ENDBRANCH   2   5
ENDBRANCH   1   2
BRANCH   1  16
ATOM     15  C   UNL     1       0.760   2.907  19.231  0.00  0.00    +0.000 C 
ATOM     16  C   UNL     1       1.717   3.837  19.961  0.00  0.00    +0.000 C 
ENDBRANCH   1  16
BRANCH   1  17
ATOM     17  C   UNL     1       3.177   5.832  19.570  0.00  0.00    +0.000 C 
BRANCH  17  18
ATOM     18  C   UNL     1       2.101   6.913  19.380  0.00  0.00    +0.000 C 
BRANCH  18  19
ATOM     19  C   UNL     1       1.825   7.773  20.621  0.00  0.00    +0.000 C 
BRANCH  19  20
ATOM     20  C   UNL     1       0.781   8.853  20.318  0.00  0.00    +0.000 C 
BRANCH  20  21
ATOM     21  N   UNL     1       1.147   9.837  19.286  0.00  0.00    +0.000 NA
ATOM     22  C   UNL     1       0.998  11.207  19.814  0.00  0.00    +0.000 C 
ATOM     23  C   UNL     1      -0.460  11.641  20.042  0.00  0.00    +0.000 C 
ATOM     24  C   UNL     1      -1.289  11.456  18.768  0.00  0.00    +0.000 C 
ATOM     25  C   UNL     1      -2.778  11.765  18.984  0.00  0.00    +0.000 C 
ATOM     26  C   UNL     1      -3.584  11.556  17.699  0.00  0.00    +0.000 C 
ATOM     27  C   UNL     1      -3.368  10.163  17.119  0.00  0.00    +0.000 C 
ATOM     28  C   UNL     1      -1.883   9.895  16.912  0.00  0.00    +0.000 C 
ATOM     29  C   UNL     1      -1.112  10.033  18.220  0.00  0.00    +0.000 C 
ATOM     30  C   UNL     1       0.377   9.700  18.039  0.00  0.00    +0.000 C 
ENDBRANCH  20  21
ENDBRANCH  19  20
ENDBRANCH  18  19
ENDBRANCH  17  18
ENDBRANCH   1  17
TORSDOF 8
ENDMDL
