MODEL 1
REMARK VINA RESULT:      -8.1      0.000      0.000
REMARK  Name = 
REMARK  5 active torsions:
REMARK  status: ('A' for Active; 'I' for Inactive)
REMARK    1  A    between atoms: C_1  and  O_2
REMARK    2  A    between atoms: O_2  and  C_3
REMARK    3  A    between atoms: C_7  and  C_8
REMARK    4  A    between atoms: C_9  and  C_10
REMARK    5  A    between atoms: N_12  and  C_13
REMARK                            x       y       z     vdW  Elec       q    Type
REMARK                         _______ _______ _______ _____ _____    ______ ____
ROOT
ATOM      1  C   UNL     1       4.130   4.049  19.517  0.00  0.00    +0.000 C 
ATOM      2  C   UNL     1       2.964   4.685  19.818  0.00  0.00    +0.000 C 
ATOM      3  C   UNL     1       2.194   3.748  20.672  0.00  0.00    +0.000 C 
ATOM      4  O   UNL     1       1.103   3.950  21.181  0.00  0.00    +0.000 OA
ATOM      5  N   UNL     1       2.901   2.596  20.771  0.00  0.00    +0.000 N 
ATOM      6  C   UNL     1       4.059   2.676  20.097  0.00  0.00    +0.000 C 
ATOM      7  O   UNL     1       4.884   1.786  19.951  0.00  0.00    +0.000 OA
ATOM      8  H   UNL     1       2.579   1.764  21.227  0.00  0.00    +0.000 HD
ENDROOT
BRANCH   2   9
ATOM      9  C   UNL     1       2.515   5.971  19.357  0.00  0.00    +0.000 A 
ATOM     10  C   UNL     1       2.260   6.147  18.013  0.00  0.00    +0.000 A 
ATOM     11  N   UNL     1       2.542   7.460  17.788  0.00  0.00    +0.000 N 
ATOM     12  C   UNL     1       3.852   7.933  17.352  0.00  0.00    +0.000 C 
ATOM     13  C   UNL     1       1.870   8.100  18.794  0.00  0.00    +0.000 A 
ATOM     14  C   UNL     1       1.273   9.360  18.777  0.00  0.00    +0.000 A 
ATOM     15  C   UNL     1       0.763   9.820  19.976  0.00  0.00    +0.000 A 
ATOM     16  C   UNL     1       0.926   9.064  21.138  0.00  0.00    +0.000 A 
ATOM     17  C   UNL     1       1.553   7.785  21.131  0.00  0.00    +0.000 A 
ATOM     18  C   UNL     1       1.989   7.228  19.901  0.00  0.00    +0.000 A 
ENDBRANCH   2   9
BRANCH   1  23
ATOM     19  C   UNL     1       6.573   4.408  16.619  0.00  0.00    +0.000 A 
ATOM     20  C   UNL     1       7.587   5.151  17.215  0.00  0.00    +0.000 A 
ATOM     21  C   UNL     1       7.504   5.499  18.557  0.00  0.00    +0.000 A 
ATOM     22  C   UNL     1       6.371   5.151  19.303  0.00  0.00    +0.000 A 
ATOM     23  C   UNL     1       5.312   4.445  18.707  0.00  0.00    +0.000 A 
ATOM     24  C   UNL     1       5.453   4.041  17.371  0.00  0.00    +0.000 A 
BRANCH  19  26
ATOM     25  C   UNL     1       5.665   4.361  14.430  0.00  0.00    +0.000 C 
ATOM     26  O   UNL     1       6.771   4.122  15.292  0.00  0.00    +0.000 OA
ENDBRANCH  19  26
ENDBRANCH   1  23
TORSDOF 3
ENDMDL
MODEL 2
REMARK VINA RESULT:      -8.1      2.003      5.705
REMARK  Name = 
REMARK  5 active torsions:
REMARK  status: ('A' for Active; 'I' for Inactive)
REMARK    1  A    between atoms: C_1  and  O_2
REMARK    2  A    between atoms: O_2  and  C_3
REMARK    3  A    between atoms: C_7  and  C_8
REMARK    4  A    between atoms: C_9  and  C_10
REMARK    5  A    between atoms: N_12  and  C_13
REMARK                            x       y       z     vdW  Elec       q    Type
REMARK                         _______ _______ _______ _____ _____    ______ ____
ROOT
ATOM      1  C   UNL     1       2.513   4.066  18.841  0.00  0.00    +0.000 C 
ATOM      2  C   UNL     1       3.504   3.409  18.175  0.00  0.00    +0.000 C 
ATOM      3  C   UNL     1       3.178   1.966  18.275  0.00  0.00    +0.000 C 
ATOM      4  O   UNL     1       3.802   1.038  17.783  0.00  0.00    +0.000 OA
ATOM      5  N   UNL     1       2.069   1.840  19.044  0.00  0.00    +0.000 N 
ATOM      6  C   UNL     1       1.615   3.039  19.443  0.00  0.00    +0.000 C 
ATOM      7  O   UNL     1       0.670   3.252  20.189  0.00  0.00    +0.000 OA
ATOM      8  H   UNL     1       1.673   0.968  19.339  0.00  0.00    +0.000 HD
ENDROOT
BRANCH   2   9
ATOM      9  C   UNL     1       4.673   3.971  17.556  0.00  0.00    +0.000 A 
ATOM     10  C   UNL     1       5.755   4.301  18.346  0.00  0.00    +0.000 A 
ATOM     11  N   UNL     1       6.333   5.351  17.701  0.00  0.00    +0.000 N 
ATOM     12  C   UNL     1       6.006   6.745  17.988  0.00  0.00    +0.000 C 
ATOM     13  C   UNL     1       6.425   4.910  16.408  0.00  0.00    +0.000 A 
ATOM     14  C   UNL     1       7.398   5.207  15.455  0.00  0.00    +0.000 A 
ATOM     15  C   UNL     1       7.184   4.722  14.179  0.00  0.00    +0.000 A 
ATOM     16  C   UNL     1       6.003   4.040  13.883  0.00  0.00    +0.000 A 
ATOM     17  C   UNL     1       5.017   3.761  14.872  0.00  0.00    +0.000 A 
ATOM     18  C   UNL     1       5.252   4.144  16.218  0.00  0.00    +0.000 A 
ENDBRANCH   2   9
BRANCH   1  23
ATOM     19  C   UNL     1       2.190   7.828  18.351  0.00  0.00    +0.000 A 
ATOM     20  C   UNL     1       1.847   8.236  19.635  0.00  0.00    +0.000 A 
ATOM     21  C   UNL     1       1.761   7.308  20.665  0.00  0.00    +0.000 A 
ATOM     22  C   UNL     1       1.965   5.948  20.403  0.00  0.00    +0.000 A 
ATOM     23  C   UNL     1       2.262   5.508  19.102  0.00  0.00    +0.000 A 
ATOM     24  C   UNL     1       2.417   6.472  18.095  0.00  0.00    +0.000 A 
BRANCH  19  26
ATOM     25  C   UNL     1       1.910  10.136  17.887  0.00  0.00    +0.000 C 
ATOM     26  O   UNL     1       2.248   8.835  17.422  0.00  0.00    +0.000 OA
ENDBRANCH  19  26
ENDBRANCH   1  23
TORSDOF 3
ENDMDL
MODEL 3
REMARK VINA RESULT:      -8.1      2.341      3.601
REMARK  Name = 
REMARK  5 active torsions:
REMARK  status: ('A' for Active; 'I' for Inactive)
REMARK    1  A    between atoms: C_1  and  O_2
REMARK    2  A    between atoms: O_2  and  C_3
REMARK    3  A    between atoms: C_7  and  C_8
REMARK    4  A    between atoms: C_9  and  C_10
REMARK    5  A    between atoms: N_12  and  C_13
REMARK                            x       y       z     vdW  Elec       q    Type
REMARK                         _______ _______ _______ _____ _____    ______ ____
ROOT
ATOM      1  C   UNL     1       5.247   4.877  17.342  0.00  0.00    +0.000 C 
ATOM      2  C   UNL     1       3.948   4.703  17.716  0.00  0.00    +0.000 C 
ATOM      3  C   UNL     1       3.398   3.661  16.815  0.00  0.00    +0.000 C 
ATOM      4  O   UNL     1       2.270   3.193  16.839  0.00  0.00    +0.000 OA
ATOM      5  N   UNL     1       4.362   3.329  15.922  0.00  0.00    +0.000 N 
ATOM      6  C   UNL     1       5.492   4.018  16.147  0.00  0.00    +0.000 C 
ATOM      7  O   UNL     1       6.515   3.983  15.479  0.00  0.00    +0.000 OA
ATOM      8  H   UNL     1       4.236   2.704  15.149  0.00  0.00    +0.000 HD
ENDROOT
BRANCH   2   9
ATOM      9  C   UNL     1       3.217   5.420  18.724  0.00  0.00    +0.000 A 
ATOM     10  C   UNL     1       3.288   4.992  20.034  0.00  0.00    +0.000 A 
ATOM     11  N   UNL     1       2.083   5.337  20.565  0.00  0.00    +0.000 N 
ATOM     12  C   UNL     1       0.933   4.438  20.590  0.00  0.00    +0.000 C 
ATOM     13  C   UNL     1       1.938   6.644  20.185  0.00  0.00    +0.000 A 
ATOM     14  C   UNL     1       1.297   7.681  20.863  0.00  0.00    +0.000 A 
ATOM     15  C   UNL     1       1.189   8.884  20.193  0.00  0.00    +0.000 A 
ATOM     16  C   UNL     1       1.642   8.992  18.877  0.00  0.00    +0.000 A 
ATOM     17  C   UNL     1       2.280   7.914  18.202  0.00  0.00    +0.000 A 
ATOM     18  C   UNL     1       2.512   6.697  18.894  0.00  0.00    +0.000 A 
ENDBRANCH   2   9
BRANCH   1  23
ATOM     19  C   UNL     1       7.605   7.840  17.726  0.00  0.00    +0.000 A 
ATOM     20  C   UNL     1       8.418   7.402  18.765  0.00  0.00    +0.000 A 
ATOM     21  C   UNL     1       8.234   6.139  19.313  0.00  0.00    +0.000 A 
ATOM     22  C   UNL     1       7.192   5.322  18.858  0.00  0.00    +0.000 A 
ATOM     23  C   UNL     1       6.327   5.766  17.844  0.00  0.00    +0.000 A 
ATOM     24  C   UNL     1       6.580   7.014  17.256  0.00  0.00    +0.000 A 
BRANCH  19  26
ATOM     25  C   UNL     1       8.648   9.929  18.136  0.00  0.00    +0.000 C 
ATOM     26  O   UNL     1       7.886   9.102  17.266  0.00  0.00    +0.000 OA
ENDBRANCH  19  26
ENDBRANCH   1  23
TORSDOF 3
ENDMDL
MODEL 4
REMARK VINA RESULT:      -8.1      1.812      6.034
REMARK  Name = 
REMARK  5 active torsions:
REMARK  status: ('A' for Active; 'I' for Inactive)
REMARK    1  A    between atoms: C_1  and  O_2
REMARK    2  A    between atoms: O_2  and  C_3
REMARK    3  A    between atoms: C_7  and  C_8
REMARK    4  A    between atoms: C_9  and  C_10
REMARK    5  A    between atoms: N_12  and  C_13
REMARK                            x       y       z     vdW  Elec       q    Type
REMARK                         _______ _______ _______ _____ _____    ______ ____
ROOT
ATOM      1  C   UNL     1       2.576   4.381  18.872  0.00  0.00    +0.000 C 
ATOM      2  C   UNL     1       3.543   3.643  18.258  0.00  0.00    +0.000 C 
ATOM      3  C   UNL     1       3.191   2.222  18.501  0.00  0.00    +0.000 C 
ATOM      4  O   UNL     1       3.788   1.239  18.091  0.00  0.00    +0.000 OA
ATOM      5  N   UNL     1       2.092   2.194  19.293  0.00  0.00    +0.000 N 
ATOM      6  C   UNL     1       1.668   3.434  19.582  0.00  0.00    +0.000 C 
ATOM      7  O   UNL     1       0.739   3.738  20.318  0.00  0.00    +0.000 OA
ATOM      8  H   UNL     1       1.683   1.363  19.676  0.00  0.00    +0.000 HD
ENDROOT
BRANCH   2   9
ATOM      9  C   UNL     1       4.713   4.118  17.572  0.00  0.00    +0.000 A 
ATOM     10  C   UNL     1       5.847   4.406  18.304  0.00  0.00    +0.000 A 
ATOM     11  N   UNL     1       6.453   5.403  17.603  0.00  0.00    +0.000 N 
ATOM     12  C   UNL     1       6.220   6.821  17.862  0.00  0.00    +0.000 C 
ATOM     13  C   UNL     1       6.461   4.922  16.321  0.00  0.00    +0.000 A 
ATOM     14  C   UNL     1       7.406   5.135  15.318  0.00  0.00    +0.000 A 
ATOM     15  C   UNL     1       7.107   4.628  14.068  0.00  0.00    +0.000 A 
ATOM     16  C   UNL     1       5.877   4.007  13.844  0.00  0.00    +0.000 A 
ATOM     17  C   UNL     1       4.923   3.815  14.883  0.00  0.00    +0.000 A 
ATOM     18  C   UNL     1       5.239   4.220  16.205  0.00  0.00    +0.000 A 
ENDBRANCH   2   9
BRANCH   1  23
ATOM     19  C   UNL     1       1.761   7.804  20.324  0.00  0.00    +0.000 A 
ATOM     20  C   UNL     1       1.884   8.609  19.197  0.00  0.00    +0.000 A 
ATOM     21  C   UNL     1       2.187   8.045  17.964  0.00  0.00    +0.000 A 
ATOM     22  C   UNL     1       2.425   6.669  17.861  0.00  0.00    +0.000 A 
ATOM     23  C   UNL     1       2.357   5.846  18.997  0.00  0.00    +0.000 A 
ATOM     24  C   UNL     1       1.976   6.427  20.216  0.00  0.00    +0.000 A 
BRANCH  19  26
ATOM     25  C   UNL     1       0.134   8.995  21.571  0.00  0.00    +0.000 C 
ATOM     26  O   UNL     1       1.455   8.475  21.481  0.00  0.00    +0.000 OA
ENDBRANCH  19  26
ENDBRANCH   1  23
TORSDOF 3
ENDMDL
MODEL 5
REMARK VINA RESULT:      -7.9      1.063      1.744
REMARK  Name = 
REMARK  5 active torsions:
REMARK  status: ('A' for Active; 'I' for Inactive)
REMARK    1  A    between atoms: C_1  and  O_2
REMARK    2  A    between atoms: O_2  and  C_3
REMARK    3  A    between atoms: C_7  and  C_8
REMARK    4  A    between atoms: C_9  and  C_10
REMARK    5  A    between atoms: N_12  and  C_13
REMARK                            x       y       z     vdW  Elec       q    Type
REMARK                         _______ _______ _______ _____ _____    ______ ____
ROOT
ATOM      1  C   UNL     1       4.091   4.080  19.451  0.00  0.00    +0.000 C 
ATOM      2  C   UNL     1       2.934   4.704  19.813  0.00  0.00    +0.000 C 
ATOM      3  C   UNL     1       2.205   3.744  20.678  0.00  0.00    +0.000 C 
ATOM      4  O   UNL     1       1.134   3.929  21.236  0.00  0.00    +0.000 OA
ATOM      5  N   UNL     1       2.922   2.595  20.724  0.00  0.00    +0.000 N 
ATOM      6  C   UNL     1       4.050   2.696  20.005  0.00  0.00    +0.000 C 
ATOM      7  O   UNL     1       4.873   1.813  19.807  0.00  0.00    +0.000 OA
ATOM      8  H   UNL     1       2.622   1.752  21.176  0.00  0.00    +0.000 HD
ENDROOT
BRANCH   2   9
ATOM      9  C   UNL     1       2.461   5.995  19.397  0.00  0.00    +0.000 A 
ATOM     10  C   UNL     1       2.175   6.206  18.064  0.00  0.00    +0.000 A 
ATOM     11  N   UNL     1       2.437   7.528  17.871  0.00  0.00    +0.000 N 
ATOM     12  C   UNL     1       3.732   8.030  17.422  0.00  0.00    +0.000 C 
ATOM     13  C   UNL     1       1.777   8.131  18.908  0.00  0.00    +0.000 A 
ATOM     14  C   UNL     1       1.165   9.383  18.939  0.00  0.00    +0.000 A 
ATOM     15  C   UNL     1       0.674   9.803  20.160  0.00  0.00    +0.000 A 
ATOM     16  C   UNL     1       0.871   9.017  21.297  0.00  0.00    +0.000 A 
ATOM     17  C   UNL     1       1.513   7.747  21.241  0.00  0.00    +0.000 A 
ATOM     18  C   UNL     1       1.930   7.231  19.987  0.00  0.00    +0.000 A 
ENDBRANCH   2   9
BRANCH   1  23
ATOM     19  C   UNL     1       7.206   5.887  18.217  0.00  0.00    +0.000 A 
ATOM     20  C   UNL     1       7.356   5.328  16.953  0.00  0.00    +0.000 A 
ATOM     21  C   UNL     1       6.433   4.402  16.482  0.00  0.00    +0.000 A 
ATOM     22  C   UNL     1       5.377   3.987  17.302  0.00  0.00    +0.000 A 
ATOM     23  C   UNL     1       5.236   4.500  18.602  0.00  0.00    +0.000 A 
ATOM     24  C   UNL     1       6.137   5.488  19.026  0.00  0.00    +0.000 A 
BRANCH  19  26
ATOM     25  C   UNL     1       8.062   8.086  17.990  0.00  0.00    +0.000 C 
ATOM     26  O   UNL     1       8.176   6.791  18.567  0.00  0.00    +0.000 OA
ENDBRANCH  19  26
ENDBRANCH   1  23
TORSDOF 3
ENDMDL
MODEL 6
REMARK VINA RESULT:      -7.8      1.705      5.929
REMARK  Name = 
REMARK  5 active torsions:
REMARK  status: ('A' for Active; 'I' for Inactive)
REMARK    1  A    between atoms: C_1  and  O_2
REMARK    2  A    between atoms: O_2  and  C_3
REMARK    3  A    between atoms: C_7  and  C_8
REMARK    4  A    between atoms: C_9  and  C_10
REMARK    5  A    between atoms: N_12  and  C_13
REMARK                            x       y       z     vdW  Elec       q    Type
REMARK                         _______ _______ _______ _____ _____    ______ ____
ROOT
ATOM      1  C   UNL     1       3.288   4.911  19.511  0.00  0.00    +0.000 C 
ATOM      2  C   UNL     1       4.302   4.124  19.053  0.00  0.00    +0.000 C 
ATOM      3  C   UNL     1       4.203   2.849  19.806  0.00  0.00    +0.000 C 
ATOM      4  O   UNL     1       4.911   1.863  19.672  0.00  0.00    +0.000 OA
ATOM      5  N   UNL     1       3.198   2.973  20.707  0.00  0.00    +0.000 N 
ATOM      6  C   UNL     1       2.610   4.176  20.618  0.00  0.00    +0.000 C 
ATOM      7  O   UNL     1       1.714   4.607  21.330  0.00  0.00    +0.000 OA
ATOM      8  H   UNL     1       2.964   2.288  21.400  0.00  0.00    +0.000 HD
ENDROOT
BRANCH   2   9
ATOM      9  C   UNL     1       5.315   4.460  18.091  0.00  0.00    +0.000 A 
ATOM     10  C   UNL     1       6.607   4.669  18.526  0.00  0.00    +0.000 A 
ATOM     11  N   UNL     1       7.114   5.577  17.648  0.00  0.00    +0.000 N 
ATOM     12  C   UNL     1       7.066   7.019  17.871  0.00  0.00    +0.000 C 
ATOM     13  C   UNL     1       6.783   5.050  16.428  0.00  0.00    +0.000 A 
ATOM     14  C   UNL     1       7.482   5.136  15.225  0.00  0.00    +0.000 A 
ATOM     15  C   UNL     1       6.859   4.613  14.108  0.00  0.00    +0.000 A 
ATOM     16  C   UNL     1       5.564   4.103  14.208  0.00  0.00    +0.000 A 
ATOM     17  C   UNL     1       4.866   4.039  15.447  0.00  0.00    +0.000 A 
ATOM     18  C   UNL     1       5.514   4.462  16.637  0.00  0.00    +0.000 A 
ENDBRANCH   2   9
BRANCH   1  23
ATOM     19  C   UNL     1       1.716   8.370  19.740  0.00  0.00    +0.000 A 
ATOM     20  C   UNL     1       1.975   8.867  18.468  0.00  0.00    +0.000 A 
ATOM     21  C   UNL     1       2.617   8.074  17.524  0.00  0.00    +0.000 A 
ATOM     22  C   UNL     1       3.056   6.790  17.870  0.00  0.00    +0.000 A 
ATOM     23  C   UNL     1       2.850   6.289  19.165  0.00  0.00    +0.000 A 
ATOM     24  C   UNL     1       2.134   7.079  20.077  0.00  0.00    +0.000 A 
BRANCH  19  26
ATOM     25  C   UNL     1       1.139   8.939  21.968  0.00  0.00    +0.000 C 
ATOM     26  O   UNL     1       1.073   9.244  20.581  0.00  0.00    +0.000 OA
ENDBRANCH  19  26
ENDBRANCH   1  23
TORSDOF 3
ENDMDL
MODEL 7
REMARK VINA RESULT:      -7.3      1.983      5.426
REMARK  Name = 
REMARK  5 active torsions:
REMARK  status: ('A' for Active; 'I' for Inactive)
REMARK    1  A    between atoms: C_1  and  O_2
REMARK    2  A    between atoms: O_2  and  C_3
REMARK    3  A    between atoms: C_7  and  C_8
REMARK    4  A    between atoms: C_9  and  C_10
REMARK    5  A    between atoms: N_12  and  C_13
REMARK                            x       y       z     vdW  Elec       q    Type
REMARK                         _______ _______ _______ _____ _____    ______ ____
ROOT
ATOM      1  C   UNL     1       2.290   4.209  19.020  0.00  0.00    +0.000 C 
ATOM      2  C   UNL     1       3.302   3.689  18.271  0.00  0.00    +0.000 C 
ATOM      3  C   UNL     1       3.040   2.232  18.183  0.00  0.00    +0.000 C 
ATOM      4  O   UNL     1       3.699   1.404  17.572  0.00  0.00    +0.000 OA
ATOM      5  N   UNL     1       1.944   1.959  18.932  0.00  0.00    +0.000 N 
ATOM      6  C   UNL     1       1.443   3.073  19.486  0.00  0.00    +0.000 C 
ATOM      7  O   UNL     1       0.496   3.146  20.257  0.00  0.00    +0.000 OA
ATOM      8  H   UNL     1       1.589   1.039  19.112  0.00  0.00    +0.000 HD
ENDROOT
BRANCH   2   9
ATOM      9  C   UNL     1       4.440   4.377  17.726  0.00  0.00    +0.000 A 
ATOM     10  C   UNL     1       4.383   4.843  16.429  0.00  0.00    +0.000 A 
ATOM     11  N   UNL     1       5.672   4.785  15.995  0.00  0.00    +0.000 N 
ATOM     12  C   UNL     1       6.232   3.631  15.298  0.00  0.00    +0.000 C 
ATOM     13  C   UNL     1       6.368   5.393  17.006  0.00  0.00    +0.000 A 
ATOM     14  C   UNL     1       7.529   6.160  16.923  0.00  0.00    +0.000 A 
ATOM     15  C   UNL     1       8.097   6.557  18.118  0.00  0.00    +0.000 A 
ATOM     16  C   UNL     1       7.547   6.124  19.327  0.00  0.00    +0.000 A 
ATOM     17  C   UNL     1       6.368   5.329  19.384  0.00  0.00    +0.000 A 
ATOM     18  C   UNL     1       5.691   4.996  18.181  0.00  0.00    +0.000 A 
ENDBRANCH   2   9
BRANCH   1  23
ATOM     19  C   UNL     1       1.909   7.997  19.064  0.00  0.00    +0.000 A 
ATOM     20  C   UNL     1       1.447   8.204  20.358  0.00  0.00    +0.000 A 
ATOM     21  C   UNL     1       1.298   7.132  21.229  0.00  0.00    +0.000 A 
ATOM     22  C   UNL     1       1.561   5.829  20.788  0.00  0.00    +0.000 A 
ATOM     23  C   UNL     1       1.979   5.592  19.468  0.00  0.00    +0.000 A 
ATOM     24  C   UNL     1       2.193   6.698  18.631  0.00  0.00    +0.000 A 
BRANCH  19  26
ATOM     25  C   UNL     1       1.129  10.193  18.628  0.00  0.00    +0.000 C 
ATOM     26  O   UNL     1       2.019   9.132  18.302  0.00  0.00    +0.000 OA
ENDBRANCH  19  26
ENDBRANCH   1  23
TORSDOF 3
ENDMDL
MODEL 8
REMARK VINA RESULT:      -7.2      2.704      4.194
REMARK  Name = 
REMARK  5 active torsions:
REMARK  status: ('A' for Active; 'I' for Inactive)
REMARK    1  A    between atoms: C_1  and  O_2
REMARK    2  A    between atoms: O_2  and  C_3
REMARK    3  A    between atoms: C_7  and  C_8
REMARK    4  A    between atoms: C_9  and  C_10
REMARK    5  A    between atoms: N_12  and  C_13
REMARK                            x       y       z     vdW  Elec       q    Type
REMARK                         _______ _______ _______ _____ _____    ______ ____
ROOT
ATOM      1  C   UNL     1       6.066   5.665  17.094  0.00  0.00    +0.000 C 
ATOM      2  C   UNL     1       4.778   5.302  17.351  0.00  0.00    +0.000 C 
ATOM      3  C   UNL     1       4.453   4.230  16.378  0.00  0.00    +0.000 C 
ATOM      4  O   UNL     1       3.403   3.611  16.294  0.00  0.00    +0.000 OA
ATOM      5  N   UNL     1       5.522   4.068  15.562  0.00  0.00    +0.000 N 
ATOM      6  C   UNL     1       6.523   4.895  15.900  0.00  0.00    +0.000 C 
ATOM      7  O   UNL     1       7.592   5.026  15.322  0.00  0.00    +0.000 OA
ATOM      8  H   UNL     1       5.547   3.461  14.764  0.00  0.00    +0.000 HD
ENDROOT
BRANCH   2   9
ATOM      9  C   UNL     1       3.876   5.872  18.313  0.00  0.00    +0.000 A 
ATOM     10  C   UNL     1       3.893   5.399  19.609  0.00  0.00    +0.000 A 
ATOM     11  N   UNL     1       2.612   5.561  20.041  0.00  0.00    +0.000 N 
ATOM     12  C   UNL     1       1.593   4.521  19.933  0.00  0.00    +0.000 C 
ATOM     13  C   UNL     1       2.327   6.855  19.693  0.00  0.00    +0.000 A 
ATOM     14  C   UNL     1       1.499   7.768  20.344  0.00  0.00    +0.000 A 
ATOM     15  C   UNL     1       1.289   8.976  19.708  0.00  0.00    +0.000 A 
ATOM     16  C   UNL     1       1.833   9.200  18.442  0.00  0.00    +0.000 A 
ATOM     17  C   UNL     1       2.663   8.244  17.791  0.00  0.00    +0.000 A 
ATOM     18  C   UNL     1       2.995   7.038  18.461  0.00  0.00    +0.000 A 
ENDBRANCH   2   9
BRANCH   1  23
ATOM     19  C   UNL     1       7.876   8.935  17.817  0.00  0.00    +0.000 A 
ATOM     20  C   UNL     1       8.729   8.547  18.844  0.00  0.00    +0.000 A 
ATOM     21  C   UNL     1       8.752   7.226  19.274  0.00  0.00    +0.000 A 
ATOM     22  C   UNL     1       7.874   6.291  18.712  0.00  0.00    +0.000 A 
ATOM     23  C   UNL     1       6.968   6.673  17.709  0.00  0.00    +0.000 A 
ATOM     24  C   UNL     1       7.017   7.995  17.241  0.00  0.00    +0.000 A 
BRANCH  19  26
ATOM     25  C   UNL     1       8.999  11.006  18.083  0.00  0.00    +0.000 C 
ATOM     26  O   UNL     1       7.948  10.262  17.478  0.00  0.00    +0.000 OA
ENDBRANCH  19  26
ENDBRANCH   1  23
TORSDOF 3
ENDMDL
MODEL 9
REMARK VINA RESULT:      -7.1      2.215      3.210
REMARK  Name = 
REMARK  5 active torsions:
REMARK  status: ('A' for Active; 'I' for Inactive)
REMARK    1  A    between atoms: C_1  and  O_2
REMARK    2  A    between atoms: O_2  and  C_3
REMARK    3  A    between atoms: C_7  and  C_8
REMARK    4  A    between atoms: C_9  and  C_10
REMARK    5  A    between atoms: N_12  and  C_13
REMARK                            x       y       z     vdW  Elec       q    Type
REMARK                         _______ _______ _______ _____ _____    ______ ____
ROOT
ATOM      1  C   UNL     1       4.515   5.002  17.695  0.00  0.00    +0.000 C 
ATOM      2  C   UNL     1       3.212   5.235  18.019  0.00  0.00    +0.000 C 
ATOM      3  C   UNL     1       2.425   4.175  17.342  0.00  0.00    +0.000 C 
ATOM      4  O   UNL     1       1.217   4.008  17.402  0.00  0.00    +0.000 OA
ATOM      5  N   UNL     1       3.281   3.424  16.607  0.00  0.00    +0.000 N 
ATOM      6  C   UNL     1       4.545   3.857  16.739  0.00  0.00    +0.000 C 
ATOM      7  O   UNL     1       5.531   3.424  16.160  0.00  0.00    +0.000 OA
ATOM      8  H   UNL     1       3.007   2.685  15.987  0.00  0.00    +0.000 HD
ENDROOT
BRANCH   2   9
ATOM      9  C   UNL     1       2.676   6.320  18.794  0.00  0.00    +0.000 A 
ATOM     10  C   UNL     1       2.789   6.279  20.169  0.00  0.00    +0.000 A 
ATOM     11  N   UNL     1       1.694   6.952  20.615  0.00  0.00    +0.000 N 
ATOM     12  C   UNL     1       0.431   6.298  20.944  0.00  0.00    +0.000 C 
ATOM     13  C   UNL     1       1.710   8.102  19.871  0.00  0.00    +0.000 A 
ATOM     14  C   UNL     1       1.284   9.379  20.234  0.00  0.00    +0.000 A 
ATOM     15  C   UNL     1       1.299  10.341  19.243  0.00  0.00    +0.000 A 
ATOM     16  C   UNL     1       1.655   9.993  17.939  0.00  0.00    +0.000 A 
ATOM     17  C   UNL     1       2.073   8.677  17.592  0.00  0.00    +0.000 A 
ATOM     18  C   UNL     1       2.180   7.688  18.604  0.00  0.00    +0.000 A 
ENDBRANCH   2   9
BRANCH   1  23
ATOM     19  C   UNL     1       7.390   7.497  17.700  0.00  0.00    +0.000 A 
ATOM     20  C   UNL     1       8.206   6.962  18.691  0.00  0.00    +0.000 A 
ATOM     21  C   UNL     1       7.852   5.779  19.326  0.00  0.00    +0.000 A 
ATOM     22  C   UNL     1       6.642   5.148  19.010  0.00  0.00    +0.000 A 
ATOM     23  C   UNL     1       5.779   5.699  18.049  0.00  0.00    +0.000 A 
ATOM     24  C   UNL     1       6.194   6.853  17.369  0.00  0.00    +0.000 A 
BRANCH  19  26
ATOM     25  C   UNL     1       8.437   9.596  18.042  0.00  0.00    +0.000 C 
ATOM     26  O   UNL     1       7.847   8.664  17.143  0.00  0.00    +0.000 OA
ENDBRANCH  19  26
ENDBRANCH   1  23
TORSDOF 3
ENDMDL
