MODEL 1
REMARK VINA RESULT:      -7.1      0.000      0.000
REMARK  Name = 
REMARK  8 active torsions:
REMARK  status: ('A' for Active; 'I' for Inactive)
REMARK    1  A    between atoms: N_6  and  C_7
REMARK    2  A    between atoms: C_7  and  O_8
REMARK    3  A    between atoms: O_8  and  C_9
REMARK    4  A    between atoms: C_9  and  C_10
REMARK    5  A    between atoms: C_10  and  O_11
REMARK    6  A    between atoms: N_15  and  C_16
REMARK    7  A    between atoms: C_16  and  C_17
REMARK    8  A    between atoms: C_23  and  C_24
REMARK                            x       y       z     vdW  Elec       q    Type
REMARK                         _______ _______ _______ _____ _____    ______ ____
ROOT
ATOM      1  O   UNL     1       0.365   8.516  21.537  0.00  0.00    +0.000 OA
ATOM      2  C   UNL     1       0.970   8.889  20.539  0.00  0.00    +0.000 A 
ATOM      3  C   UNL     1       1.039  10.255  20.086  0.00  0.00    +0.000 A 
ATOM      4  N   UNL     1       0.456  11.352  20.662  0.00  0.00    +0.000 NA
ATOM      5  C   UNL     1       0.832  12.350  19.904  0.00  0.00    +0.000 A 
ATOM      6  N   UNL     1       1.638  11.940  18.865  0.00  0.00    +0.000 N 
ATOM      7  C   UNL     1       1.768  10.568  18.941  0.00  0.00    +0.000 A 
ATOM      8  N   UNL     1       2.449   9.698  18.117  0.00  0.00    +0.000 NA
ATOM      9  C   UNL     1       2.376   8.449  18.514  0.00  0.00    +0.000 A 
ATOM     10  N   UNL     1       2.902   7.242  17.993  0.00  0.00    +0.000 N 
ATOM     11  C   UNL     1       2.541   6.199  18.866  0.00  0.00    +0.000 A 
ATOM     12  C   UNL     1       1.800   6.699  19.869  0.00  0.00    +0.000 A 
ATOM     13  N   UNL     1       1.672   8.060  19.690  0.00  0.00    +0.000 N 
ENDROOT
BRANCH  11  14
ATOM     14  C   UNL     1       2.866   4.775  18.802  0.00  0.00    +0.000 A 
ATOM     15  C   UNL     1       3.955   4.265  19.523  0.00  0.00    +0.000 A 
ATOM     16  C   UNL     1       4.406   2.959  19.306  0.00  0.00    +0.000 A 
ATOM     17  C   UNL     1       3.777   2.149  18.361  0.00  0.00    +0.000 A 
ATOM     18  C   UNL     1       2.698   2.646  17.633  0.00  0.00    +0.000 A 
ATOM     19  C   UNL     1       2.249   3.955  17.848  0.00  0.00    +0.000 A 
ENDBRANCH  11  14
BRANCH   6  20
ATOM     20  C   UNL     1       2.208  12.886  17.927  0.00  0.00    +0.000 C 
BRANCH  20  21
ATOM     21  O   UNL     1       3.256  13.656  18.554  0.00  0.00    +0.000 OA
BRANCH  21  22
ATOM     22  C   UNL     1       2.943  15.055  18.610  0.00  0.00    +0.000 C 
BRANCH  22  23
ATOM     23  C   UNL     1       3.484  15.785  17.380  0.00  0.00    +0.000 C 
BRANCH  23  24
ATOM     24  O   UNL     1       3.206  17.181  17.434  0.00  0.00    +0.000 OA
ATOM     25  H   UNL     1       2.312  17.272  17.810  0.00  0.00    +0.000 HD
ENDBRANCH  23  24
ENDBRANCH  22  23
ENDBRANCH  21  22
ENDBRANCH  20  21
ENDBRANCH   6  20
BRANCH  10  26
ATOM     26  C   UNL     1       3.683   7.103  16.776  0.00  0.00    +0.000 C 
BRANCH  26  27
ATOM     27  C   UNL     1       4.978   6.315  16.912  0.00  0.00    +0.000 A 
ATOM     28  C   UNL     1       6.006   6.657  17.801  0.00  0.00    +0.000 A 
ATOM     29  C   UNL     1       7.146   5.857  17.925  0.00  0.00    +0.000 A 
ATOM     30  C   UNL     1       7.285   4.705  17.157  0.00  0.00    +0.000 A 
ATOM     31  C   UNL     1       6.294   4.364  16.241  0.00  0.00    +0.000 A 
ATOM     32  C   UNL     1       5.155   5.166  16.113  0.00  0.00    +0.000 A 
ENDBRANCH  26  27
ENDBRANCH  10  26
TORSDOF 8
ENDMDL
MODEL 2
REMARK VINA RESULT:      -7.1      2.585      4.819
REMARK  Name = 
REMARK  8 active torsions:
REMARK  status: ('A' for Active; 'I' for Inactive)
REMARK    1  A    between atoms: N_6  and  C_7
REMARK    2  A    between atoms: C_7  and  O_8
REMARK    3  A    between atoms: O_8  and  C_9
REMARK    4  A    between atoms: C_9  and  C_10
REMARK    5  A    between atoms: C_10  and  O_11
REMARK    6  A    between atoms: N_15  and  C_16
REMARK    7  A    between atoms: C_16  and  C_17
REMARK    8  A    between atoms: C_23  and  C_24
REMARK                            x       y       z     vdW  Elec       q    Type
REMARK                         _______ _______ _______ _____ _____    ______ ____
ROOT
ATOM      1  O   UNL     1       1.812  10.697  17.446  0.00  0.00    +0.000 OA
ATOM      2  C   UNL     1       1.525  10.165  18.512  0.00  0.00    +0.000 A 
ATOM      3  C   UNL     1       0.746  10.787  19.553  0.00  0.00    +0.000 A 
ATOM      4  N   UNL     1       0.207  12.045  19.548  0.00  0.00    +0.000 NA
ATOM      5  C   UNL     1      -0.425  12.127  20.692  0.00  0.00    +0.000 A 
ATOM      6  N   UNL     1      -0.318  10.969  21.430  0.00  0.00    +0.000 N 
ATOM      7  C   UNL     1       0.468  10.082  20.722  0.00  0.00    +0.000 A 
ATOM      8  N   UNL     1       0.882   8.810  21.053  0.00  0.00    +0.000 NA
ATOM      9  C   UNL     1       1.608   8.245  20.116  0.00  0.00    +0.000 A 
ATOM     10  N   UNL     1       2.237   6.980  20.020  0.00  0.00    +0.000 N 
ATOM     11  C   UNL     1       2.847   6.895  18.754  0.00  0.00    +0.000 A 
ATOM     12  C   UNL     1       2.651   8.047  18.091  0.00  0.00    +0.000 A 
ATOM     13  N   UNL     1       1.908   8.895  18.885  0.00  0.00    +0.000 N 
ENDROOT
BRANCH  11  14
ATOM     14  C   UNL     1       3.588   5.790  18.149  0.00  0.00    +0.000 A 
ATOM     15  C   UNL     1       2.927   4.853  17.341  0.00  0.00    +0.000 A 
ATOM     16  C   UNL     1       3.572   3.681  16.935  0.00  0.00    +0.000 A 
ATOM     17  C   UNL     1       4.883   3.427  17.335  0.00  0.00    +0.000 A 
ATOM     18  C   UNL     1       5.549   4.346  18.144  0.00  0.00    +0.000 A 
ATOM     19  C   UNL     1       4.902   5.519  18.554  0.00  0.00    +0.000 A 
ENDBRANCH  11  14
BRANCH   6  20
ATOM     20  C   UNL     1      -0.980  10.822  22.711  0.00  0.00    +0.000 C 
BRANCH  20  21
ATOM     21  O   UNL     1      -1.538  12.082  23.143  0.00  0.00    +0.000 OA
BRANCH  21  22
ATOM     22  C   UNL     1      -2.930  11.974  23.473  0.00  0.00    +0.000 C 
BRANCH  22  23
ATOM     23  C   UNL     1      -3.769  12.925  22.618  0.00  0.00    +0.000 C 
BRANCH  23  24
ATOM     24  O   UNL     1      -5.008  12.335  22.238  0.00  0.00    +0.000 OA
ATOM     25  H   UNL     1      -5.018  11.440  22.622  0.00  0.00    +0.000 HD
ENDBRANCH  23  24
ENDBRANCH  22  23
ENDBRANCH  21  22
ENDBRANCH  20  21
ENDBRANCH   6  20
BRANCH  10  26
ATOM     26  C   UNL     1       2.247   5.948  21.042  0.00  0.00    +0.000 C 
BRANCH  26  27
ATOM     27  C   UNL     1       1.955   4.536  20.553  0.00  0.00    +0.000 A 
ATOM     28  C   UNL     1       0.760   4.165  19.922  0.00  0.00    +0.000 A 
ATOM     29  C   UNL     1       0.575   2.865  19.439  0.00  0.00    +0.000 A 
ATOM     30  C   UNL     1       1.576   1.910  19.586  0.00  0.00    +0.000 A 
ATOM     31  C   UNL     1       2.757   2.245  20.243  0.00  0.00    +0.000 A 
ATOM     32  C   UNL     1       2.941   3.544  20.730  0.00  0.00    +0.000 A 
ENDBRANCH  26  27
ENDBRANCH  10  26
TORSDOF 8
ENDMDL
MODEL 3
REMARK VINA RESULT:      -7.0      0.710      1.415
REMARK  Name = 
REMARK  8 active torsions:
REMARK  status: ('A' for Active; 'I' for Inactive)
REMARK    1  A    between atoms: N_6  and  C_7
REMARK    2  A    between atoms: C_7  and  O_8
REMARK    3  A    between atoms: O_8  and  C_9
REMARK    4  A    between atoms: C_9  and  C_10
REMARK    5  A    between atoms: C_10  and  O_11
REMARK    6  A    between atoms: N_15  and  C_16
REMARK    7  A    between atoms: C_16  and  C_17
REMARK    8  A    between atoms: C_23  and  C_24
REMARK                            x       y       z     vdW  Elec       q    Type
REMARK                         _______ _______ _______ _____ _____    ______ ____
ROOT
ATOM      1  O   UNL     1       0.422   8.085  21.550  0.00  0.00    +0.000 OA
ATOM      2  C   UNL     1       1.008   8.533  20.571  0.00  0.00    +0.000 A 
ATOM      3  C   UNL     1       1.010   9.921  20.184  0.00  0.00    +0.000 A 
ATOM      4  N   UNL     1       0.376  10.960  20.810  0.00  0.00    +0.000 NA
ATOM      5  C   UNL     1       0.703  12.010  20.100  0.00  0.00    +0.000 A 
ATOM      6  N   UNL     1       1.527  11.689  19.044  0.00  0.00    +0.000 N 
ATOM      7  C   UNL     1       1.723  10.322  19.055  0.00  0.00    +0.000 A 
ATOM      8  N   UNL     1       2.444   9.526  18.192  0.00  0.00    +0.000 NA
ATOM      9  C   UNL     1       2.430   8.257  18.530  0.00  0.00    +0.000 A 
ATOM     10  N   UNL     1       3.013   7.103  17.952  0.00  0.00    +0.000 N 
ATOM     11  C   UNL     1       2.703   6.003  18.774  0.00  0.00    +0.000 A 
ATOM     12  C   UNL     1       1.940   6.420  19.799  0.00  0.00    +0.000 A 
ATOM     13  N   UNL     1       1.747   7.780  19.684  0.00  0.00    +0.000 N 
ENDROOT
BRANCH  11  14
ATOM     14  C   UNL     1       3.096   4.602  18.644  0.00  0.00    +0.000 A 
ATOM     15  C   UNL     1       2.385   3.744  17.792  0.00  0.00    +0.000 A 
ATOM     16  C   UNL     1       2.612   2.364  17.819  0.00  0.00    +0.000 A 
ATOM     17  C   UNL     1       3.547   1.824  18.702  0.00  0.00    +0.000 A 
ATOM     18  C   UNL     1       4.255   2.665  19.558  0.00  0.00    +0.000 A 
ATOM     19  C   UNL     1       4.027   4.046  19.533  0.00  0.00    +0.000 A 
ENDBRANCH  11  14
BRANCH   6  20
ATOM     20  C   UNL     1       2.050  12.704  18.152  0.00  0.00    +0.000 C 
BRANCH  20  21
ATOM     21  O   UNL     1       1.407  13.975  18.397  0.00  0.00    +0.000 OA
BRANCH  21  22
ATOM     22  C   UNL     1       2.353  15.045  18.527  0.00  0.00    +0.000 C 
BRANCH  22  23
ATOM     23  C   UNL     1       3.787  14.520  18.439  0.00  0.00    +0.000 C 
BRANCH  23  24
ATOM     24  O   UNL     1       4.456  15.010  17.280  0.00  0.00    +0.000 OA
ATOM     25  H   UNL     1       4.115  15.909  17.123  0.00  0.00    +0.000 HD
ENDBRANCH  23  24
ENDBRANCH  22  23
ENDBRANCH  21  22
ENDBRANCH  20  21
ENDBRANCH   6  20
BRANCH  10  26
ATOM     26  C   UNL     1       3.799   7.059  16.732  0.00  0.00    +0.000 C 
BRANCH  26  27
ATOM     27  C   UNL     1       5.042   6.182  16.780  0.00  0.00    +0.000 A 
ATOM     28  C   UNL     1       5.210   5.029  16.002  0.00  0.00    +0.000 A 
ATOM     29  C   UNL     1       6.402   4.299  16.045  0.00  0.00    +0.000 A 
ATOM     30  C   UNL     1       7.445   4.702  16.874  0.00  0.00    +0.000 A 
ATOM     31  C   UNL     1       7.288   5.823  17.684  0.00  0.00    +0.000 A 
ATOM     32  C   UNL     1       6.094   6.552  17.644  0.00  0.00    +0.000 A 
ENDBRANCH  26  27
ENDBRANCH  10  26
TORSDOF 8
ENDMDL
MODEL 4
REMARK VINA RESULT:      -6.8      2.417      4.665
REMARK  Name = 
REMARK  8 active torsions:
REMARK  status: ('A' for Active; 'I' for Inactive)
REMARK    1  A    between atoms: N_6  and  C_7
REMARK    2  A    between atoms: C_7  and  O_8
REMARK    3  A    between atoms: O_8  and  C_9
REMARK    4  A    between atoms: C_9  and  C_10
REMARK    5  A    between atoms: C_10  and  O_11
REMARK    6  A    between atoms: N_15  and  C_16
REMARK    7  A    between atoms: C_16  and  C_17
REMARK    8  A    between atoms: C_23  and  C_24
REMARK                            x       y       z     vdW  Elec       q    Type
REMARK                         _______ _______ _______ _____ _____    ______ ____
ROOT
ATOM      1  O   UNL     1       2.135  10.411  17.135  0.00  0.00    +0.000 OA
ATOM      2  C   UNL     1       1.961   9.691  18.112  0.00  0.00    +0.000 A 
ATOM      3  C   UNL     1       1.089  10.007  19.215  0.00  0.00    +0.000 A 
ATOM      4  N   UNL     1       0.326  11.132  19.377  0.00  0.00    +0.000 NA
ATOM      5  C   UNL     1      -0.300  10.934  20.509  0.00  0.00    +0.000 A 
ATOM      6  N   UNL     1       0.026   9.724  21.081  0.00  0.00    +0.000 N 
ATOM      7  C   UNL     1       0.957   9.106  20.270  0.00  0.00    +0.000 A 
ATOM      8  N   UNL     1       1.603   7.899  20.428  0.00  0.00    +0.000 NA
ATOM      9  C   UNL     1       2.412   7.614  19.434  0.00  0.00    +0.000 A 
ATOM     10  N   UNL     1       3.264   6.514  19.174  0.00  0.00    +0.000 N 
ATOM     11  C   UNL     1       3.868   6.721  17.920  0.00  0.00    +0.000 A 
ATOM     12  C   UNL     1       3.456   7.898  17.420  0.00  0.00    +0.000 A 
ATOM     13  N   UNL     1       2.575   8.474  18.311  0.00  0.00    +0.000 N 
ENDROOT
BRANCH  11  14
ATOM     14  C   UNL     1       4.795   5.867  17.179  0.00  0.00    +0.000 A 
ATOM     15  C   UNL     1       4.310   4.827  16.374  0.00  0.00    +0.000 A 
ATOM     16  C   UNL     1       5.183   3.876  15.835  0.00  0.00    +0.000 A 
ATOM     17  C   UNL     1       6.550   3.950  16.100  0.00  0.00    +0.000 A 
ATOM     18  C   UNL     1       7.044   4.975  16.904  0.00  0.00    +0.000 A 
ATOM     19  C   UNL     1       6.171   5.925  17.446  0.00  0.00    +0.000 A 
ENDBRANCH  11  14
BRANCH   6  20
ATOM     20  C   UNL     1      -0.585   9.279  22.317  0.00  0.00    +0.000 C 
BRANCH  20  21
ATOM     21  O   UNL     1      -0.546  10.328  23.310  0.00  0.00    +0.000 OA
BRANCH  21  22
ATOM     22  C   UNL     1      -1.741  11.121  23.308  0.00  0.00    +0.000 C 
BRANCH  22  23
ATOM     23  C   UNL     1      -1.407  12.611  23.220  0.00  0.00    +0.000 C 
BRANCH  23  24
ATOM     24  O   UNL     1      -2.584  13.413  23.204  0.00  0.00    +0.000 OA
ATOM     25  H   UNL     1      -2.372  14.225  23.699  0.00  0.00    +0.000 HD
ENDBRANCH  23  24
ENDBRANCH  22  23
ENDBRANCH  21  22
ENDBRANCH  20  21
ENDBRANCH   6  20
BRANCH  10  26
ATOM     26  C   UNL     1       3.474   5.369  20.042  0.00  0.00    +0.000 C 
BRANCH  26  27
ATOM     27  C   UNL     1       2.761   4.089  19.627  0.00  0.00    +0.000 A 
ATOM     28  C   UNL     1       1.366   3.949  19.609  0.00  0.00    +0.000 A 
ATOM     29  C   UNL     1       0.768   2.767  19.158  0.00  0.00    +0.000 A 
ATOM     30  C   UNL     1       1.552   1.702  18.725  0.00  0.00    +0.000 A 
ATOM     31  C   UNL     1       2.939   1.805  18.769  0.00  0.00    +0.000 A 
ATOM     32  C   UNL     1       3.539   2.984  19.223  0.00  0.00    +0.000 A 
ENDBRANCH  26  27
ENDBRANCH  10  26
TORSDOF 8
ENDMDL
MODEL 5
REMARK VINA RESULT:      -6.8      0.571      1.035
REMARK  Name = 
REMARK  8 active torsions:
REMARK  status: ('A' for Active; 'I' for Inactive)
REMARK    1  A    between atoms: N_6  and  C_7
REMARK    2  A    between atoms: C_7  and  O_8
REMARK    3  A    between atoms: O_8  and  C_9
REMARK    4  A    between atoms: C_9  and  C_10
REMARK    5  A    between atoms: C_10  and  O_11
REMARK    6  A    between atoms: N_15  and  C_16
REMARK    7  A    between atoms: C_16  and  C_17
REMARK    8  A    between atoms: C_23  and  C_24
REMARK                            x       y       z     vdW  Elec       q    Type
REMARK                         _______ _______ _______ _____ _____    ______ ____
ROOT
ATOM      1  O   UNL     1       0.452   8.383  21.964  0.00  0.00    +0.000 OA
ATOM      2  C   UNL     1       0.932   8.805  20.919  0.00  0.00    +0.000 A 
ATOM      3  C   UNL     1       0.880  10.181  20.492  0.00  0.00    +0.000 A 
ATOM      4  N   UNL     1       0.302  11.234  21.148  0.00  0.00    +0.000 NA
ATOM      5  C   UNL     1       0.545  12.264  20.378  0.00  0.00    +0.000 A 
ATOM      6  N   UNL     1       1.262  11.917  19.254  0.00  0.00    +0.000 N 
ATOM      7  C   UNL     1       1.472  10.553  19.286  0.00  0.00    +0.000 A 
ATOM      8  N   UNL     1       2.111   9.736  18.379  0.00  0.00    +0.000 NA
ATOM      9  C   UNL     1       2.145   8.478  18.753  0.00  0.00    +0.000 A 
ATOM     10  N   UNL     1       2.679   7.311  18.155  0.00  0.00    +0.000 N 
ATOM     11  C   UNL     1       2.465   6.235  19.036  0.00  0.00    +0.000 A 
ATOM     12  C   UNL     1       1.805   6.677  20.120  0.00  0.00    +0.000 A 
ATOM     13  N   UNL     1       1.586   8.031  19.985  0.00  0.00    +0.000 N 
ENDROOT
BRANCH  11  14
ATOM     14  C   UNL     1       2.858   4.833  18.908  0.00  0.00    +0.000 A 
ATOM     15  C   UNL     1       4.019   4.363  19.539  0.00  0.00    +0.000 A 
ATOM     16  C   UNL     1       4.519   3.088  19.252  0.00  0.00    +0.000 A 
ATOM     17  C   UNL     1       3.869   2.271  18.328  0.00  0.00    +0.000 A 
ATOM     18  C   UNL     1       2.719   2.729  17.690  0.00  0.00    +0.000 A 
ATOM     19  C   UNL     1       2.219   4.006  17.974  0.00  0.00    +0.000 A 
ENDBRANCH  11  14
BRANCH   6  20
ATOM     20  C   UNL     1       1.681  12.909  18.285  0.00  0.00    +0.000 C 
BRANCH  20  21
ATOM     21  O   UNL     1       3.028  13.352  18.561  0.00  0.00    +0.000 OA
BRANCH  21  22
ATOM     22  C   UNL     1       3.057  14.656  19.159  0.00  0.00    +0.000 C 
BRANCH  22  23
ATOM     23  C   UNL     1       3.169  15.744  18.090  0.00  0.00    +0.000 C 
BRANCH  23  24
ATOM     24  O   UNL     1       3.914  15.297  16.961  0.00  0.00    +0.000 OA
ATOM     25  H   UNL     1       3.761  14.338  16.890  0.00  0.00    +0.000 HD
ENDBRANCH  23  24
ENDBRANCH  22  23
ENDBRANCH  21  22
ENDBRANCH  20  21
ENDBRANCH   6  20
BRANCH  10  26
ATOM     26  C   UNL     1       3.338   7.236  16.863  0.00  0.00    +0.000 C 
BRANCH  26  27
ATOM     27  C   UNL     1       4.684   6.524  16.851  0.00  0.00    +0.000 A 
ATOM     28  C   UNL     1       4.956   5.391  16.073  0.00  0.00    +0.000 A 
ATOM     29  C   UNL     1       6.232   4.818  16.057  0.00  0.00    +0.000 A 
ATOM     30  C   UNL     1       7.257   5.361  16.826  0.00  0.00    +0.000 A 
ATOM     31  C   UNL     1       7.001   6.464  17.636  0.00  0.00    +0.000 A 
ATOM     32  C   UNL     1       5.724   7.036  17.655  0.00  0.00    +0.000 A 
ENDBRANCH  26  27
ENDBRANCH  10  26
TORSDOF 8
ENDMDL
MODEL 6
REMARK VINA RESULT:      -6.8      2.466      4.647
REMARK  Name = 
REMARK  8 active torsions:
REMARK  status: ('A' for Active; 'I' for Inactive)
REMARK    1  A    between atoms: N_6  and  C_7
REMARK    2  A    between atoms: C_7  and  O_8
REMARK    3  A    between atoms: O_8  and  C_9
REMARK    4  A    between atoms: C_9  and  C_10
REMARK    5  A    between atoms: C_10  and  O_11
REMARK    6  A    between atoms: N_15  and  C_16
REMARK    7  A    between atoms: C_16  and  C_17
REMARK    8  A    between atoms: C_23  and  C_24
REMARK                            x       y       z     vdW  Elec       q    Type
REMARK                         _______ _______ _______ _____ _____    ______ ____
ROOT
ATOM      1  O   UNL     1       2.099  10.635  17.231  0.00  0.00    +0.000 OA
ATOM      2  C   UNL     1       1.722  10.137  18.286  0.00  0.00    +0.000 A 
ATOM      3  C   UNL     1       0.878  10.800  19.248  0.00  0.00    +0.000 A 
ATOM      4  N   UNL     1       0.364  12.066  19.170  0.00  0.00    +0.000 NA
ATOM      5  C   UNL     1      -0.351  12.189  20.259  0.00  0.00    +0.000 A 
ATOM      6  N   UNL     1      -0.322  11.050  21.033  0.00  0.00    +0.000 N 
ATOM      7  C   UNL     1       0.499  10.131  20.410  0.00  0.00    +0.000 A 
ATOM      8  N   UNL     1       0.864   8.862  20.805  0.00  0.00    +0.000 NA
ATOM      9  C   UNL     1       1.648   8.260  19.941  0.00  0.00    +0.000 A 
ATOM     10  N   UNL     1       2.260   6.983  19.926  0.00  0.00    +0.000 N 
ATOM     11  C   UNL     1       2.963   6.854  18.713  0.00  0.00    +0.000 A 
ATOM     12  C   UNL     1       2.838   7.990  18.007  0.00  0.00    +0.000 A 
ATOM     13  N   UNL     1       2.052   8.871  18.720  0.00  0.00    +0.000 N 
ENDROOT
BRANCH  11  14
ATOM     14  C   UNL     1       3.726   5.721  18.195  0.00  0.00    +0.000 A 
ATOM     15  C   UNL     1       5.114   5.653  18.390  0.00  0.00    +0.000 A 
ATOM     16  C   UNL     1       5.882   4.694  17.722  0.00  0.00    +0.000 A 
ATOM     17  C   UNL     1       5.275   3.796  16.846  0.00  0.00    +0.000 A 
ATOM     18  C   UNL     1       3.899   3.857  16.638  0.00  0.00    +0.000 A 
ATOM     19  C   UNL     1       3.129   4.818  17.304  0.00  0.00    +0.000 A 
ENDBRANCH  11  14
BRANCH   6  20
ATOM     20  C   UNL     1      -1.081  10.948  22.263  0.00  0.00    +0.000 C 
BRANCH  20  21
ATOM     21  O   UNL     1      -0.700  11.993  23.184  0.00  0.00    +0.000 OA
BRANCH  21  22
ATOM     22  C   UNL     1      -1.773  12.911  23.437  0.00  0.00    +0.000 C 
BRANCH  22  23
ATOM     23  C   UNL     1      -3.112  12.320  22.995  0.00  0.00    +0.000 C 
BRANCH  23  24
ATOM     24  O   UNL     1      -3.932  11.984  24.110  0.00  0.00    +0.000 OA
ATOM     25  H   UNL     1      -3.568  12.462  24.877  0.00  0.00    +0.000 HD
ENDBRANCH  23  24
ENDBRANCH  22  23
ENDBRANCH  21  22
ENDBRANCH  20  21
ENDBRANCH   6  20
BRANCH  10  26
ATOM     26  C   UNL     1       2.173   5.979  20.972  0.00  0.00    +0.000 C 
BRANCH  26  27
ATOM     27  C   UNL     1       2.065   4.538  20.493  0.00  0.00    +0.000 A 
ATOM     28  C   UNL     1       3.091   3.594  20.634  0.00  0.00    +0.000 A 
ATOM     29  C   UNL     1       2.909   2.267  20.230  0.00  0.00    +0.000 A 
ATOM     30  C   UNL     1       1.701   1.862  19.670  0.00  0.00    +0.000 A 
ATOM     31  C   UNL     1       0.680   2.790  19.486  0.00  0.00    +0.000 A 
ATOM     32  C   UNL     1       0.863   4.118  19.886  0.00  0.00    +0.000 A 
ENDBRANCH  26  27
ENDBRANCH  10  26
TORSDOF 8
ENDMDL
MODEL 7
REMARK VINA RESULT:      -6.8      2.426      4.611
REMARK  Name = 
REMARK  8 active torsions:
REMARK  status: ('A' for Active; 'I' for Inactive)
REMARK    1  A    between atoms: N_6  and  C_7
REMARK    2  A    between atoms: C_7  and  O_8
REMARK    3  A    between atoms: O_8  and  C_9
REMARK    4  A    between atoms: C_9  and  C_10
REMARK    5  A    between atoms: C_10  and  O_11
REMARK    6  A    between atoms: N_15  and  C_16
REMARK    7  A    between atoms: C_16  and  C_17
REMARK    8  A    between atoms: C_23  and  C_24
REMARK                            x       y       z     vdW  Elec       q    Type
REMARK                         _______ _______ _______ _____ _____    ______ ____
ROOT
ATOM      1  O   UNL     1       2.346  10.322  17.127  0.00  0.00    +0.000 OA
ATOM      2  C   UNL     1       2.090   9.629  18.105  0.00  0.00    +0.000 A 
ATOM      3  C   UNL     1       1.183  10.006  19.159  0.00  0.00    +0.000 A 
ATOM      4  N   UNL     1       0.467  11.168  19.265  0.00  0.00    +0.000 NA
ATOM      5  C   UNL     1      -0.221  11.021  20.369  0.00  0.00    +0.000 A 
ATOM      6  N   UNL     1       0.019   9.808  20.975  0.00  0.00    +0.000 N 
ATOM      7  C   UNL     1       0.956   9.132  20.221  0.00  0.00    +0.000 A 
ATOM      8  N   UNL     1       1.535   7.899  20.429  0.00  0.00    +0.000 NA
ATOM      9  C   UNL     1       2.377   7.558  19.481  0.00  0.00    +0.000 A 
ATOM     10  N   UNL     1       3.187   6.414  19.280  0.00  0.00    +0.000 N 
ATOM     11  C   UNL     1       3.860   6.569  18.054  0.00  0.00    +0.000 A 
ATOM     12  C   UNL     1       3.529   7.755  17.516  0.00  0.00    +0.000 A 
ATOM     13  N   UNL     1       2.636   8.389  18.353  0.00  0.00    +0.000 N 
ENDROOT
BRANCH  11  14
ATOM     14  C   UNL     1       4.780   5.659  17.374  0.00  0.00    +0.000 A 
ATOM     15  C   UNL     1       6.139   5.637  17.720  0.00  0.00    +0.000 A 
ATOM     16  C   UNL     1       7.062   4.934  16.939  0.00  0.00    +0.000 A 
ATOM     17  C   UNL     1       6.640   4.250  15.799  0.00  0.00    +0.000 A 
ATOM     18  C   UNL     1       5.294   4.271  15.441  0.00  0.00    +0.000 A 
ATOM     19  C   UNL     1       4.369   4.977  16.221  0.00  0.00    +0.000 A 
ENDBRANCH  11  14
BRANCH   6  20
ATOM     20  C   UNL     1      -0.672   9.415  22.186  0.00  0.00    +0.000 C 
BRANCH  20  21
ATOM     21  O   UNL     1      -0.559  10.444  23.193  0.00  0.00    +0.000 OA
BRANCH  21  22
ATOM     22  C   UNL     1      -1.728  11.274  23.253  0.00  0.00    +0.000 C 
BRANCH  22  23
ATOM     23  C   UNL     1      -1.350  12.755  23.187  0.00  0.00    +0.000 C 
BRANCH  23  24
ATOM     24  O   UNL     1      -2.373  13.583  23.732  0.00  0.00    +0.000 OA
ATOM     25  H   UNL     1      -2.165  14.495  23.460  0.00  0.00    +0.000 HD
ENDBRANCH  23  24
ENDBRANCH  22  23
ENDBRANCH  21  22
ENDBRANCH  20  21
ENDBRANCH   6  20
BRANCH  10  26
ATOM     26  C   UNL     1       3.299   5.276  20.176  0.00  0.00    +0.000 C 
BRANCH  26  27
ATOM     27  C   UNL     1       2.740   3.964  19.645  0.00  0.00    +0.000 A 
ATOM     28  C   UNL     1       3.540   2.915  19.170  0.00  0.00    +0.000 A 
ATOM     29  C   UNL     1       2.969   1.708  18.752  0.00  0.00    +0.000 A 
ATOM     30  C   UNL     1       1.590   1.529  18.794  0.00  0.00    +0.000 A 
ATOM     31  C   UNL     1       0.773   2.569  19.228  0.00  0.00    +0.000 A 
ATOM     32  C   UNL     1       1.342   3.779  19.642  0.00  0.00    +0.000 A 
ENDBRANCH  26  27
ENDBRANCH  10  26
TORSDOF 8
ENDMDL
MODEL 8
REMARK VINA RESULT:      -6.8      3.806      5.957
REMARK  Name = 
REMARK  8 active torsions:
REMARK  status: ('A' for Active; 'I' for Inactive)
REMARK    1  A    between atoms: N_6  and  C_7
REMARK    2  A    between atoms: C_7  and  O_8
REMARK    3  A    between atoms: O_8  and  C_9
REMARK    4  A    between atoms: C_9  and  C_10
REMARK    5  A    between atoms: C_10  and  O_11
REMARK    6  A    between atoms: N_15  and  C_16
REMARK    7  A    between atoms: C_16  and  C_17
REMARK    8  A    between atoms: C_23  and  C_24
REMARK                            x       y       z     vdW  Elec       q    Type
REMARK                         _______ _______ _______ _____ _____    ______ ____
ROOT
ATOM      1  O   UNL     1       2.341   1.962  17.661  0.00  0.00    +0.000 OA
ATOM      2  C   UNL     1       2.640   3.121  17.922  0.00  0.00    +0.000 A 
ATOM      3  C   UNL     1       2.104   3.875  19.027  0.00  0.00    +0.000 A 
ATOM      4  N   UNL     1       1.188   3.455  19.954  0.00  0.00    +0.000 NA
ATOM      5  C   UNL     1       1.050   4.480  20.756  0.00  0.00    +0.000 A 
ATOM      6  N   UNL     1       1.845   5.542  20.385  0.00  0.00    +0.000 N 
ATOM      7  C   UNL     1       2.526   5.186  19.239  0.00  0.00    +0.000 A 
ATOM      8  N   UNL     1       3.414   5.914  18.477  0.00  0.00    +0.000 NA
ATOM      9  C   UNL     1       3.893   5.238  17.458  0.00  0.00    +0.000 A 
ATOM     10  N   UNL     1       4.807   5.570  16.428  0.00  0.00    +0.000 N 
ATOM     11  C   UNL     1       4.988   4.428  15.625  0.00  0.00    +0.000 A 
ATOM     12  C   UNL     1       4.213   3.434  16.089  0.00  0.00    +0.000 A 
ATOM     13  N   UNL     1       3.528   3.886  17.197  0.00  0.00    +0.000 N 
ENDROOT
BRANCH  11  14
ATOM     14  C   UNL     1       5.853   4.234  14.464  0.00  0.00    +0.000 A 
ATOM     15  C   UNL     1       7.045   4.964  14.338  0.00  0.00    +0.000 A 
ATOM     16  C   UNL     1       7.768   4.947  13.141  0.00  0.00    +0.000 A 
ATOM     17  C   UNL     1       7.307   4.207  12.053  0.00  0.00    +0.000 A 
ATOM     18  C   UNL     1       6.121   3.483  12.163  0.00  0.00    +0.000 A 
ATOM     19  C   UNL     1       5.395   3.502  13.360  0.00  0.00    +0.000 A 
ENDBRANCH  11  14
BRANCH   6  20
ATOM     20  C   UNL     1       1.886   6.766  21.159  0.00  0.00    +0.000 C 
BRANCH  20  21
ATOM     21  O   UNL     1       0.973   7.744  20.614  0.00  0.00    +0.000 OA
BRANCH  21  22
ATOM     22  C   UNL     1       1.020   8.987  21.327  0.00  0.00    +0.000 C 
BRANCH  22  23
ATOM     23  C   UNL     1      -0.122   9.079  22.340  0.00  0.00    +0.000 C 
BRANCH  23  24
ATOM     24  O   UNL     1       0.227   9.897  23.453  0.00  0.00    +0.000 OA
ATOM     25  H   UNL     1       0.732   9.332  24.064  0.00  0.00    +0.000 HD
ENDBRANCH  23  24
ENDBRANCH  22  23
ENDBRANCH  21  22
ENDBRANCH  20  21
ENDBRANCH   6  20
BRANCH  10  26
ATOM     26  C   UNL     1       5.451   6.857  16.237  0.00  0.00    +0.000 C 
BRANCH  26  27
ATOM     27  C   UNL     1       6.564   7.188  17.222  0.00  0.00    +0.000 A 
ATOM     28  C   UNL     1       7.125   6.254  18.103  0.00  0.00    +0.000 A 
ATOM     29  C   UNL     1       8.188   6.603  18.942  0.00  0.00    +0.000 A 
ATOM     30  C   UNL     1       8.706   7.895  18.921  0.00  0.00    +0.000 A 
ATOM     31  C   UNL     1       8.141   8.850  18.082  0.00  0.00    +0.000 A 
ATOM     32  C   UNL     1       7.075   8.503  17.245  0.00  0.00    +0.000 A 
ENDBRANCH  26  27
ENDBRANCH  10  26
TORSDOF 8
ENDMDL
MODEL 9
REMARK VINA RESULT:      -6.7      2.697      5.005
REMARK  Name = 
REMARK  8 active torsions:
REMARK  status: ('A' for Active; 'I' for Inactive)
REMARK    1  A    between atoms: N_6  and  C_7
REMARK    2  A    between atoms: C_7  and  O_8
REMARK    3  A    between atoms: O_8  and  C_9
REMARK    4  A    between atoms: C_9  and  C_10
REMARK    5  A    between atoms: C_10  and  O_11
REMARK    6  A    between atoms: N_15  and  C_16
REMARK    7  A    between atoms: C_16  and  C_17
REMARK    8  A    between atoms: C_23  and  C_24
REMARK                            x       y       z     vdW  Elec       q    Type
REMARK                         _______ _______ _______ _____ _____    ______ ____
ROOT
ATOM      1  O   UNL     1       1.849  10.721  17.350  0.00  0.00    +0.000 OA
ATOM      2  C   UNL     1       1.503  10.231  18.419  0.00  0.00    +0.000 A 
ATOM      3  C   UNL     1       0.674  10.896  19.393  0.00  0.00    +0.000 A 
ATOM      4  N   UNL     1       0.142  12.154  19.312  0.00  0.00    +0.000 NA
ATOM      5  C   UNL     1      -0.548  12.282  20.417  0.00  0.00    +0.000 A 
ATOM      6  N   UNL     1      -0.486  11.153  21.204  0.00  0.00    +0.000 N 
ATOM      7  C   UNL     1       0.331  10.237  20.572  0.00  0.00    +0.000 A 
ATOM      8  N   UNL     1       0.721   8.978  20.973  0.00  0.00    +0.000 NA
ATOM      9  C   UNL     1       1.492   8.374  20.098  0.00  0.00    +0.000 A 
ATOM     10  N   UNL     1       2.119   7.105  20.084  0.00  0.00    +0.000 N 
ATOM     11  C   UNL     1       2.795   6.969  18.857  0.00  0.00    +0.000 A 
ATOM     12  C   UNL     1       2.639   8.095  18.140  0.00  0.00    +0.000 A 
ATOM     13  N   UNL     1       1.859   8.975  18.861  0.00  0.00    +0.000 N 
ENDROOT
BRANCH  11  14
ATOM     14  C   UNL     1       3.560   5.839  18.334  0.00  0.00    +0.000 A 
ATOM     15  C   UNL     1       2.951   4.904  17.485  0.00  0.00    +0.000 A 
ATOM     16  C   UNL     1       3.603   3.712  17.153  0.00  0.00    +0.000 A 
ATOM     17  C   UNL     1       4.869   3.437  17.670  0.00  0.00    +0.000 A 
ATOM     18  C   UNL     1       5.481   4.355  18.521  0.00  0.00    +0.000 A 
ATOM     19  C   UNL     1       4.828   5.547  18.856  0.00  0.00    +0.000 A 
ENDBRANCH  11  14
BRANCH   6  20
ATOM     20  C   UNL     1      -1.215  11.057  22.452  0.00  0.00    +0.000 C 
BRANCH  20  21
ATOM     21  O   UNL     1      -2.373  11.920  22.432  0.00  0.00    +0.000 OA
BRANCH  21  22
ATOM     22  C   UNL     1      -2.695  12.425  23.736  0.00  0.00    +0.000 C 
BRANCH  22  23
ATOM     23  C   UNL     1      -4.203  12.633  23.884  0.00  0.00    +0.000 C 
BRANCH  23  24
ATOM     24  O   UNL     1      -4.757  11.774  24.876  0.00  0.00    +0.000 OA
ATOM     25  H   UNL     1      -5.708  11.979  24.920  0.00  0.00    +0.000 HD
ENDBRANCH  23  24
ENDBRANCH  22  23
ENDBRANCH  21  22
ENDBRANCH  20  21
ENDBRANCH   6  20
BRANCH  10  26
ATOM     26  C   UNL     1       2.070   6.113  21.144  0.00  0.00    +0.000 C 
BRANCH  26  27
ATOM     27  C   UNL     1       1.903   4.671  20.687  0.00  0.00    +0.000 A 
ATOM     28  C   UNL     1       2.813   3.649  20.994  0.00  0.00    +0.000 A 
ATOM     29  C   UNL     1       2.573   2.329  20.598  0.00  0.00    +0.000 A 
ATOM     30  C   UNL     1       1.424   2.007  19.882  0.00  0.00    +0.000 A 
ATOM     31  C   UNL     1       0.524   3.010  19.534  0.00  0.00    +0.000 A 
ATOM     32  C   UNL     1       0.765   4.331  19.926  0.00  0.00    +0.000 A 
ENDBRANCH  26  27
ENDBRANCH  10  26
TORSDOF 8
ENDMDL
