MODEL 1
REMARK VINA RESULT:      -8.0      0.000      0.000
REMARK  Name = 
REMARK  4 active torsions:
REMARK  status: ('A' for Active; 'I' for Inactive)
REMARK    1  A    between atoms: C_2  and  C_3
REMARK    2  A    between atoms: C_2  and  C_11
REMARK    3  A    between atoms: C_3  and  N_4
REMARK    4  A    between atoms: C_14  and  C_15
REMARK                            x       y       z     vdW  Elec       q    Type
REMARK                         _______ _______ _______ _____ _____    ______ ____
ROOT
ATOM      1  C   UNL     1       2.665   5.312  18.639  0.00  0.00    +0.000 A 
ATOM      2  C   UNL     1       2.240   5.207  19.963  0.00  0.00    +0.000 A 
ATOM      3  C   UNL     1       1.810   6.352  20.653  0.00  0.00    +0.000 A 
ATOM      4  C   UNL     1       1.795   7.624  20.050  0.00  0.00    +0.000 A 
ATOM      5  C   UNL     1       2.332   7.718  18.755  0.00  0.00    +0.000 A 
ATOM      6  C   UNL     1       2.744   6.580  18.052  0.00  0.00    +0.000 A 
ENDROOT
BRANCH   4   7
ATOM      7  C   UNL     1       1.139   8.784  20.704  0.00  0.00    +0.000 A 
ATOM      8  C   UNL     1       0.743   8.761  22.054  0.00  0.00    +0.000 A 
ATOM      9  C   UNL     1       0.020   9.818  22.621  0.00  0.00    +0.000 A 
ATOM     10  C   UNL     1      -0.307  10.935  21.859  0.00  0.00    +0.000 A 
ATOM     11  C   UNL     1       0.095  10.999  20.531  0.00  0.00    +0.000 A 
ATOM     12  C   UNL     1       0.804   9.936  19.963  0.00  0.00    +0.000 A 
ENDBRANCH   4   7
BRANCH   1  14
ATOM     13  O   UNL     1       2.010   3.715  17.057  0.00  0.00    +0.000 OA
ATOM     14  C   UNL     1       2.925   4.130  17.772  0.00  0.00    +0.000 C 
BRANCH  14  15
ATOM     15  C   UNL     1       4.275   3.451  17.758  0.00  0.00    +0.000 C 
BRANCH  15  16
ATOM     16  N   UNL     1       5.407   4.417  17.862  0.00  0.00    +0.000 N 
ATOM     17  C   UNL     1       5.884   4.721  19.102  0.00  0.00    +0.000 A 
ATOM     18  C   UNL     1       6.932   5.616  19.280  0.00  0.00    +0.000 A 
ATOM     19  C   UNL     1       7.526   6.201  18.177  0.00  0.00    +0.000 A 
ATOM     20  C   UNL     1       7.066   5.863  16.914  0.00  0.00    +0.000 A 
ATOM     21  C   UNL     1       6.003   4.962  16.763  0.00  0.00    +0.000 A 
ATOM     22 BR   UNL     1       5.520   4.544  14.970  0.00  0.00    +0.000 Br
ENDBRANCH  15  16
ENDBRANCH  14  15
ENDBRANCH   1  14
TORSDOF 4
ENDMDL
MODEL 2
REMARK VINA RESULT:      -7.9      0.132      1.030
REMARK  Name = 
REMARK  4 active torsions:
REMARK  status: ('A' for Active; 'I' for Inactive)
REMARK    1  A    between atoms: C_2  and  C_3
REMARK    2  A    between atoms: C_2  and  C_11
REMARK    3  A    between atoms: C_3  and  N_4
REMARK    4  A    between atoms: C_14  and  C_15
REMARK                            x       y       z     vdW  Elec       q    Type
REMARK                         _______ _______ _______ _____ _____    ______ ____
ROOT
ATOM      1  C   UNL     1       2.659   5.359  18.707  0.00  0.00    +0.000 A 
ATOM      2  C   UNL     1       2.181   5.253  20.013  0.00  0.00    +0.000 A 
ATOM      3  C   UNL     1       1.700   6.394  20.677  0.00  0.00    +0.000 A 
ATOM      4  C   UNL     1       1.685   7.661  20.064  0.00  0.00    +0.000 A 
ATOM      5  C   UNL     1       2.273   7.758  18.791  0.00  0.00    +0.000 A 
ATOM      6  C   UNL     1       2.736   6.624  18.114  0.00  0.00    +0.000 A 
ENDROOT
BRANCH   4   7
ATOM      7  C   UNL     1       0.979   8.812  20.683  0.00  0.00    +0.000 A 
ATOM      8  C   UNL     1       0.777  10.025  20.001  0.00  0.00    +0.000 A 
ATOM      9  C   UNL     1       0.215  11.138  20.639  0.00  0.00    +0.000 A 
ATOM     10  C   UNL     1      -0.180  11.058  21.971  0.00  0.00    +0.000 A 
ATOM     11  C   UNL     1      -0.020   9.864  22.662  0.00  0.00    +0.000 A 
ATOM     12  C   UNL     1       0.555   8.760  22.027  0.00  0.00    +0.000 A 
ENDBRANCH   4   7
BRANCH   1  14
ATOM     13  O   UNL     1       2.119   3.768  17.076  0.00  0.00    +0.000 OA
ATOM     14  C   UNL     1       2.978   4.177  17.859  0.00  0.00    +0.000 C 
BRANCH  14  15
ATOM     15  C   UNL     1       4.322   3.491  17.948  0.00  0.00    +0.000 C 
BRANCH  15  16
ATOM     16  N   UNL     1       5.460   4.453  17.969  0.00  0.00    +0.000 N 
ATOM     17  C   UNL     1       5.987   4.804  19.176  0.00  0.00    +0.000 A 
ATOM     18  C   UNL     1       7.045   5.699  19.276  0.00  0.00    +0.000 A 
ATOM     19  C   UNL     1       7.597   6.236  18.128  0.00  0.00    +0.000 A 
ATOM     20  C   UNL     1       7.087   5.850  16.899  0.00  0.00    +0.000 A 
ATOM     21  C   UNL     1       6.015   4.950  16.826  0.00  0.00    +0.000 A 
ATOM     22 BR   UNL     1       5.461   4.463  15.071  0.00  0.00    +0.000 Br
ENDBRANCH  15  16
ENDBRANCH  14  15
ENDBRANCH   1  14
TORSDOF 4
ENDMDL
MODEL 3
REMARK VINA RESULT:      -7.9      1.235      1.782
REMARK  Name = 
REMARK  4 active torsions:
REMARK  status: ('A' for Active; 'I' for Inactive)
REMARK    1  A    between atoms: C_2  and  C_3
REMARK    2  A    between atoms: C_2  and  C_11
REMARK    3  A    between atoms: C_3  and  N_4
REMARK    4  A    between atoms: C_14  and  C_15
REMARK                            x       y       z     vdW  Elec       q    Type
REMARK                         _______ _______ _______ _____ _____    ______ ____
ROOT
ATOM      1  C   UNL     1       2.595   5.245  18.716  0.00  0.00    +0.000 A 
ATOM      2  C   UNL     1       2.142   5.151  20.031  0.00  0.00    +0.000 A 
ATOM      3  C   UNL     1       1.728   6.307  20.714  0.00  0.00    +0.000 A 
ATOM      4  C   UNL     1       1.759   7.579  20.111  0.00  0.00    +0.000 A 
ATOM      5  C   UNL     1       2.323   7.659  18.827  0.00  0.00    +0.000 A 
ATOM      6  C   UNL     1       2.719   6.511  18.131  0.00  0.00    +0.000 A 
ENDROOT
BRANCH   4   7
ATOM      7  C   UNL     1       1.120   8.755  20.754  0.00  0.00    +0.000 A 
ATOM      8  C   UNL     1       0.781   8.775  22.119  0.00  0.00    +0.000 A 
ATOM      9  C   UNL     1       0.073   9.846  22.680  0.00  0.00    +0.000 A 
ATOM     10  C   UNL     1      -0.294  10.934  21.895  0.00  0.00    +0.000 A 
ATOM     11  C   UNL     1       0.052  10.955  20.550  0.00  0.00    +0.000 A 
ATOM     12  C   UNL     1       0.745   9.879  19.989  0.00  0.00    +0.000 A 
ENDBRANCH   4   7
BRANCH   1  14
ATOM     13  O   UNL     1       1.930   3.665  17.122  0.00  0.00    +0.000 OA
ATOM     14  C   UNL     1       2.841   4.057  17.853  0.00  0.00    +0.000 C 
BRANCH  14  15
ATOM     15  C   UNL     1       4.174   3.344  17.864  0.00  0.00    +0.000 C 
BRANCH  15  16
ATOM     16  N   UNL     1       5.169   3.971  16.947  0.00  0.00    +0.000 N 
ATOM     17  C   UNL     1       5.063   3.721  15.611  0.00  0.00    +0.000 A 
ATOM     18  C   UNL     1       5.955   4.264  14.695  0.00  0.00    +0.000 A 
ATOM     19  C   UNL     1       6.967   5.096  15.137  0.00  0.00    +0.000 A 
ATOM     20  C   UNL     1       7.053   5.380  16.491  0.00  0.00    +0.000 A 
ATOM     21  C   UNL     1       6.143   4.815  17.394  0.00  0.00    +0.000 A 
ATOM     22 BR   UNL     1       6.343   5.344  19.212  0.00  0.00    +0.000 Br
ENDBRANCH  15  16
ENDBRANCH  14  15
ENDBRANCH   1  14
TORSDOF 4
ENDMDL
MODEL 4
REMARK VINA RESULT:      -7.7      1.254      2.067
REMARK  Name = 
REMARK  4 active torsions:
REMARK  status: ('A' for Active; 'I' for Inactive)
REMARK    1  A    between atoms: C_2  and  C_3
REMARK    2  A    between atoms: C_2  and  C_11
REMARK    3  A    between atoms: C_3  and  N_4
REMARK    4  A    between atoms: C_14  and  C_15
REMARK                            x       y       z     vdW  Elec       q    Type
REMARK                         _______ _______ _______ _____ _____    ______ ____
ROOT
ATOM      1  C   UNL     1       2.684   5.092  18.643  0.00  0.00    +0.000 A 
ATOM      2  C   UNL     1       2.195   5.012  19.947  0.00  0.00    +0.000 A 
ATOM      3  C   UNL     1       1.750   6.173  20.600  0.00  0.00    +0.000 A 
ATOM      4  C   UNL     1       1.784   7.436  19.980  0.00  0.00    +0.000 A 
ATOM      5  C   UNL     1       2.382   7.504  18.710  0.00  0.00    +0.000 A 
ATOM      6  C   UNL     1       2.809   6.350  18.043  0.00  0.00    +0.000 A 
ENDROOT
BRANCH   4   7
ATOM      7  C   UNL     1       1.115   8.615  20.587  0.00  0.00    +0.000 A 
ATOM      8  C   UNL     1       0.896   9.806  19.872  0.00  0.00    +0.000 A 
ATOM      9  C   UNL     1       0.372  10.946  20.494  0.00  0.00    +0.000 A 
ATOM     10  C   UNL     1       0.032  10.917  21.843  0.00  0.00    +0.000 A 
ATOM     11  C   UNL     1       0.211   9.746  22.568  0.00  0.00    +0.000 A 
ATOM     12  C   UNL     1       0.748   8.614  21.949  0.00  0.00    +0.000 A 
ENDBRANCH   4   7
BRANCH   1  14
ATOM     13  O   UNL     1       2.063   3.452  17.092  0.00  0.00    +0.000 OA
ATOM     14  C   UNL     1       2.966   3.894  17.805  0.00  0.00    +0.000 C 
BRANCH  14  15
ATOM     15  C   UNL     1       4.325   3.233  17.818  0.00  0.00    +0.000 C 
BRANCH  15  16
ATOM     16  N   UNL     1       5.298   3.897  16.904  0.00  0.00    +0.000 N 
ATOM     17  C   UNL     1       5.220   3.627  15.570  0.00  0.00    +0.000 A 
ATOM     18  C   UNL     1       6.095   4.203  14.658  0.00  0.00    +0.000 A 
ATOM     19  C   UNL     1       7.058   5.090  15.101  0.00  0.00    +0.000 A 
ATOM     20  C   UNL     1       7.113   5.395  16.452  0.00  0.00    +0.000 A 
ATOM     21  C   UNL     1       6.222   4.795  17.352  0.00  0.00    +0.000 A 
ATOM     22 BR   UNL     1       6.375   5.355  19.165  0.00  0.00    +0.000 Br
ENDBRANCH  15  16
ENDBRANCH  14  15
ENDBRANCH   1  14
TORSDOF 4
ENDMDL
MODEL 5
REMARK VINA RESULT:      -7.6      4.671      8.296
REMARK  Name = 
REMARK  4 active torsions:
REMARK  status: ('A' for Active; 'I' for Inactive)
REMARK    1  A    between atoms: C_2  and  C_3
REMARK    2  A    between atoms: C_2  and  C_11
REMARK    3  A    between atoms: C_3  and  N_4
REMARK    4  A    between atoms: C_14  and  C_15
REMARK                            x       y       z     vdW  Elec       q    Type
REMARK                         _______ _______ _______ _____ _____    ______ ____
ROOT
ATOM      1  C   UNL     1       1.229   9.665  18.974  0.00  0.00    +0.000 A 
ATOM      2  C   UNL     1       1.942   9.294  17.835  0.00  0.00    +0.000 A 
ATOM      3  C   UNL     1       2.587   8.047  17.788  0.00  0.00    +0.000 A 
ATOM      4  C   UNL     1       2.544   7.145  18.867  0.00  0.00    +0.000 A 
ATOM      5  C   UNL     1       1.912   7.590  20.041  0.00  0.00    +0.000 A 
ATOM      6  C   UNL     1       1.249   8.821  20.091  0.00  0.00    +0.000 A 
ENDROOT
BRANCH   4   7
ATOM      7  C   UNL     1       3.037   5.751  18.732  0.00  0.00    +0.000 A 
ATOM      8  C   UNL     1       4.180   5.288  19.408  0.00  0.00    +0.000 A 
ATOM      9  C   UNL     1       4.698   4.007  19.177  0.00  0.00    +0.000 A 
ATOM     10  C   UNL     1       4.072   3.148  18.279  0.00  0.00    +0.000 A 
ATOM     11  C   UNL     1       2.925   3.567  17.617  0.00  0.00    +0.000 A 
ATOM     12  C   UNL     1       2.419   4.851  17.838  0.00  0.00    +0.000 A 
ENDBRANCH   4   7
BRANCH   1  14
ATOM     13  O   UNL     1       0.807  11.951  18.696  0.00  0.00    +0.000 OA
ATOM     14  C   UNL     1       0.341  10.859  19.025  0.00  0.00    +0.000 C 
BRANCH  14  15
ATOM     15  C   UNL     1      -1.101  10.744  19.466  0.00  0.00    +0.000 C 
BRANCH  15  16
ATOM     16  N   UNL     1      -2.058  10.786  18.323  0.00  0.00    +0.000 N 
ATOM     17  C   UNL     1      -1.791  10.016  17.229  0.00  0.00    +0.000 A 
ATOM     18  C   UNL     1      -2.633  10.006  16.124  0.00  0.00    +0.000 A 
ATOM     19  C   UNL     1      -3.781  10.776  16.132  0.00  0.00    +0.000 A 
ATOM     20  C   UNL     1      -4.072  11.529  17.258  0.00  0.00    +0.000 A 
ATOM     21  C   UNL     1      -3.203  11.525  18.358  0.00  0.00    +0.000 A 
ATOM     22 BR   UNL     1      -3.762  12.557  19.858  0.00  0.00    +0.000 Br
ENDBRANCH  15  16
ENDBRANCH  14  15
ENDBRANCH   1  14
TORSDOF 4
ENDMDL
MODEL 6
REMARK VINA RESULT:      -7.5      4.672      8.316
REMARK  Name = 
REMARK  4 active torsions:
REMARK  status: ('A' for Active; 'I' for Inactive)
REMARK    1  A    between atoms: C_2  and  C_3
REMARK    2  A    between atoms: C_2  and  C_11
REMARK    3  A    between atoms: C_3  and  N_4
REMARK    4  A    between atoms: C_14  and  C_15
REMARK                            x       y       z     vdW  Elec       q    Type
REMARK                         _______ _______ _______ _____ _____    ______ ____
ROOT
ATOM      1  C   UNL     1       1.221   9.673  19.008  0.00  0.00    +0.000 A 
ATOM      2  C   UNL     1       1.948   9.358  17.860  0.00  0.00    +0.000 A 
ATOM      3  C   UNL     1       2.605   8.120  17.766  0.00  0.00    +0.000 A 
ATOM      4  C   UNL     1       2.560   7.172  18.805  0.00  0.00    +0.000 A 
ATOM      5  C   UNL     1       1.914   7.560  19.991  0.00  0.00    +0.000 A 
ATOM      6  C   UNL     1       1.239   8.783  20.087  0.00  0.00    +0.000 A 
ENDROOT
BRANCH   4   7
ATOM      7  C   UNL     1       3.067   5.789  18.614  0.00  0.00    +0.000 A 
ATOM      8  C   UNL     1       2.349   4.818  17.894  0.00  0.00    +0.000 A 
ATOM      9  C   UNL     1       2.785   3.488  17.824  0.00  0.00    +0.000 A 
ATOM     10  C   UNL     1       3.963   3.102  18.456  0.00  0.00    +0.000 A 
ATOM     11  C   UNL     1       4.708   4.045  19.151  0.00  0.00    +0.000 A 
ATOM     12  C   UNL     1       4.263   5.368  19.232  0.00  0.00    +0.000 A 
ENDBRANCH   4   7
BRANCH   1  14
ATOM     13  O   UNL     1       0.782  11.966  18.828  0.00  0.00    +0.000 OA
ATOM     14  C   UNL     1       0.322  10.856  19.101  0.00  0.00    +0.000 C 
BRANCH  14  15
ATOM     15  C   UNL     1      -1.124  10.709  19.517  0.00  0.00    +0.000 C 
BRANCH  15  16
ATOM     16  N   UNL     1      -2.065  10.768  18.362  0.00  0.00    +0.000 N 
ATOM     17  C   UNL     1      -1.778  10.023  17.257  0.00  0.00    +0.000 A 
ATOM     18  C   UNL     1      -2.603  10.031  16.139  0.00  0.00    +0.000 A 
ATOM     19  C   UNL     1      -3.757  10.792  16.147  0.00  0.00    +0.000 A 
ATOM     20  C   UNL     1      -4.069  11.520  17.284  0.00  0.00    +0.000 A 
ATOM     21  C   UNL     1      -3.216  11.499  18.396  0.00  0.00    +0.000 A 
ATOM     22 BR   UNL     1      -3.802  12.496  19.909  0.00  0.00    +0.000 Br
ENDBRANCH  15  16
ENDBRANCH  14  15
ENDBRANCH   1  14
TORSDOF 4
ENDMDL
MODEL 7
REMARK VINA RESULT:      -7.5      1.069      1.496
REMARK  Name = 
REMARK  4 active torsions:
REMARK  status: ('A' for Active; 'I' for Inactive)
REMARK    1  A    between atoms: C_2  and  C_3
REMARK    2  A    between atoms: C_2  and  C_11
REMARK    3  A    between atoms: C_3  and  N_4
REMARK    4  A    between atoms: C_14  and  C_15
REMARK                            x       y       z     vdW  Elec       q    Type
REMARK                         _______ _______ _______ _____ _____    ______ ____
ROOT
ATOM      1  C   UNL     1       3.066   5.202  19.331  0.00  0.00    +0.000 A 
ATOM      2  C   UNL     1       3.087   6.392  18.604  0.00  0.00    +0.000 A 
ATOM      3  C   UNL     1       2.363   7.505  19.062  0.00  0.00    +0.000 A 
ATOM      4  C   UNL     1       1.602   7.463  20.246  0.00  0.00    +0.000 A 
ATOM      5  C   UNL     1       1.512   6.222  20.898  0.00  0.00    +0.000 A 
ATOM      6  C   UNL     1       2.245   5.113  20.461  0.00  0.00    +0.000 A 
ENDROOT
BRANCH   4   7
ATOM      7  C   UNL     1       1.023   8.696  20.838  0.00  0.00    +0.000 A 
ATOM      8  C   UNL     1       0.704   8.795  22.204  0.00  0.00    +0.000 A 
ATOM      9  C   UNL     1       0.050   9.921  22.722  0.00  0.00    +0.000 A 
ATOM     10  C   UNL     1      -0.283  10.985  21.889  0.00  0.00    +0.000 A 
ATOM     11  C   UNL     1       0.044  10.927  20.541  0.00  0.00    +0.000 A 
ATOM     12  C   UNL     1       0.684   9.796  20.023  0.00  0.00    +0.000 A 
ENDBRANCH   4   7
BRANCH   1  14
ATOM     13  O   UNL     1       3.919   3.068  19.776  0.00  0.00    +0.000 OA
ATOM     14  C   UNL     1       3.970   4.056  19.041  0.00  0.00    +0.000 C 
BRANCH  14  15
ATOM     15  C   UNL     1       4.929   4.091  17.872  0.00  0.00    +0.000 C 
BRANCH  15  16
ATOM     16  N   UNL     1       6.010   5.104  18.045  0.00  0.00    +0.000 N 
ATOM     17  C   UNL     1       6.789   5.033  19.161  0.00  0.00    +0.000 A 
ATOM     18  C   UNL     1       7.812   5.944  19.394  0.00  0.00    +0.000 A 
ATOM     19  C   UNL     1       8.067   6.937  18.467  0.00  0.00    +0.000 A 
ATOM     20  C   UNL     1       7.300   6.987  17.314  0.00  0.00    +0.000 A 
ATOM     21  C   UNL     1       6.270   6.059  17.106  0.00  0.00    +0.000 A 
ATOM     22 BR   UNL     1       5.342   6.209  15.451  0.00  0.00    +0.000 Br
ENDBRANCH  15  16
ENDBRANCH  14  15
ENDBRANCH   1  14
TORSDOF 4
ENDMDL
MODEL 8
REMARK VINA RESULT:      -7.5      4.578      8.462
REMARK  Name = 
REMARK  4 active torsions:
REMARK  status: ('A' for Active; 'I' for Inactive)
REMARK    1  A    between atoms: C_2  and  C_3
REMARK    2  A    between atoms: C_2  and  C_11
REMARK    3  A    between atoms: C_3  and  N_4
REMARK    4  A    between atoms: C_14  and  C_15
REMARK                            x       y       z     vdW  Elec       q    Type
REMARK                         _______ _______ _______ _____ _____    ______ ____
ROOT
ATOM      1  C   UNL     1       1.027   9.504  19.533  0.00  0.00    +0.000 A 
ATOM      2  C   UNL     1       1.559   9.492  18.244  0.00  0.00    +0.000 A 
ATOM      3  C   UNL     1       2.289   8.378  17.799  0.00  0.00    +0.000 A 
ATOM      4  C   UNL     1       2.512   7.257  18.621  0.00  0.00    +0.000 A 
ATOM      5  C   UNL     1       2.059   7.343  19.948  0.00  0.00    +0.000 A 
ATOM      6  C   UNL     1       1.313   8.440  20.395  0.00  0.00    +0.000 A 
ENDROOT
BRANCH   4   7
ATOM      7  C   UNL     1       3.090   6.001  18.078  0.00  0.00    +0.000 A 
ATOM      8  C   UNL     1       4.384   5.945  17.528  0.00  0.00    +0.000 A 
ATOM      9  C   UNL     1       4.868   4.783  16.914  0.00  0.00    +0.000 A 
ATOM     10  C   UNL     1       4.077   3.640  16.854  0.00  0.00    +0.000 A 
ATOM     11  C   UNL     1       2.806   3.656  17.413  0.00  0.00    +0.000 A 
ATOM     12  C   UNL     1       2.320   4.822  18.012  0.00  0.00    +0.000 A 
ENDBRANCH   4   7
BRANCH   1  14
ATOM     13  O   UNL     1      -0.329  10.482  21.173  0.00  0.00    +0.000 OA
ATOM     14  C   UNL     1       0.063  10.536  20.005  0.00  0.00    +0.000 C 
BRANCH  14  15
ATOM     15  C   UNL     1      -0.426  11.630  19.084  0.00  0.00    +0.000 C 
BRANCH  15  16
ATOM     16  N   UNL     1      -1.770  11.340  18.507  0.00  0.00    +0.000 N 
ATOM     17  C   UNL     1      -1.850  10.460  17.468  0.00  0.00    +0.000 A 
ATOM     18  C   UNL     1      -3.066  10.143  16.874  0.00  0.00    +0.000 A 
ATOM     19  C   UNL     1      -4.230  10.712  17.356  0.00  0.00    +0.000 A 
ATOM     20  C   UNL     1      -4.153  11.577  18.436  0.00  0.00    +0.000 A 
ATOM     21  C   UNL     1      -2.914  11.884  19.012  0.00  0.00    +0.000 A 
ATOM     22 BR   UNL     1      -2.968  13.036  20.527  0.00  0.00    +0.000 Br
ENDBRANCH  15  16
ENDBRANCH  14  15
ENDBRANCH   1  14
TORSDOF 4
ENDMDL
MODEL 9
REMARK VINA RESULT:      -7.4      4.393      8.355
REMARK  Name = 
REMARK  4 active torsions:
REMARK  status: ('A' for Active; 'I' for Inactive)
REMARK    1  A    between atoms: C_2  and  C_3
REMARK    2  A    between atoms: C_2  and  C_11
REMARK    3  A    between atoms: C_3  and  N_4
REMARK    4  A    between atoms: C_14  and  C_15
REMARK                            x       y       z     vdW  Elec       q    Type
REMARK                         _______ _______ _______ _____ _____    ______ ____
ROOT
ATOM      1  C   UNL     1       1.337   9.032  19.344  0.00  0.00    +0.000 A 
ATOM      2  C   UNL     1       1.900   9.284  18.093  0.00  0.00    +0.000 A 
ATOM      3  C   UNL     1       2.756   8.337  17.507  0.00  0.00    +0.000 A 
ATOM      4  C   UNL     1       3.074   7.124  18.147  0.00  0.00    +0.000 A 
ATOM      5  C   UNL     1       2.581   6.946  19.451  0.00  0.00    +0.000 A 
ATOM      6  C   UNL     1       1.712   7.874  20.035  0.00  0.00    +0.000 A 
ENDROOT
BRANCH   4   7
ATOM      7  C   UNL     1       3.796   6.039  17.435  0.00  0.00    +0.000 A 
ATOM      8  C   UNL     1       3.567   4.678  17.708  0.00  0.00    +0.000 A 
ATOM      9  C   UNL     1       4.339   3.673  17.112  0.00  0.00    +0.000 A 
ATOM     10  C   UNL     1       5.347   4.003  16.211  0.00  0.00    +0.000 A 
ATOM     11  C   UNL     1       5.578   5.337  15.900  0.00  0.00    +0.000 A 
ATOM     12  C   UNL     1       4.815   6.339  16.508  0.00  0.00    +0.000 A 
ENDBRANCH   4   7
BRANCH   1  14
ATOM     13  O   UNL     1      -0.267   9.497  20.985  0.00  0.00    +0.000 OA
ATOM     14  C   UNL     1       0.257   9.871  19.934  0.00  0.00    +0.000 C 
BRANCH  14  15
ATOM     15  C   UNL     1      -0.188  11.153  19.270  0.00  0.00    +0.000 C 
BRANCH  15  16
ATOM     16  N   UNL     1      -1.517  11.026  18.605  0.00  0.00    +0.000 N 
ATOM     17  C   UNL     1      -1.655  10.106  17.608  0.00  0.00    +0.000 A 
ATOM     18  C   UNL     1      -2.859   9.934  16.938  0.00  0.00    +0.000 A 
ATOM     19  C   UNL     1      -3.957  10.693  17.298  0.00  0.00    +0.000 A 
ATOM     20  C   UNL     1      -3.827  11.602  18.336  0.00  0.00    +0.000 A 
ATOM     21  C   UNL     1      -2.599  11.760  18.992  0.00  0.00    +0.000 A 
ATOM     22 BR   UNL     1      -2.586  12.998  20.439  0.00  0.00    +0.000 Br
ENDBRANCH  15  16
ENDBRANCH  14  15
ENDBRANCH   1  14
TORSDOF 4
ENDMDL
