MODEL 1
REMARK VINA RESULT:      -8.0      0.000      0.000
REMARK  Name = 
REMARK  8 active torsions:
REMARK  status: ('A' for Active; 'I' for Inactive)
REMARK    1  A    between atoms: C_1  and  O_2
REMARK    2  A    between atoms: O_2  and  C_3
REMARK    3  A    between atoms: C_6  and  C_7
REMARK    4  A    between atoms: N_8  and  N_9
REMARK    5  A    between atoms: C_10  and  C_12
REMARK    6  A    between atoms: C_12  and  N_13
REMARK    7  A    between atoms: N_16  and  C_17
REMARK    8  A    between atoms: C_17  and  C_18
REMARK                            x       y       z     vdW  Elec       q    Type
REMARK                         _______ _______ _______ _____ _____    ______ ____
ROOT
ATOM      1  N   UNL     1       7.883   8.405  17.392  0.00  0.00    +0.000 N 
ATOM      2  C   UNL     1       7.843   7.101  17.861  0.00  0.00    +0.000 C 
ATOM      3  O   UNL     1       8.232   6.729  18.968  0.00  0.00    +0.000 OA
ATOM      4  H   UNL     1       7.642   8.605  16.426  0.00  0.00    +0.000 HD
ENDROOT
BRANCH   1   6
ATOM      5  C   UNL     1       8.488  10.560  17.753  0.00  0.00    +0.000 C 
ATOM      6  N   UNL     1       8.425   9.348  18.194  0.00  0.00    +0.000 NA
BRANCH   5  10
ATOM      7  C   UNL     1      10.341  13.500  20.239  0.00  0.00    +0.000 A 
ATOM      8  C   UNL     1      10.324  12.151  20.615  0.00  0.00    +0.000 A 
ATOM      9  C   UNL     1       9.725  11.204  19.801  0.00  0.00    +0.000 A 
ATOM     10  C   UNL     1       9.092  11.590  18.622  0.00  0.00    +0.000 A 
ATOM     11  C   UNL     1       9.044  12.934  18.251  0.00  0.00    +0.000 A 
ATOM     12  C   UNL     1       9.679  13.888  19.064  0.00  0.00    +0.000 A 
ATOM     13 BR   UNL     1       9.647  15.694  18.480  0.00  0.00    +0.000 Br
BRANCH   7  15
ATOM     14  C   UNL     1      10.179  14.974  22.057  0.00  0.00    +0.000 C 
ATOM     15  O   UNL     1      10.981  14.452  20.995  0.00  0.00    +0.000 OA
ENDBRANCH   7  15
ENDBRANCH   5  10
ENDBRANCH   1   6
BRANCH   2  16
ATOM     16  C   UNL     1       7.241   6.120  16.863  0.00  0.00    +0.000 C 
BRANCH  16  17
ATOM     17  N   UNL     1       5.765   6.235  16.814  0.00  0.00    +0.000 NA
ATOM     18  C   UNL     1       5.193   5.410  15.715  0.00  0.00    +0.000 C 
ATOM     19  C   UNL     1       5.134   3.878  15.971  0.00  0.00    +0.000 C 
ATOM     20  N   UNL     1       4.527   3.494  17.269  0.00  0.00    +0.000 NA
ATOM     21  C   UNL     1       5.220   4.257  18.327  0.00  0.00    +0.000 C 
ATOM     22  C   UNL     1       5.190   5.788  18.106  0.00  0.00    +0.000 C 
BRANCH  20  23
ATOM     23  C   UNL     1       3.070   3.735  17.242  0.00  0.00    +0.000 C 
BRANCH  23  24
ATOM     24  C   UNL     1       2.363   3.574  18.574  0.00  0.00    +0.000 A 
ATOM     25  C   UNL     1       2.265   2.306  19.173  0.00  0.00    +0.000 A 
ATOM     26  C   UNL     1       1.660   2.152  20.420  0.00  0.00    +0.000 A 
ATOM     27  C   UNL     1       1.163   3.265  21.094  0.00  0.00    +0.000 A 
ATOM     28  C   UNL     1       1.250   4.527  20.510  0.00  0.00    +0.000 A 
ATOM     29  C   UNL     1       1.836   4.680  19.250  0.00  0.00    +0.000 A 
ENDBRANCH  23  24
ENDBRANCH  20  23
ENDBRANCH  16  17
ENDBRANCH   2  16
TORSDOF 7
ENDMDL
MODEL 2
REMARK VINA RESULT:      -8.0      0.806      1.415
REMARK  Name = 
REMARK  8 active torsions:
REMARK  status: ('A' for Active; 'I' for Inactive)
REMARK    1  A    between atoms: C_1  and  O_2
REMARK    2  A    between atoms: O_2  and  C_3
REMARK    3  A    between atoms: C_6  and  C_7
REMARK    4  A    between atoms: N_8  and  N_9
REMARK    5  A    between atoms: C_10  and  C_12
REMARK    6  A    between atoms: C_12  and  N_13
REMARK    7  A    between atoms: N_16  and  C_17
REMARK    8  A    between atoms: C_17  and  C_18
REMARK                            x       y       z     vdW  Elec       q    Type
REMARK                         _______ _______ _______ _____ _____    ______ ____
ROOT
ATOM      1  N   UNL     1       7.764   8.287  17.385  0.00  0.00    +0.000 N 
ATOM      2  C   UNL     1       7.769   6.976  17.837  0.00  0.00    +0.000 C 
ATOM      3  O   UNL     1       8.158   6.605  18.945  0.00  0.00    +0.000 OA
ATOM      4  H   UNL     1       7.528   8.490  16.418  0.00  0.00    +0.000 HD
ENDROOT
BRANCH   1   6
ATOM      5  C   UNL     1       8.602  10.372  17.689  0.00  0.00    +0.000 C 
ATOM      6  N   UNL     1       8.259   9.240  18.206  0.00  0.00    +0.000 NA
BRANCH   5  10
ATOM      7  C   UNL     1      10.308  13.327  20.259  0.00  0.00    +0.000 A 
ATOM      8  C   UNL     1      10.144  12.007  20.695  0.00  0.00    +0.000 A 
ATOM      9  C   UNL     1       9.595  11.054  19.854  0.00  0.00    +0.000 A 
ATOM     10  C   UNL     1       9.155  11.410  18.581  0.00  0.00    +0.000 A 
ATOM     11  C   UNL     1       9.254  12.730  18.141  0.00  0.00    +0.000 A 
ATOM     12  C   UNL     1       9.840  13.687  18.986  0.00  0.00    +0.000 A 
ATOM     13 BR   UNL     1      10.016  15.455  18.316  0.00  0.00    +0.000 Br
BRANCH   7  15
ATOM     14  C   UNL     1      10.046  14.808  22.060  0.00  0.00    +0.000 C 
ATOM     15  O   UNL     1      10.907  14.279  21.049  0.00  0.00    +0.000 OA
ENDBRANCH   7  15
ENDBRANCH   5  10
ENDBRANCH   1   6
BRANCH   2  16
ATOM     16  C   UNL     1       7.219   5.986  16.820  0.00  0.00    +0.000 C 
BRANCH  16  17
ATOM     17  N   UNL     1       6.826   4.710  17.462  0.00  0.00    +0.000 NA
ATOM     18  C   UNL     1       5.856   4.935  18.568  0.00  0.00    +0.000 C 
ATOM     19  C   UNL     1       4.395   5.248  18.141  0.00  0.00    +0.000 C 
ATOM     20  N   UNL     1       3.829   4.303  17.146  0.00  0.00    +0.000 NA
ATOM     21  C   UNL     1       4.782   4.218  16.022  0.00  0.00    +0.000 C 
ATOM     22  C   UNL     1       6.213   3.814  16.453  0.00  0.00    +0.000 C 
BRANCH  20  23
ATOM     23  C   UNL     1       3.562   2.996  17.780  0.00  0.00    +0.000 C 
BRANCH  23  24
ATOM     24  C   UNL     1       2.800   3.056  19.090  0.00  0.00    +0.000 A 
ATOM     25  C   UNL     1       1.473   3.516  19.114  0.00  0.00    +0.000 A 
ATOM     26  C   UNL     1       0.744   3.531  20.304  0.00  0.00    +0.000 A 
ATOM     27  C   UNL     1       1.327   3.068  21.481  0.00  0.00    +0.000 A 
ATOM     28  C   UNL     1       2.645   2.613  21.472  0.00  0.00    +0.000 A 
ATOM     29  C   UNL     1       3.382   2.618  20.285  0.00  0.00    +0.000 A 
ENDBRANCH  23  24
ENDBRANCH  20  23
ENDBRANCH  16  17
ENDBRANCH   2  16
TORSDOF 7
ENDMDL
MODEL 3
REMARK VINA RESULT:      -7.9      1.416      1.931
REMARK  Name = 
REMARK  8 active torsions:
REMARK  status: ('A' for Active; 'I' for Inactive)
REMARK    1  A    between atoms: C_1  and  O_2
REMARK    2  A    between atoms: O_2  and  C_3
REMARK    3  A    between atoms: C_6  and  C_7
REMARK    4  A    between atoms: N_8  and  N_9
REMARK    5  A    between atoms: C_10  and  C_12
REMARK    6  A    between atoms: C_12  and  N_13
REMARK    7  A    between atoms: N_16  and  C_17
REMARK    8  A    between atoms: C_17  and  C_18
REMARK                            x       y       z     vdW  Elec       q    Type
REMARK                         _______ _______ _______ _____ _____    ______ ____
ROOT
ATOM      1  N   UNL     1       7.582   8.598  17.368  0.00  0.00    +0.000 N 
ATOM      2  C   UNL     1       7.739   7.293  17.809  0.00  0.00    +0.000 C 
ATOM      3  O   UNL     1       8.272   6.957  18.867  0.00  0.00    +0.000 OA
ATOM      4  H   UNL     1       7.230   8.780  16.433  0.00  0.00    +0.000 HD
ENDROOT
BRANCH   1   6
ATOM      5  C   UNL     1       9.073  10.280  17.674  0.00  0.00    +0.000 C 
ATOM      6  N   UNL     1       8.085   9.589  18.138  0.00  0.00    +0.000 NA
BRANCH   5  10
ATOM      7  C   UNL     1      10.634  13.466  20.053  0.00  0.00    +0.000 A 
ATOM      8  C   UNL     1      11.057  13.285  18.731  0.00  0.00    +0.000 A 
ATOM      9  C   UNL     1      10.543  12.253  17.965  0.00  0.00    +0.000 A 
ATOM     10  C   UNL     1       9.633  11.354  18.517  0.00  0.00    +0.000 A 
ATOM     11  C   UNL     1       9.237  11.476  19.849  0.00  0.00    +0.000 A 
ATOM     12  C   UNL     1       9.738  12.543  20.614  0.00  0.00    +0.000 A 
ATOM     13 BR   UNL     1       9.115  12.707  22.399  0.00  0.00    +0.000 Br
BRANCH   7  15
ATOM     14  C   UNL     1      11.799  15.502  20.069  0.00  0.00    +0.000 C 
ATOM     15  O   UNL     1      11.080  14.518  20.816  0.00  0.00    +0.000 OA
ENDBRANCH   7  15
ENDBRANCH   5  10
ENDBRANCH   1   6
BRANCH   2  16
ATOM     16  C   UNL     1       7.163   6.260  16.850  0.00  0.00    +0.000 C 
BRANCH  16  17
ATOM     17  N   UNL     1       6.877   4.980  17.539  0.00  0.00    +0.000 NA
ATOM     18  C   UNL     1       5.823   5.147  18.577  0.00  0.00    +0.000 C 
ATOM     19  C   UNL     1       4.364   5.269  18.054  0.00  0.00    +0.000 C 
ATOM     20  N   UNL     1       3.968   4.219  17.083  0.00  0.00    +0.000 NA
ATOM     21  C   UNL     1       4.991   4.188  16.019  0.00  0.00    +0.000 C 
ATOM     22  C   UNL     1       6.430   3.972  16.548  0.00  0.00    +0.000 C 
BRANCH  20  23
ATOM     23  C   UNL     1       3.811   2.922  17.772  0.00  0.00    +0.000 C 
BRANCH  23  24
ATOM     24  C   UNL     1       2.925   2.947  19.003  0.00  0.00    +0.000 A 
ATOM     25  C   UNL     1       1.546   3.185  18.876  0.00  0.00    +0.000 A 
ATOM     26  C   UNL     1       0.711   3.162  19.994  0.00  0.00    +0.000 A 
ATOM     27  C   UNL     1       1.242   2.884  21.251  0.00  0.00    +0.000 A 
ATOM     28  C   UNL     1       2.609   2.650  21.392  0.00  0.00    +0.000 A 
ATOM     29  C   UNL     1       3.449   2.694  20.276  0.00  0.00    +0.000 A 
ENDBRANCH  23  24
ENDBRANCH  20  23
ENDBRANCH  16  17
ENDBRANCH   2  16
TORSDOF 7
ENDMDL
MODEL 4
REMARK VINA RESULT:      -7.5      1.151      1.580
REMARK  Name = 
REMARK  8 active torsions:
REMARK  status: ('A' for Active; 'I' for Inactive)
REMARK    1  A    between atoms: C_1  and  O_2
REMARK    2  A    between atoms: O_2  and  C_3
REMARK    3  A    between atoms: C_6  and  C_7
REMARK    4  A    between atoms: N_8  and  N_9
REMARK    5  A    between atoms: C_10  and  C_12
REMARK    6  A    between atoms: C_12  and  N_13
REMARK    7  A    between atoms: N_16  and  C_17
REMARK    8  A    between atoms: C_17  and  C_18
REMARK                            x       y       z     vdW  Elec       q    Type
REMARK                         _______ _______ _______ _____ _____    ______ ____
ROOT
ATOM      1  N   UNL     1       7.997   8.431  17.605  0.00  0.00    +0.000 N 
ATOM      2  C   UNL     1       7.929   7.143  18.114  0.00  0.00    +0.000 C 
ATOM      3  O   UNL     1       8.376   6.782  19.204  0.00  0.00    +0.000 OA
ATOM      4  H   UNL     1       7.701   8.617  16.652  0.00  0.00    +0.000 HD
ENDROOT
BRANCH   1   6
ATOM      5  C   UNL     1       8.610  10.590  17.927  0.00  0.00    +0.000 C 
ATOM      6  N   UNL     1       8.636   9.367  18.342  0.00  0.00    +0.000 NA
BRANCH   5  10
ATOM      7  C   UNL     1      10.620  13.632  20.154  0.00  0.00    +0.000 A 
ATOM      8  C   UNL     1      11.092  13.234  18.898  0.00  0.00    +0.000 A 
ATOM      9  C   UNL     1      10.431  12.251  18.180  0.00  0.00    +0.000 A 
ATOM     10  C   UNL     1       9.318  11.613  18.722  0.00  0.00    +0.000 A 
ATOM     11  C   UNL     1       8.860  11.949  19.996  0.00  0.00    +0.000 A 
ATOM     12  C   UNL     1       9.514  12.969  20.708  0.00  0.00    +0.000 A 
ATOM     13 BR   UNL     1       8.810  13.439  22.407  0.00  0.00    +0.000 Br
BRANCH   7  15
ATOM     14  C   UNL     1      11.831  15.638  20.031  0.00  0.00    +0.000 C 
ATOM     15  O   UNL     1      11.217  14.648  20.860  0.00  0.00    +0.000 OA
ENDBRANCH   7  15
ENDBRANCH   5  10
ENDBRANCH   1   6
BRANCH   2  16
ATOM     16  C   UNL     1       7.217   6.167  17.188  0.00  0.00    +0.000 C 
BRANCH  16  17
ATOM     17  N   UNL     1       5.746   6.339  17.247  0.00  0.00    +0.000 NA
ATOM     18  C   UNL     1       5.089   5.812  16.020  0.00  0.00    +0.000 C 
ATOM     19  C   UNL     1       4.972   4.266  15.918  0.00  0.00    +0.000 C 
ATOM     20  N   UNL     1       4.407   3.610  17.123  0.00  0.00    +0.000 NA
ATOM     21  C   UNL     1       5.181   4.083  18.289  0.00  0.00    +0.000 C 
ATOM     22  C   UNL     1       5.210   5.624  18.431  0.00  0.00    +0.000 C 
BRANCH  20  23
ATOM     23  C   UNL     1       2.963   3.900  17.231  0.00  0.00    +0.000 C 
BRANCH  23  24
ATOM     24  C   UNL     1       2.349   3.628  18.591  0.00  0.00    +0.000 A 
ATOM     25  C   UNL     1       1.815   4.684  19.349  0.00  0.00    +0.000 A 
ATOM     26  C   UNL     1       1.204   4.441  20.579  0.00  0.00    +0.000 A 
ATOM     27  C   UNL     1       1.102   3.138  21.060  0.00  0.00    +0.000 A 
ATOM     28  C   UNL     1       1.631   2.081  20.320  0.00  0.00    +0.000 A 
ATOM     29  C   UNL     1       2.263   2.326  19.098  0.00  0.00    +0.000 A 
ENDBRANCH  23  24
ENDBRANCH  20  23
ENDBRANCH  16  17
ENDBRANCH   2  16
TORSDOF 7
ENDMDL
MODEL 5
REMARK VINA RESULT:      -7.5      1.286      1.432
REMARK  Name = 
REMARK  8 active torsions:
REMARK  status: ('A' for Active; 'I' for Inactive)
REMARK    1  A    between atoms: C_1  and  O_2
REMARK    2  A    between atoms: O_2  and  C_3
REMARK    3  A    between atoms: C_6  and  C_7
REMARK    4  A    between atoms: N_8  and  N_9
REMARK    5  A    between atoms: C_10  and  C_12
REMARK    6  A    between atoms: C_12  and  N_13
REMARK    7  A    between atoms: N_16  and  C_17
REMARK    8  A    between atoms: C_17  and  C_18
REMARK                            x       y       z     vdW  Elec       q    Type
REMARK                         _______ _______ _______ _____ _____    ______ ____
ROOT
ATOM      1  N   UNL     1       7.529   8.604  17.374  0.00  0.00    +0.000 N 
ATOM      2  C   UNL     1       7.839   7.373  17.934  0.00  0.00    +0.000 C 
ATOM      3  O   UNL     1       8.497   7.202  18.960  0.00  0.00    +0.000 OA
ATOM      4  H   UNL     1       7.075   8.650  16.468  0.00  0.00    +0.000 HD
ENDROOT
BRANCH   1   6
ATOM      5  C   UNL     1       9.084   9.595  18.695  0.00  0.00    +0.000 C 
ATOM      6  N   UNL     1       8.017   9.711  17.976  0.00  0.00    +0.000 NA
BRANCH   5  10
ATOM      7  C   UNL     1      10.557  13.148  20.555  0.00  0.00    +0.000 A 
ATOM      8  C   UNL     1      11.070  12.717  19.325  0.00  0.00    +0.000 A 
ATOM      9  C   UNL     1      10.583  11.567  18.727  0.00  0.00    +0.000 A 
ATOM     10  C   UNL     1       9.611  10.800  19.365  0.00  0.00    +0.000 A 
ATOM     11  C   UNL     1       9.123  11.174  20.617  0.00  0.00    +0.000 A 
ATOM     12  C   UNL     1       9.598  12.358  21.207  0.00  0.00    +0.000 A 
ATOM     13 BR   UNL     1       8.852  12.862  22.878  0.00  0.00    +0.000 Br
BRANCH   7  15
ATOM     14  C   UNL     1      10.953  15.441  20.258  0.00  0.00    +0.000 C 
ATOM     15  O   UNL     1      10.976  14.317  21.141  0.00  0.00    +0.000 OA
ENDBRANCH   7  15
ENDBRANCH   5  10
ENDBRANCH   1   6
BRANCH   2  16
ATOM     16  C   UNL     1       7.265   6.197  17.156  0.00  0.00    +0.000 C 
BRANCH  16  17
ATOM     17  N   UNL     1       5.789   6.283  17.056  0.00  0.00    +0.000 NA
ATOM     18  C   UNL     1       5.280   5.521  15.882  0.00  0.00    +0.000 C 
ATOM     19  C   UNL     1       5.247   3.975  16.035  0.00  0.00    +0.000 C 
ATOM     20  N   UNL     1       4.600   3.492  17.279  0.00  0.00    +0.000 NA
ATOM     21  C   UNL     1       5.233   4.198  18.412  0.00  0.00    +0.000 C 
ATOM     22  C   UNL     1       5.175   5.740  18.291  0.00  0.00    +0.000 C 
BRANCH  20  23
ATOM     23  C   UNL     1       3.140   3.703  17.209  0.00  0.00    +0.000 C 
BRANCH  23  24
ATOM     24  C   UNL     1       2.399   3.543  18.523  0.00  0.00    +0.000 A 
ATOM     25  C   UNL     1       2.308   2.279  19.132  0.00  0.00    +0.000 A 
ATOM     26  C   UNL     1       1.672   2.125  20.364  0.00  0.00    +0.000 A 
ATOM     27  C   UNL     1       1.136   3.235  21.013  0.00  0.00    +0.000 A 
ATOM     28  C   UNL     1       1.216   4.494  20.418  0.00  0.00    +0.000 A 
ATOM     29  C   UNL     1       1.834   4.645  19.173  0.00  0.00    +0.000 A 
ENDBRANCH  23  24
ENDBRANCH  20  23
ENDBRANCH  16  17
ENDBRANCH   2  16
TORSDOF 7
ENDMDL
MODEL 6
REMARK VINA RESULT:      -7.5      6.439      8.387
REMARK  Name = 
REMARK  8 active torsions:
REMARK  status: ('A' for Active; 'I' for Inactive)
REMARK    1  A    between atoms: C_1  and  O_2
REMARK    2  A    between atoms: O_2  and  C_3
REMARK    3  A    between atoms: C_6  and  C_7
REMARK    4  A    between atoms: N_8  and  N_9
REMARK    5  A    between atoms: C_10  and  C_12
REMARK    6  A    between atoms: C_12  and  N_13
REMARK    7  A    between atoms: N_16  and  C_17
REMARK    8  A    between atoms: C_17  and  C_18
REMARK                            x       y       z     vdW  Elec       q    Type
REMARK                         _______ _______ _______ _____ _____    ______ ____
ROOT
ATOM      1  N   UNL     1       2.219   6.631  20.656  0.00  0.00    +0.000 N 
ATOM      2  C   UNL     1       1.908   5.287  20.518  0.00  0.00    +0.000 C 
ATOM      3  O   UNL     1       0.789   4.795  20.663  0.00  0.00    +0.000 OA
ATOM      4  H   UNL     1       3.188   6.935  20.627  0.00  0.00    +0.000 HD
ENDROOT
BRANCH   1   6
ATOM      5  C   UNL     1       1.501   8.732  21.116  0.00  0.00    +0.000 C 
ATOM      6  N   UNL     1       1.226   7.475  21.015  0.00  0.00    +0.000 NA
BRANCH   5  10
ATOM      7  C   UNL     1      -1.546  11.459  22.354  0.00  0.00    +0.000 A 
ATOM      8  C   UNL     1      -1.040  10.500  23.240  0.00  0.00    +0.000 A 
ATOM      9  C   UNL     1      -0.049   9.623  22.832  0.00  0.00    +0.000 A 
ATOM     10  C   UNL     1       0.422   9.655  21.521  0.00  0.00    +0.000 A 
ATOM     11  C   UNL     1      -0.105  10.561  20.601  0.00  0.00    +0.000 A 
ATOM     12  C   UNL     1      -1.089  11.469  21.028  0.00  0.00    +0.000 A 
ATOM     13 BR   UNL     1      -1.723  12.730  19.758  0.00  0.00    +0.000 Br
BRANCH   7  15
ATOM     14  C   UNL     1      -1.930  13.497  23.451  0.00  0.00    +0.000 C 
ATOM     15  O   UNL     1      -2.484  12.382  22.749  0.00  0.00    +0.000 OA
ENDBRANCH   7  15
ENDBRANCH   5  10
ENDBRANCH   1   6
BRANCH   2  16
ATOM     16  C   UNL     1       3.108   4.427  20.143  0.00  0.00    +0.000 C 
BRANCH  16  17
ATOM     17  N   UNL     1       2.912   3.768  18.830  0.00  0.00    +0.000 NA
ATOM     18  C   UNL     1       2.680   4.765  17.751  0.00  0.00    +0.000 C 
ATOM     19  C   UNL     1       3.935   5.535  17.252  0.00  0.00    +0.000 C 
ATOM     20  N   UNL     1       5.093   4.673  16.913  0.00  0.00    +0.000 NA
ATOM     21  C   UNL     1       5.345   3.792  18.071  0.00  0.00    +0.000 C 
ATOM     22  C   UNL     1       4.111   2.961  18.498  0.00  0.00    +0.000 C 
BRANCH  20  23
ATOM     23  C   UNL     1       4.825   3.927  15.667  0.00  0.00    +0.000 C 
BRANCH  23  24
ATOM     24  C   UNL     1       5.809   4.176  14.540  0.00  0.00    +0.000 A 
ATOM     25  C   UNL     1       5.654   3.516  13.309  0.00  0.00    +0.000 A 
ATOM     26  C   UNL     1       6.524   3.772  12.248  0.00  0.00    +0.000 A 
ATOM     27  C   UNL     1       7.548   4.704  12.398  0.00  0.00    +0.000 A 
ATOM     28  C   UNL     1       7.716   5.362  13.616  0.00  0.00    +0.000 A 
ATOM     29  C   UNL     1       6.858   5.090  14.686  0.00  0.00    +0.000 A 
ENDBRANCH  23  24
ENDBRANCH  20  23
ENDBRANCH  16  17
ENDBRANCH   2  16
TORSDOF 7
ENDMDL
MODEL 7
REMARK VINA RESULT:      -7.4      0.761      1.189
REMARK  Name = 
REMARK  8 active torsions:
REMARK  status: ('A' for Active; 'I' for Inactive)
REMARK    1  A    between atoms: C_1  and  O_2
REMARK    2  A    between atoms: O_2  and  C_3
REMARK    3  A    between atoms: C_6  and  C_7
REMARK    4  A    between atoms: N_8  and  N_9
REMARK    5  A    between atoms: C_10  and  C_12
REMARK    6  A    between atoms: C_12  and  N_13
REMARK    7  A    between atoms: N_16  and  C_17
REMARK    8  A    between atoms: C_17  and  C_18
REMARK                            x       y       z     vdW  Elec       q    Type
REMARK                         _______ _______ _______ _____ _____    ______ ____
ROOT
ATOM      1  N   UNL     1       7.590   8.485  17.240  0.00  0.00    +0.000 N 
ATOM      2  C   UNL     1       7.868   7.333  17.961  0.00  0.00    +0.000 C 
ATOM      3  O   UNL     1       8.554   7.279  18.982  0.00  0.00    +0.000 OA
ATOM      4  H   UNL     1       7.107   8.422  16.350  0.00  0.00    +0.000 HD
ENDROOT
BRANCH   1   6
ATOM      5  C   UNL     1       8.857   9.620  18.740  0.00  0.00    +0.000 C 
ATOM      6  N   UNL     1       8.142   9.643  17.664  0.00  0.00    +0.000 NA
BRANCH   5  10
ATOM      7  C   UNL     1      10.666  13.225  20.149  0.00  0.00    +0.000 A 
ATOM      8  C   UNL     1      10.135  12.291  21.046  0.00  0.00    +0.000 A 
ATOM      9  C   UNL     1       9.555  11.123  20.582  0.00  0.00    +0.000 A 
ATOM     10  C   UNL     1       9.450  10.886  19.213  0.00  0.00    +0.000 A 
ATOM     11  C   UNL     1       9.919  11.825  18.294  0.00  0.00    +0.000 A 
ATOM     12  C   UNL     1      10.534  12.995  18.770  0.00  0.00    +0.000 A 
ATOM     13 BR   UNL     1      11.220  14.209  17.481  0.00  0.00    +0.000 Br
BRANCH   7  15
ATOM     14  C   UNL     1      10.535  15.129  21.514  0.00  0.00    +0.000 C 
ATOM     15  O   UNL     1      11.303  14.362  20.582  0.00  0.00    +0.000 OA
ENDBRANCH   7  15
ENDBRANCH   5  10
ENDBRANCH   1   6
BRANCH   2  16
ATOM     16  C   UNL     1       7.221   6.086  17.376  0.00  0.00    +0.000 C 
BRANCH  16  17
ATOM     17  N   UNL     1       5.743   6.200  17.357  0.00  0.00    +0.000 NA
ATOM     18  C   UNL     1       5.171   5.631  16.106  0.00  0.00    +0.000 C 
ATOM     19  C   UNL     1       5.119   4.080  16.024  0.00  0.00    +0.000 C 
ATOM     20  N   UNL     1       4.520   3.420  17.209  0.00  0.00    +0.000 NA
ATOM     21  C   UNL     1       5.213   3.939  18.405  0.00  0.00    +0.000 C 
ATOM     22  C   UNL     1       5.175   5.482  18.523  0.00  0.00    +0.000 C 
BRANCH  20  23
ATOM     23  C   UNL     1       3.061   3.653  17.239  0.00  0.00    +0.000 C 
BRANCH  23  24
ATOM     24  C   UNL     1       2.406   3.481  18.596  0.00  0.00    +0.000 A 
ATOM     25  C   UNL     1       1.731   4.557  19.196  0.00  0.00    +0.000 A 
ATOM     26  C   UNL     1       1.082   4.399  20.420  0.00  0.00    +0.000 A 
ATOM     27  C   UNL     1       1.084   3.158  21.053  0.00  0.00    +0.000 A 
ATOM     28  C   UNL     1       1.754   2.083  20.471  0.00  0.00    +0.000 A 
ATOM     29  C   UNL     1       2.422   2.246  19.254  0.00  0.00    +0.000 A 
ENDBRANCH  23  24
ENDBRANCH  20  23
ENDBRANCH  16  17
ENDBRANCH   2  16
TORSDOF 7
ENDMDL
MODEL 8
REMARK VINA RESULT:      -7.4      6.192      8.443
REMARK  Name = 
REMARK  8 active torsions:
REMARK  status: ('A' for Active; 'I' for Inactive)
REMARK    1  A    between atoms: C_1  and  O_2
REMARK    2  A    between atoms: O_2  and  C_3
REMARK    3  A    between atoms: C_6  and  C_7
REMARK    4  A    between atoms: N_8  and  N_9
REMARK    5  A    between atoms: C_10  and  C_12
REMARK    6  A    between atoms: C_12  and  N_13
REMARK    7  A    between atoms: N_16  and  C_17
REMARK    8  A    between atoms: C_17  and  C_18
REMARK                            x       y       z     vdW  Elec       q    Type
REMARK                         _______ _______ _______ _____ _____    ______ ____
ROOT
ATOM      1  N   UNL     1       2.462   7.186  20.309  0.00  0.00    +0.000 N 
ATOM      2  C   UNL     1       2.158   5.834  20.345  0.00  0.00    +0.000 C 
ATOM      3  O   UNL     1       1.199   5.334  20.932  0.00  0.00    +0.000 OA
ATOM      4  H   UNL     1       3.333   7.501  19.893  0.00  0.00    +0.000 HD
ENDROOT
BRANCH   1   6
ATOM      5  C   UNL     1       1.047   8.958  20.351  0.00  0.00    +0.000 C 
ATOM      6  N   UNL     1       1.666   8.030  21.002  0.00  0.00    +0.000 NA
BRANCH   5  10
ATOM      7  C   UNL     1      -1.350  11.684  22.604  0.00  0.00    +0.000 A 
ATOM      8  C   UNL     1      -0.904  10.484  23.171  0.00  0.00    +0.000 A 
ATOM      9  C   UNL     1      -0.124   9.608  22.435  0.00  0.00    +0.000 A 
ATOM     10  C   UNL     1       0.187   9.890  21.107  0.00  0.00    +0.000 A 
ATOM     11  C   UNL     1      -0.291  11.050  20.498  0.00  0.00    +0.000 A 
ATOM     12  C   UNL     1      -1.057  11.951  21.258  0.00  0.00    +0.000 A 
ATOM     13 BR   UNL     1      -1.624  13.550  20.406  0.00  0.00    +0.000 Br
BRANCH   7  15
ATOM     14  C   UNL     1      -3.460  12.275  23.442  0.00  0.00    +0.000 C 
ATOM     15  O   UNL     1      -2.072  12.600  23.329  0.00  0.00    +0.000 OA
ENDBRANCH   7  15
ENDBRANCH   5  10
ENDBRANCH   1   6
BRANCH   2  16
ATOM     16  C   UNL     1       3.138   4.976  19.556  0.00  0.00    +0.000 C 
BRANCH  16  17
ATOM     17  N   UNL     1       4.099   5.810  18.796  0.00  0.00    +0.000 NA
ATOM     18  C   UNL     1       5.500   5.355  19.010  0.00  0.00    +0.000 C 
ATOM     19  C   UNL     1       5.920   4.064  18.255  0.00  0.00    +0.000 C 
ATOM     20  N   UNL     1       5.596   4.063  16.807  0.00  0.00    +0.000 NA
ATOM     21  C   UNL     1       4.166   4.404  16.672  0.00  0.00    +0.000 C 
ATOM     22  C   UNL     1       3.780   5.740  17.350  0.00  0.00    +0.000 C 
BRANCH  20  23
ATOM     23  C   UNL     1       6.484   4.998  16.086  0.00  0.00    +0.000 C 
BRANCH  23  24
ATOM     24  C   UNL     1       6.654   4.716  14.606  0.00  0.00    +0.000 A 
ATOM     25  C   UNL     1       7.627   5.407  13.863  0.00  0.00    +0.000 A 
ATOM     26  C   UNL     1       7.827   5.123  12.512  0.00  0.00    +0.000 A 
ATOM     27  C   UNL     1       7.072   4.131  11.890  0.00  0.00    +0.000 A 
ATOM     28  C   UNL     1       6.101   3.441  12.615  0.00  0.00    +0.000 A 
ATOM     29  C   UNL     1       5.885   3.740  13.963  0.00  0.00    +0.000 A 
ENDBRANCH  23  24
ENDBRANCH  20  23
ENDBRANCH  16  17
ENDBRANCH   2  16
TORSDOF 7
ENDMDL
MODEL 9
REMARK VINA RESULT:      -7.4      6.261      8.403
REMARK  Name = 
REMARK  8 active torsions:
REMARK  status: ('A' for Active; 'I' for Inactive)
REMARK    1  A    between atoms: C_1  and  O_2
REMARK    2  A    between atoms: O_2  and  C_3
REMARK    3  A    between atoms: C_6  and  C_7
REMARK    4  A    between atoms: N_8  and  N_9
REMARK    5  A    between atoms: C_10  and  C_12
REMARK    6  A    between atoms: C_12  and  N_13
REMARK    7  A    between atoms: N_16  and  C_17
REMARK    8  A    between atoms: C_17  and  C_18
REMARK                            x       y       z     vdW  Elec       q    Type
REMARK                         _______ _______ _______ _____ _____    ______ ____
ROOT
ATOM      1  N   UNL     1       2.465   7.113  20.502  0.00  0.00    +0.000 N 
ATOM      2  C   UNL     1       2.112   5.779  20.362  0.00  0.00    +0.000 C 
ATOM      3  O   UNL     1       1.047   5.281  20.729  0.00  0.00    +0.000 OA
ATOM      4  H   UNL     1       3.405   7.417  20.271  0.00  0.00    +0.000 HD
ENDROOT
BRANCH   1   6
ATOM      5  C   UNL     1       1.082   8.910  20.445  0.00  0.00    +0.000 C 
ATOM      6  N   UNL     1       1.590   7.935  21.123  0.00  0.00    +0.000 NA
BRANCH   5  10
ATOM      7  C   UNL     1      -1.564  11.586  22.466  0.00  0.00    +0.000 A 
ATOM      8  C   UNL     1      -0.931  10.546  23.157  0.00  0.00    +0.000 A 
ATOM      9  C   UNL     1      -0.071   9.686  22.496  0.00  0.00    +0.000 A 
ATOM     10  C   UNL     1       0.137   9.817  21.125  0.00  0.00    +0.000 A 
ATOM     11  C   UNL     1      -0.524  10.809  20.399  0.00  0.00    +0.000 A 
ATOM     12  C   UNL     1      -1.373  11.699  21.080  0.00  0.00    +0.000 A 
ATOM     13 BR   UNL     1      -2.194  13.074  20.062  0.00  0.00    +0.000 Br
BRANCH   7  15
ATOM     14  C   UNL     1      -1.669  13.630  23.613  0.00  0.00    +0.000 C 
ATOM     15  O   UNL     1      -2.373  12.493  23.108  0.00  0.00    +0.000 OA
ENDBRANCH   7  15
ENDBRANCH   5  10
ENDBRANCH   1   6
BRANCH   2  16
ATOM     16  C   UNL     1       3.183   4.942  19.677  0.00  0.00    +0.000 C 
BRANCH  16  17
ATOM     17  N   UNL     1       4.128   5.790  18.914  0.00  0.00    +0.000 NA
ATOM     18  C   UNL     1       5.524   5.287  19.029  0.00  0.00    +0.000 C 
ATOM     19  C   UNL     1       5.868   4.028  18.185  0.00  0.00    +0.000 C 
ATOM     20  N   UNL     1       5.471   4.115  16.759  0.00  0.00    +0.000 NA
ATOM     21  C   UNL     1       4.046   4.501  16.717  0.00  0.00    +0.000 C 
ATOM     22  C   UNL     1       3.735   5.809  17.484  0.00  0.00    +0.000 C 
BRANCH  20  23
ATOM     23  C   UNL     1       6.348   5.064  16.043  0.00  0.00    +0.000 C 
BRANCH  23  24
ATOM     24  C   UNL     1       6.628   4.718  14.593  0.00  0.00    +0.000 A 
ATOM     25  C   UNL     1       5.822   3.783  13.922  0.00  0.00    +0.000 A 
ATOM     26  C   UNL     1       6.037   3.491  12.575  0.00  0.00    +0.000 A 
ATOM     27  C   UNL     1       7.050   4.145  11.876  0.00  0.00    +0.000 A 
ATOM     28  C   UNL     1       7.860   5.071  12.531  0.00  0.00    +0.000 A 
ATOM     29  C   UNL     1       7.658   5.348  13.886  0.00  0.00    +0.000 A 
ENDBRANCH  23  24
ENDBRANCH  20  23
ENDBRANCH  16  17
ENDBRANCH   2  16
TORSDOF 7
ENDMDL
