MODEL 1
REMARK VINA RESULT:      -8.0      0.000      0.000
REMARK  Name = 
REMARK  4 active torsions:
REMARK  status: ('A' for Active; 'I' for Inactive)
REMARK    1  A    between atoms: C_5  and  C_6
REMARK    2  A    between atoms: N_8  and  C_9
REMARK    3  A    between atoms: C_13  and  O_14
REMARK    4  A    between atoms: O_14  and  C_15
REMARK                            x       y       z     vdW  Elec       q    Type
REMARK                         _______ _______ _______ _____ _____    ______ ____
ROOT
ATOM      1  C   UNL     1       2.111   5.373  20.179  0.00  0.00    +0.000 A 
ATOM      2  C   UNL     1       1.328   4.252  19.879  0.00  0.00    +0.000 A 
ATOM      3  C   UNL     1       1.909   3.082  19.381  0.00  0.00    +0.000 A 
ATOM      4  C   UNL     1       3.287   3.010  19.210  0.00  0.00    +0.000 A 
ATOM      5  C   UNL     1       4.078   4.118  19.513  0.00  0.00    +0.000 A 
ATOM      6  C   UNL     1       3.484   5.319  19.929  0.00  0.00    +0.000 A 
ENDROOT
BRANCH   1   9
ATOM      7  C   UNL     1       1.566   7.795  20.155  0.00  0.00    +0.000 C 
ATOM      8  O   UNL     1       1.994   8.107  19.054  0.00  0.00    +0.000 OA
ATOM      9  N   UNL     1       1.577   6.547  20.751  0.00  0.00    +0.000 N 
ATOM     10  H   UNL     1       1.064   6.471  21.626  0.00  0.00    +0.000 HD
BRANCH   7  15
ATOM     11  O   UNL     1      -0.895  11.802  23.077  0.00  0.00    +0.000 OA
ATOM     12  C   UNL     1      -0.302  10.880  22.523  0.00  0.00    +0.000 C 
ATOM     13  C   UNL     1      -0.250   9.500  23.113  0.00  0.00    +0.000 C 
ATOM     14  C   UNL     1      -0.022   8.432  22.070  0.00  0.00    +0.000 C 
ATOM     15  C   UNL     1       0.907   8.893  20.980  0.00  0.00    +0.000 C 
ATOM     16  N   UNL     1       1.099  10.139  20.658  0.00  0.00    +0.000 NA
ATOM     17  N   UNL     1       0.431  11.083  21.381  0.00  0.00    +0.000 N 
ATOM     18  H   UNL     1       0.461  12.036  21.030  0.00  0.00    +0.000 HD
ENDBRANCH   7  15
ENDBRANCH   1   9
BRANCH   5  19
ATOM     19  O   UNL     1       5.436   3.951  19.347  0.00  0.00    +0.000 OA
BRANCH  19  20
ATOM     20  C   UNL     1       6.156   4.925  18.691  0.00  0.00    +0.000 A 
ATOM     21  C   UNL     1       7.217   5.640  19.254  0.00  0.00    +0.000 A 
ATOM     22  C   UNL     1       7.834   6.663  18.532  0.00  0.00    +0.000 A 
ATOM     23  C   UNL     1       7.434   6.930  17.224  0.00  0.00    +0.000 A 
ATOM     24  C   UNL     1       6.430   6.164  16.631  0.00  0.00    +0.000 A 
ATOM     25  C   UNL     1       5.793   5.161  17.364  0.00  0.00    +0.000 A 
ENDBRANCH  19  20
ENDBRANCH   5  19
TORSDOF 4
ENDMDL
MODEL 2
REMARK VINA RESULT:      -7.9      0.286      1.046
REMARK  Name = 
REMARK  4 active torsions:
REMARK  status: ('A' for Active; 'I' for Inactive)
REMARK    1  A    between atoms: C_5  and  C_6
REMARK    2  A    between atoms: N_8  and  C_9
REMARK    3  A    between atoms: C_13  and  O_14
REMARK    4  A    between atoms: O_14  and  C_15
REMARK                            x       y       z     vdW  Elec       q    Type
REMARK                         _______ _______ _______ _____ _____    ______ ____
ROOT
ATOM      1  C   UNL     1       1.927   5.293  20.404  0.00  0.00    +0.000 A 
ATOM      2  C   UNL     1       1.136   4.145  20.273  0.00  0.00    +0.000 A 
ATOM      3  C   UNL     1       1.687   2.940  19.831  0.00  0.00    +0.000 A 
ATOM      4  C   UNL     1       3.045   2.861  19.545  0.00  0.00    +0.000 A 
ATOM      5  C   UNL     1       3.844   3.995  19.679  0.00  0.00    +0.000 A 
ATOM      6  C   UNL     1       3.273   5.226  20.039  0.00  0.00    +0.000 A 
ENDROOT
BRANCH   1   9
ATOM      7  C   UNL     1       1.524   7.741  20.291  0.00  0.00    +0.000 C 
ATOM      8  O   UNL     1       2.032   7.998  19.210  0.00  0.00    +0.000 OA
ATOM      9  N   UNL     1       1.429   6.511  20.915  0.00  0.00    +0.000 N 
ATOM     10  H   UNL     1       0.863   6.486  21.761  0.00  0.00    +0.000 HD
BRANCH   7  15
ATOM     11  O   UNL     1      -0.874  11.950  22.972  0.00  0.00    +0.000 OA
ATOM     12  C   UNL     1      -0.293  10.988  22.474  0.00  0.00    +0.000 C 
ATOM     13  C   UNL     1      -0.243   9.650  23.152  0.00  0.00    +0.000 C 
ATOM     14  C   UNL     1      -0.036   8.514  22.179  0.00  0.00    +0.000 C 
ATOM     15  C   UNL     1       0.883   8.896  21.050  0.00  0.00    +0.000 C 
ATOM     16  N   UNL     1       1.079  10.116  20.644  0.00  0.00    +0.000 NA
ATOM     17  N   UNL     1       0.426  11.110  21.312  0.00  0.00    +0.000 N 
ATOM     18  H   UNL     1       0.458  12.039  20.898  0.00  0.00    +0.000 HD
ENDBRANCH   7  15
ENDBRANCH   1   9
BRANCH   5  19
ATOM     19  O   UNL     1       5.185   3.822  19.410  0.00  0.00    +0.000 OA
BRANCH  19  20
ATOM     20  C   UNL     1       5.839   4.757  18.637  0.00  0.00    +0.000 A 
ATOM     21  C   UNL     1       5.515   5.055  17.310  0.00  0.00    +0.000 A 
ATOM     22  C   UNL     1       6.288   5.964  16.587  0.00  0.00    +0.000 A 
ATOM     23  C   UNL     1       7.347   6.624  17.207  0.00  0.00    +0.000 A 
ATOM     24  C   UNL     1       7.623   6.389  18.554  0.00  0.00    +0.000 A 
ATOM     25  C   UNL     1       6.867   5.458  19.269  0.00  0.00    +0.000 A 
ENDBRANCH  19  20
ENDBRANCH   5  19
TORSDOF 4
ENDMDL
MODEL 3
REMARK VINA RESULT:      -7.9      0.804      1.004
REMARK  Name = 
REMARK  4 active torsions:
REMARK  status: ('A' for Active; 'I' for Inactive)
REMARK    1  A    between atoms: C_5  and  C_6
REMARK    2  A    between atoms: N_8  and  C_9
REMARK    3  A    between atoms: C_13  and  O_14
REMARK    4  A    between atoms: O_14  and  C_15
REMARK                            x       y       z     vdW  Elec       q    Type
REMARK                         _______ _______ _______ _____ _____    ______ ____
ROOT
ATOM      1  C   UNL     1       2.102   5.190  20.279  0.00  0.00    +0.000 A 
ATOM      2  C   UNL     1       1.315   4.044  20.117  0.00  0.00    +0.000 A 
ATOM      3  C   UNL     1       1.875   2.845  19.668  0.00  0.00    +0.000 A 
ATOM      4  C   UNL     1       3.238   2.770  19.408  0.00  0.00    +0.000 A 
ATOM      5  C   UNL     1       4.034   3.902  19.574  0.00  0.00    +0.000 A 
ATOM      6  C   UNL     1       3.456   5.128  19.939  0.00  0.00    +0.000 A 
ENDROOT
BRANCH   1   9
ATOM      7  C   UNL     1       1.662   7.631  20.172  0.00  0.00    +0.000 C 
ATOM      8  O   UNL     1       2.151   7.896  19.085  0.00  0.00    +0.000 OA
ATOM      9  N   UNL     1       1.594   6.400  20.798  0.00  0.00    +0.000 N 
ATOM     10  H   UNL     1       1.041   6.367  21.651  0.00  0.00    +0.000 HD
BRANCH   7  15
ATOM     11  O   UNL     1      -0.591  11.828  22.994  0.00  0.00    +0.000 OA
ATOM     12  C   UNL     1      -0.189  10.885  22.316  0.00  0.00    +0.000 C 
ATOM     13  C   UNL     1      -0.458  10.795  20.841  0.00  0.00    +0.000 C 
ATOM     14  C   UNL     1       0.563   9.951  20.117  0.00  0.00    +0.000 C 
ATOM     15  C   UNL     1       1.016   8.777  20.941  0.00  0.00    +0.000 C 
ATOM     16  N   UNL     1       0.970   8.731  22.240  0.00  0.00    +0.000 NA
ATOM     17  N   UNL     1       0.447   9.812  22.886  0.00  0.00    +0.000 N 
ATOM     18  H   UNL     1       0.555   9.839  23.897  0.00  0.00    +0.000 HD
ENDBRANCH   7  15
ENDBRANCH   1   9
BRANCH   5  19
ATOM     19  O   UNL     1       5.380   3.733  19.328  0.00  0.00    +0.000 OA
BRANCH  19  20
ATOM     20  C   UNL     1       6.061   4.705  18.627  0.00  0.00    +0.000 A 
ATOM     21  C   UNL     1       7.030   5.548  19.180  0.00  0.00    +0.000 A 
ATOM     22  C   UNL     1       7.608   6.553  18.404  0.00  0.00    +0.000 A 
ATOM     23  C   UNL     1       7.266   6.679  17.059  0.00  0.00    +0.000 A 
ATOM     24  C   UNL     1       6.359   5.788  16.484  0.00  0.00    +0.000 A 
ATOM     25  C   UNL     1       5.759   4.800  17.268  0.00  0.00    +0.000 A 
ENDBRANCH  19  20
ENDBRANCH   5  19
TORSDOF 4
ENDMDL
MODEL 4
REMARK VINA RESULT:      -7.9      0.899      1.453
REMARK  Name = 
REMARK  4 active torsions:
REMARK  status: ('A' for Active; 'I' for Inactive)
REMARK    1  A    between atoms: C_5  and  C_6
REMARK    2  A    between atoms: N_8  and  C_9
REMARK    3  A    between atoms: C_13  and  O_14
REMARK    4  A    between atoms: O_14  and  C_15
REMARK                            x       y       z     vdW  Elec       q    Type
REMARK                         _______ _______ _______ _____ _____    ______ ____
ROOT
ATOM      1  C   UNL     1       2.439   5.143  20.340  0.00  0.00    +0.000 A 
ATOM      2  C   UNL     1       1.792   3.904  20.423  0.00  0.00    +0.000 A 
ATOM      3  C   UNL     1       2.421   2.735  19.983  0.00  0.00    +0.000 A 
ATOM      4  C   UNL     1       3.717   2.790  19.486  0.00  0.00    +0.000 A 
ATOM      5  C   UNL     1       4.374   4.017  19.406  0.00  0.00    +0.000 A 
ATOM      6  C   UNL     1       3.710   5.200  19.765  0.00  0.00    +0.000 A 
ENDROOT
BRANCH   1   9
ATOM      7  C   UNL     1       1.787   7.532  20.148  0.00  0.00    +0.000 C 
ATOM      8  O   UNL     1       2.167   7.774  19.012  0.00  0.00    +0.000 OA
ATOM      9  N   UNL     1       1.871   6.336  20.837  0.00  0.00    +0.000 N 
ATOM     10  H   UNL     1       1.391   6.307  21.733  0.00  0.00    +0.000 HD
BRANCH   7  15
ATOM     11  O   UNL     1      -0.587  11.682  22.939  0.00  0.00    +0.000 OA
ATOM     12  C   UNL     1      -0.159  10.745  22.270  0.00  0.00    +0.000 C 
ATOM     13  C   UNL     1      -0.455  10.613  20.804  0.00  0.00    +0.000 C 
ATOM     14  C   UNL     1       0.586   9.800  20.073  0.00  0.00    +0.000 C 
ATOM     15  C   UNL     1       1.108   8.663  20.909  0.00  0.00    +0.000 C 
ATOM     16  N   UNL     1       1.092   8.641  22.209  0.00  0.00    +0.000 NA
ATOM     17  N   UNL     1       0.536   9.711  22.847  0.00  0.00    +0.000 N 
ATOM     18  H   UNL     1       0.665   9.763  23.854  0.00  0.00    +0.000 HD
ENDBRANCH   7  15
ENDBRANCH   1   9
BRANCH   5  19
ATOM     19  O   UNL     1       5.668   3.977  18.933  0.00  0.00    +0.000 OA
BRANCH  19  20
ATOM     20  C   UNL     1       6.245   5.136  18.461  0.00  0.00    +0.000 A 
ATOM     21  C   UNL     1       5.763   5.876  17.377  0.00  0.00    +0.000 A 
ATOM     22  C   UNL     1       6.463   6.996  16.927  0.00  0.00    +0.000 A 
ATOM     23  C   UNL     1       7.611   7.415  17.597  0.00  0.00    +0.000 A 
ATOM     24  C   UNL     1       8.049   6.726  18.728  0.00  0.00    +0.000 A 
ATOM     25  C   UNL     1       7.365   5.588  19.161  0.00  0.00    +0.000 A 
ENDBRANCH  19  20
ENDBRANCH   5  19
TORSDOF 4
ENDMDL
MODEL 5
REMARK VINA RESULT:      -7.8      1.121      1.768
REMARK  Name = 
REMARK  4 active torsions:
REMARK  status: ('A' for Active; 'I' for Inactive)
REMARK    1  A    between atoms: C_5  and  C_6
REMARK    2  A    between atoms: N_8  and  C_9
REMARK    3  A    between atoms: C_13  and  O_14
REMARK    4  A    between atoms: O_14  and  C_15
REMARK                            x       y       z     vdW  Elec       q    Type
REMARK                         _______ _______ _______ _____ _____    ______ ____
ROOT
ATOM      1  C   UNL     1       2.107   5.143  20.471  0.00  0.00    +0.000 A 
ATOM      2  C   UNL     1       1.386   3.948  20.581  0.00  0.00    +0.000 A 
ATOM      3  C   UNL     1       1.945   2.731  20.182  0.00  0.00    +0.000 A 
ATOM      4  C   UNL     1       3.248   2.693  19.699  0.00  0.00    +0.000 A 
ATOM      5  C   UNL     1       3.979   3.875  19.593  0.00  0.00    +0.000 A 
ATOM      6  C   UNL     1       3.386   5.106  19.911  0.00  0.00    +0.000 A 
ENDROOT
BRANCH   1   9
ATOM      7  C   UNL     1       1.667   7.575  20.232  0.00  0.00    +0.000 C 
ATOM      8  O   UNL     1       2.137   7.776  19.123  0.00  0.00    +0.000 OA
ATOM      9  N   UNL     1       1.609   6.382  20.928  0.00  0.00    +0.000 N 
ATOM     10  H   UNL     1       1.071   6.399  21.791  0.00  0.00    +0.000 HD
BRANCH   7  15
ATOM     11  O   UNL     1      -0.535  11.921  22.862  0.00  0.00    +0.000 OA
ATOM     12  C   UNL     1      -0.138  10.954  22.216  0.00  0.00    +0.000 C 
ATOM     13  C   UNL     1      -0.251  10.897  20.719  0.00  0.00    +0.000 C 
ATOM     14  C   UNL     1       0.771   9.978  20.096  0.00  0.00    +0.000 C 
ATOM     15  C   UNL     1       1.035   8.764  20.945  0.00  0.00    +0.000 C 
ATOM     16  N   UNL     1       0.845   8.712  22.231  0.00  0.00    +0.000 NA
ATOM     17  N   UNL     1       0.343   9.828  22.834  0.00  0.00    +0.000 N 
ATOM     18  H   UNL     1       0.342   9.839  23.851  0.00  0.00    +0.000 HD
ENDBRANCH   7  15
ENDBRANCH   1   9
BRANCH   5  19
ATOM     19  O   UNL     1       5.274   3.743  19.137  0.00  0.00    +0.000 OA
BRANCH  19  20
ATOM     20  C   UNL     1       5.593   4.209  17.880  0.00  0.00    +0.000 A 
ATOM     21  C   UNL     1       4.903   3.872  16.711  0.00  0.00    +0.000 A 
ATOM     22  C   UNL     1       5.352   4.337  15.475  0.00  0.00    +0.000 A 
ATOM     23  C   UNL     1       6.452   5.189  15.409  0.00  0.00    +0.000 A 
ATOM     24  C   UNL     1       7.093   5.593  16.581  0.00  0.00    +0.000 A 
ATOM     25  C   UNL     1       6.662   5.104  17.816  0.00  0.00    +0.000 A 
ENDBRANCH  19  20
ENDBRANCH   5  19
TORSDOF 4
ENDMDL
MODEL 6
REMARK VINA RESULT:      -7.7      0.824      1.265
REMARK  Name = 
REMARK  4 active torsions:
REMARK  status: ('A' for Active; 'I' for Inactive)
REMARK    1  A    between atoms: C_5  and  C_6
REMARK    2  A    between atoms: N_8  and  C_9
REMARK    3  A    between atoms: C_13  and  O_14
REMARK    4  A    between atoms: O_14  and  C_15
REMARK                            x       y       z     vdW  Elec       q    Type
REMARK                         _______ _______ _______ _____ _____    ______ ____
ROOT
ATOM      1  C   UNL     1       2.158   5.846  20.283  0.00  0.00    +0.000 A 
ATOM      2  C   UNL     1       1.922   4.559  20.781  0.00  0.00    +0.000 A 
ATOM      3  C   UNL     1       2.573   3.448  20.238  0.00  0.00    +0.000 A 
ATOM      4  C   UNL     1       3.494   3.618  19.210  0.00  0.00    +0.000 A 
ATOM      5  C   UNL     1       3.744   4.896  18.712  0.00  0.00    +0.000 A 
ATOM      6  C   UNL     1       3.025   5.998  19.198  0.00  0.00    +0.000 A 
ENDROOT
BRANCH   1   9
ATOM      7  C   UNL     1       1.440   8.222  20.212  0.00  0.00    +0.000 C 
ATOM      8  O   UNL     1       1.773   8.519  19.074  0.00  0.00    +0.000 OA
ATOM      9  N   UNL     1       1.579   7.003  20.848  0.00  0.00    +0.000 N 
ATOM     10  H   UNL     1       1.131   6.925  21.758  0.00  0.00    +0.000 HD
BRANCH   7  15
ATOM     11  O   UNL     1      -1.104  12.168  23.147  0.00  0.00    +0.000 OA
ATOM     12  C   UNL     1      -0.491  11.259  22.590  0.00  0.00    +0.000 C 
ATOM     13  C   UNL     1      -0.411   9.879  23.175  0.00  0.00    +0.000 C 
ATOM     14  C   UNL     1      -0.161   8.820  22.129  0.00  0.00    +0.000 C 
ATOM     15  C   UNL     1       0.759   9.304  21.041  0.00  0.00    +0.000 C 
ATOM     16  N   UNL     1       0.924  10.554  20.722  0.00  0.00    +0.000 NA
ATOM     17  N   UNL     1       0.237  11.481  21.449  0.00  0.00    +0.000 N 
ATOM     18  H   UNL     1       0.247  12.437  21.101  0.00  0.00    +0.000 HD
ENDBRANCH   7  15
ENDBRANCH   1   9
BRANCH   5  19
ATOM     19  O   UNL     1       4.696   4.979  17.718  0.00  0.00    +0.000 OA
BRANCH  19  20
ATOM     20  C   UNL     1       5.806   5.770  17.919  0.00  0.00    +0.000 A 
ATOM     21  C   UNL     1       6.076   6.949  17.216  0.00  0.00    +0.000 A 
ATOM     22  C   UNL     1       7.268   7.639  17.439  0.00  0.00    +0.000 A 
ATOM     23  C   UNL     1       8.162   7.189  18.409  0.00  0.00    +0.000 A 
ATOM     24  C   UNL     1       7.857   6.059  19.168  0.00  0.00    +0.000 A 
ATOM     25  C   UNL     1       6.678   5.352  18.924  0.00  0.00    +0.000 A 
ENDBRANCH  19  20
ENDBRANCH   5  19
TORSDOF 4
ENDMDL
MODEL 7
REMARK VINA RESULT:      -7.7      0.879      1.060
REMARK  Name = 
REMARK  4 active torsions:
REMARK  status: ('A' for Active; 'I' for Inactive)
REMARK    1  A    between atoms: C_5  and  C_6
REMARK    2  A    between atoms: N_8  and  C_9
REMARK    3  A    between atoms: C_13  and  O_14
REMARK    4  A    between atoms: O_14  and  C_15
REMARK                            x       y       z     vdW  Elec       q    Type
REMARK                         _______ _______ _______ _____ _____    ______ ____
ROOT
ATOM      1  C   UNL     1       2.092   5.967  20.286  0.00  0.00    +0.000 A 
ATOM      2  C   UNL     1       1.859   4.674  20.772  0.00  0.00    +0.000 A 
ATOM      3  C   UNL     1       2.511   3.570  20.217  0.00  0.00    +0.000 A 
ATOM      4  C   UNL     1       3.429   3.751  19.189  0.00  0.00    +0.000 A 
ATOM      5  C   UNL     1       3.675   5.034  18.702  0.00  0.00    +0.000 A 
ATOM      6  C   UNL     1       2.956   6.130  19.201  0.00  0.00    +0.000 A 
ENDROOT
BRANCH   1   9
ATOM      7  C   UNL     1       1.347   8.335  20.231  0.00  0.00    +0.000 C 
ATOM      8  O   UNL     1       1.653   8.636  19.087  0.00  0.00    +0.000 OA
ATOM      9  N   UNL     1       1.512   7.117  20.864  0.00  0.00    +0.000 N 
ATOM     10  H   UNL     1       1.083   7.034  21.782  0.00  0.00    +0.000 HD
BRANCH   7  15
ATOM     11  O   UNL     1      -1.175  12.256  23.217  0.00  0.00    +0.000 OA
ATOM     12  C   UNL     1      -0.569  11.350  22.649  0.00  0.00    +0.000 C 
ATOM     13  C   UNL     1      -0.522   9.955  23.203  0.00  0.00    +0.000 C 
ATOM     14  C   UNL     1      -0.273   8.916  22.136  0.00  0.00    +0.000 C 
ATOM     15  C   UNL     1       0.672   9.409  21.074  0.00  0.00    +0.000 C 
ATOM     16  N   UNL     1       0.864  10.663  20.787  0.00  0.00    +0.000 NA
ATOM     17  N   UNL     1       0.181  11.585  21.524  0.00  0.00    +0.000 N 
ATOM     18  H   UNL     1       0.213  12.548  21.199  0.00  0.00    +0.000 HD
ENDBRANCH   7  15
ENDBRANCH   1   9
BRANCH   5  19
ATOM     19  O   UNL     1       4.625   5.128  17.708  0.00  0.00    +0.000 OA
BRANCH  19  20
ATOM     20  C   UNL     1       5.829   5.737  17.986  0.00  0.00    +0.000 A 
ATOM     21  C   UNL     1       6.740   5.288  18.947  0.00  0.00    +0.000 A 
ATOM     22  C   UNL     1       7.899   6.020  19.209  0.00  0.00    +0.000 A 
ATOM     23  C   UNL     1       8.181   7.165  18.467  0.00  0.00    +0.000 A 
ATOM     24  C   UNL     1       7.314   7.571  17.452  0.00  0.00    +0.000 A 
ATOM     25  C   UNL     1       6.140   6.855  17.211  0.00  0.00    +0.000 A 
ENDBRANCH  19  20
ENDBRANCH   5  19
TORSDOF 4
ENDMDL
MODEL 8
REMARK VINA RESULT:      -7.7      3.445      7.902
REMARK  Name = 
REMARK  4 active torsions:
REMARK  status: ('A' for Active; 'I' for Inactive)
REMARK    1  A    between atoms: C_5  and  C_6
REMARK    2  A    between atoms: N_8  and  C_9
REMARK    3  A    between atoms: C_13  and  O_14
REMARK    4  A    between atoms: O_14  and  C_15
REMARK                            x       y       z     vdW  Elec       q    Type
REMARK                         _______ _______ _______ _____ _____    ______ ____
ROOT
ATOM      1  C   UNL     1       3.248   4.945  18.562  0.00  0.00    +0.000 A 
ATOM      2  C   UNL     1       2.554   3.801  18.975  0.00  0.00    +0.000 A 
ATOM      3  C   UNL     1       1.662   3.852  20.050  0.00  0.00    +0.000 A 
ATOM      4  C   UNL     1       1.431   5.057  20.703  0.00  0.00    +0.000 A 
ATOM      5  C   UNL     1       2.110   6.204  20.295  0.00  0.00    +0.000 A 
ATOM      6  C   UNL     1       3.070   6.133  19.274  0.00  0.00    +0.000 A 
ENDROOT
BRANCH   1   9
ATOM      7  C   UNL     1       5.451   4.651  17.452  0.00  0.00    +0.000 C 
ATOM      8  O   UNL     1       6.136   4.317  18.407  0.00  0.00    +0.000 OA
ATOM      9  N   UNL     1       4.102   4.956  17.438  0.00  0.00    +0.000 N 
ATOM     10  H   UNL     1       3.691   5.098  16.518  0.00  0.00    +0.000 HD
BRANCH   7  15
ATOM     11  O   UNL     1       8.033   4.852  12.559  0.00  0.00    +0.000 OA
ATOM     12  C   UNL     1       7.365   4.828  13.591  0.00  0.00    +0.000 C 
ATOM     13  C   UNL     1       6.060   4.091  13.675  0.00  0.00    +0.000 C 
ATOM     14  C   UNL     1       5.714   3.685  15.088  0.00  0.00    +0.000 C 
ATOM     15  C   UNL     1       6.138   4.720  16.095  0.00  0.00    +0.000 C 
ATOM     16  N   UNL     1       7.094   5.581  15.904  0.00  0.00    +0.000 NA
ATOM     17  N   UNL     1       7.727   5.555  14.696  0.00  0.00    +0.000 N 
ATOM     18  H   UNL     1       8.570   6.118  14.607  0.00  0.00    +0.000 HD
ENDBRANCH   7  15
ENDBRANCH   1   9
BRANCH   5  19
ATOM     19  O   UNL     1       1.796   7.363  20.973  0.00  0.00    +0.000 OA
BRANCH  19  20
ATOM     20  C   UNL     1       1.243   8.417  20.278  0.00  0.00    +0.000 A 
ATOM     21  C   UNL     1       1.590   8.773  18.971  0.00  0.00    +0.000 A 
ATOM     22  C   UNL     1       1.027   9.905  18.381  0.00  0.00    +0.000 A 
ATOM     23  C   UNL     1       0.070  10.647  19.072  0.00  0.00    +0.000 A 
ATOM     24  C   UNL     1      -0.338  10.247  20.344  0.00  0.00    +0.000 A 
ATOM     25  C   UNL     1       0.247   9.131  20.946  0.00  0.00    +0.000 A 
ENDBRANCH  19  20
ENDBRANCH   5  19
TORSDOF 4
ENDMDL
MODEL 9
REMARK VINA RESULT:      -7.6      3.419      7.853
REMARK  Name = 
REMARK  4 active torsions:
REMARK  status: ('A' for Active; 'I' for Inactive)
REMARK    1  A    between atoms: C_5  and  C_6
REMARK    2  A    between atoms: N_8  and  C_9
REMARK    3  A    between atoms: C_13  and  O_14
REMARK    4  A    between atoms: O_14  and  C_15
REMARK                            x       y       z     vdW  Elec       q    Type
REMARK                         _______ _______ _______ _____ _____    ______ ____
ROOT
ATOM      1  C   UNL     1       3.173   4.802  18.480  0.00  0.00    +0.000 A 
ATOM      2  C   UNL     1       2.386   3.682  18.774  0.00  0.00    +0.000 A 
ATOM      3  C   UNL     1       1.477   3.700  19.835  0.00  0.00    +0.000 A 
ATOM      4  C   UNL     1       1.322   4.854  20.595  0.00  0.00    +0.000 A 
ATOM      5  C   UNL     1       2.094   5.978  20.307  0.00  0.00    +0.000 A 
ATOM      6  C   UNL     1       3.068   5.929  19.298  0.00  0.00    +0.000 A 
ENDROOT
BRANCH   1   9
ATOM      7  C   UNL     1       5.408   4.599  17.418  0.00  0.00    +0.000 C 
ATOM      8  O   UNL     1       6.085   4.285  18.386  0.00  0.00    +0.000 OA
ATOM      9  N   UNL     1       4.050   4.852  17.375  0.00  0.00    +0.000 N 
ATOM     10  H   UNL     1       3.653   4.984  16.448  0.00  0.00    +0.000 HD
BRANCH   7  15
ATOM     11  O   UNL     1       8.084   4.922  12.582  0.00  0.00    +0.000 OA
ATOM     12  C   UNL     1       7.397   4.873  13.600  0.00  0.00    +0.000 C 
ATOM     13  C   UNL     1       6.083   4.145  13.638  0.00  0.00    +0.000 C 
ATOM     14  C   UNL     1       5.708   3.701  15.031  0.00  0.00    +0.000 C 
ATOM     15  C   UNL     1       6.121   4.701  16.076  0.00  0.00    +0.000 C 
ATOM     16  N   UNL     1       7.088   5.559  15.929  0.00  0.00    +0.000 NA
ATOM     17  N   UNL     1       7.744   5.563  14.733  0.00  0.00    +0.000 N 
ATOM     18  H   UNL     1       8.593   6.121  14.677  0.00  0.00    +0.000 HD
ENDBRANCH   7  15
ENDBRANCH   1   9
BRANCH   5  19
ATOM     19  O   UNL     1       1.853   7.089  21.087  0.00  0.00    +0.000 OA
BRANCH  19  20
ATOM     20  C   UNL     1       1.235   8.184  20.520  0.00  0.00    +0.000 A 
ATOM     21  C   UNL     1       0.229   8.933  21.138  0.00  0.00    +0.000 A 
ATOM     22  C   UNL     1      -0.388   9.979  20.450  0.00  0.00    +0.000 A 
ATOM     23  C   UNL     1       0.043  10.318  19.169  0.00  0.00    +0.000 A 
ATOM     24  C   UNL     1       1.102   9.625  18.582  0.00  0.00    +0.000 A 
ATOM     25  C   UNL     1       1.699   8.560  19.259  0.00  0.00    +0.000 A 
ENDBRANCH  19  20
ENDBRANCH   5  19
TORSDOF 4
ENDMDL
