MODEL 1
REMARK VINA RESULT:      -7.0      0.000      0.000
REMARK  Name = 
REMARK  11 active torsions:
REMARK  status: ('A' for Active; 'I' for Inactive)
REMARK    1  A    between atoms: C_1  and  C_2
REMARK    2  A    between atoms: C_2  and  O_3
REMARK    3  A    between atoms: O_3  and  C_4
REMARK    4  A    between atoms: C_8  and  C_9
REMARK    5  A    between atoms: C_10  and  C_11
REMARK    6  A    between atoms: C_11  and  C_13
REMARK    7  A    between atoms: C_20  and  C_21
REMARK    8  A    between atoms: C_23  and  O_24
REMARK    9  A    between atoms: N_27  and  C_28
REMARK   10  A    between atoms: C_28  and  C_29
REMARK   11  A    between atoms: C_29  and  N_30
REMARK                            x       y       z     vdW  Elec       q    Type
REMARK                         _______ _______ _______ _____ _____    ______ ____
ROOT
ATOM      1  C   UNL     1      -1.336  12.805  20.348  0.00  0.00    +0.000 C 
ATOM      2  C   UNL     1      -0.795  11.967  21.473  0.00  0.00    +0.000 C 
ATOM      3  C   UNL     1       0.428  11.491  21.175  0.00  0.00    +0.000 C 
ATOM      4  C   UNL     1       0.838  12.047  19.866  0.00  0.00    +0.000 C 
ATOM      5  O   UNL     1       1.944  11.925  19.371  0.00  0.00    +0.000 OA
ATOM      6  N   UNL     1      -0.259  12.742  19.368  0.00  0.00    +0.000 N 
ENDROOT
BRANCH   1  11
ATOM      7  C   UNL     1      -3.847  11.084  18.023  0.00  0.00    +0.000 A 
ATOM      8  C   UNL     1      -5.059  11.646  18.429  0.00  0.00    +0.000 A 
ATOM      9  C   UNL     1      -5.079  12.583  19.473  0.00  0.00    +0.000 A 
ATOM     10  C   UNL     1      -3.905  12.945  20.127  0.00  0.00    +0.000 A 
ATOM     11  C   UNL     1      -2.672  12.420  19.715  0.00  0.00    +0.000 A 
ATOM     12  C   UNL     1      -2.669  11.483  18.654  0.00  0.00    +0.000 A 
BRANCH   7  13
ATOM     13  O   UNL     1      -3.944  10.152  17.026  0.00  0.00    +0.000 OA
BRANCH  13  15
ATOM     14  C   UNL     1      -3.116  10.365  14.795  0.00  0.00    +0.000 C 
ATOM     15  C   UNL     1      -2.784   9.955  16.218  0.00  0.00    +0.000 C 
ENDBRANCH  13  15
ENDBRANCH   7  13
ENDBRANCH   1  11
BRANCH   2  16
ATOM     16  C   UNL     1      -1.369  11.654  22.813  0.00  0.00    +0.000 C 
ATOM     17  O   UNL     1      -1.214  10.515  23.269  0.00  0.00    +0.000 OA
BRANCH  16  18
ATOM     18  C   UNL     1      -2.257  12.584  23.569  0.00  0.00    +0.000 A 
ATOM     19  C   UNL     1      -1.955  13.939  23.779  0.00  0.00    +0.000 A 
ATOM     20  C   UNL     1      -2.990  14.878  23.816  0.00  0.00    +0.000 A 
ATOM     21  C   UNL     1      -4.270  14.377  23.800  0.00  0.00    +0.000 A 
ATOM     22  C   UNL     1      -4.542  13.042  24.067  0.00  0.00    +0.000 A 
ATOM     23  C   UNL     1      -3.548  12.111  23.864  0.00  0.00    +0.000 A 
ATOM     24  C   UNL     1      -6.015  12.877  23.997  0.00  0.00    +0.000 C 
ATOM     25  C   UNL     1      -6.108  13.775  22.773  0.00  0.00    +0.000 C 
ATOM     26  C   UNL     1      -7.518  14.007  22.287  0.00  0.00    +0.000 C 
ATOM     27  O   UNL     1      -5.367  14.978  23.176  0.00  0.00    +0.000 OA
ENDBRANCH  16  18
ENDBRANCH   2  16
BRANCH   3  28
ATOM     28  O   UNL     1       1.247  10.695  21.929  0.00  0.00    +0.000 OA
ATOM     29  H   UNL     1       0.923   9.772  21.834  0.00  0.00    +0.000 HD
ENDBRANCH   3  28
BRANCH   6  30
ATOM     30  C   UNL     1      -0.134  13.736  18.299  0.00  0.00    +0.000 C 
BRANCH  30  31
ATOM     31  C   UNL     1       0.617  15.014  18.711  0.00  0.00    +0.000 C 
BRANCH  31  32
ATOM     32  N   UNL     1      -0.234  16.158  19.107  0.00  0.00    +0.000 NA
ATOM     33  C   UNL     1      -0.467  17.154  18.039  0.00  0.00    +0.000 C 
ATOM     34  C   UNL     1       0.782  17.956  17.648  0.00  0.00    +0.000 C 
ATOM     35  O   UNL     1       1.334  18.631  18.786  0.00  0.00    +0.000 OA
ATOM     36  C   UNL     1       1.644  17.701  19.833  0.00  0.00    +0.000 C 
ATOM     37  C   UNL     1       0.409  16.873  20.241  0.00  0.00    +0.000 C 
ENDBRANCH  31  32
ENDBRANCH  30  31
ENDBRANCH   6  30
TORSDOF 9
ENDMDL
MODEL 2
REMARK VINA RESULT:      -6.8      3.581      8.264
REMARK  Name = 
REMARK  11 active torsions:
REMARK  status: ('A' for Active; 'I' for Inactive)
REMARK    1  A    between atoms: C_1  and  C_2
REMARK    2  A    between atoms: C_2  and  O_3
REMARK    3  A    between atoms: O_3  and  C_4
REMARK    4  A    between atoms: C_8  and  C_9
REMARK    5  A    between atoms: C_10  and  C_11
REMARK    6  A    between atoms: C_11  and  C_13
REMARK    7  A    between atoms: C_20  and  C_21
REMARK    8  A    between atoms: C_23  and  O_24
REMARK    9  A    between atoms: N_27  and  C_28
REMARK   10  A    between atoms: C_28  and  C_29
REMARK   11  A    between atoms: C_29  and  N_30
REMARK                            x       y       z     vdW  Elec       q    Type
REMARK                         _______ _______ _______ _____ _____    ______ ____
ROOT
ATOM      1  C   UNL     1      -0.009  11.305  20.532  0.00  0.00    +0.000 C 
ATOM      2  C   UNL     1       0.342  10.260  21.554  0.00  0.00    +0.000 C 
ATOM      3  C   UNL     1      -0.396  10.410  22.669  0.00  0.00    +0.000 C 
ATOM      4  C   UNL     1      -1.358  11.512  22.447  0.00  0.00    +0.000 C 
ATOM      5  O   UNL     1      -2.261  11.815  23.205  0.00  0.00    +0.000 OA
ATOM      6  N   UNL     1      -1.042  12.073  21.215  0.00  0.00    +0.000 N 
ENDROOT
BRANCH   1  11
ATOM      7  C   UNL     1       2.771  13.941  20.518  0.00  0.00    +0.000 A 
ATOM      8  C   UNL     1       3.121  13.995  19.167  0.00  0.00    +0.000 A 
ATOM      9  C   UNL     1       2.468  13.165  18.244  0.00  0.00    +0.000 A 
ATOM     10  C   UNL     1       1.486  12.270  18.660  0.00  0.00    +0.000 A 
ATOM     11  C   UNL     1       1.094  12.222  20.005  0.00  0.00    +0.000 A 
ATOM     12  C   UNL     1       1.757  13.073  20.922  0.00  0.00    +0.000 A 
BRANCH   7  13
ATOM     13  O   UNL     1       3.497  14.760  21.338  0.00  0.00    +0.000 OA
BRANCH  13  15
ATOM     14  C   UNL     1       3.151  16.613  22.807  0.00  0.00    +0.000 C 
ATOM     15  C   UNL     1       3.120  16.136  21.366  0.00  0.00    +0.000 C 
ENDBRANCH  13  15
ENDBRANCH   7  13
ENDBRANCH   1  11
BRANCH   2  16
ATOM     16  C   UNL     1       1.296   9.116  21.486  0.00  0.00    +0.000 C 
ATOM     17  O   UNL     1       2.100   8.963  22.412  0.00  0.00    +0.000 OA
BRANCH  16  18
ATOM     18  C   UNL     1       1.448   8.237  20.290  0.00  0.00    +0.000 A 
ATOM     19  C   UNL     1       1.534   8.729  18.978  0.00  0.00    +0.000 A 
ATOM     20  C   UNL     1       2.335   8.065  18.044  0.00  0.00    +0.000 A 
ATOM     21  C   UNL     1       2.871   6.864  18.443  0.00  0.00    +0.000 A 
ATOM     22  C   UNL     1       2.396   6.179  19.554  0.00  0.00    +0.000 A 
ATOM     23  C   UNL     1       1.750   6.888  20.543  0.00  0.00    +0.000 A 
ATOM     24  C   UNL     1       3.179   4.921  19.656  0.00  0.00    +0.000 C 
ATOM     25  C   UNL     1       4.471   5.638  19.299  0.00  0.00    +0.000 C 
ATOM     26  C   UNL     1       5.671   4.727  19.198  0.00  0.00    +0.000 C 
ATOM     27  O   UNL     1       4.126   6.374  18.074  0.00  0.00    +0.000 OA
ENDBRANCH  16  18
ENDBRANCH   2  16
BRANCH   3  28
ATOM     28  O   UNL     1      -0.376   9.667  23.820  0.00  0.00    +0.000 OA
ATOM     29  H   UNL     1       0.065   8.814  23.607  0.00  0.00    +0.000 HD
ENDBRANCH   3  28
BRANCH   6  30
ATOM     30  C   UNL     1      -1.984  12.919  20.477  0.00  0.00    +0.000 C 
BRANCH  30  31
ATOM     31  C   UNL     1      -3.140  12.148  19.818  0.00  0.00    +0.000 C 
BRANCH  31  32
ATOM     32  N   UNL     1      -3.244  12.282  18.347  0.00  0.00    +0.000 NA
ATOM     33  C   UNL     1      -4.430  11.631  17.749  0.00  0.00    +0.000 C 
ATOM     34  C   UNL     1      -4.400  10.097  17.812  0.00  0.00    +0.000 C 
ATOM     35  O   UNL     1      -3.228   9.581  17.171  0.00  0.00    +0.000 OA
ATOM     36  C   UNL     1      -2.039  10.127  17.758  0.00  0.00    +0.000 C 
ATOM     37  C   UNL     1      -2.044  11.669  17.718  0.00  0.00    +0.000 C 
ENDBRANCH  31  32
ENDBRANCH  30  31
ENDBRANCH   6  30
TORSDOF 9
ENDMDL
MODEL 3
REMARK VINA RESULT:      -6.7      3.305      7.101
REMARK  Name = 
REMARK  11 active torsions:
REMARK  status: ('A' for Active; 'I' for Inactive)
REMARK    1  A    between atoms: C_1  and  C_2
REMARK    2  A    between atoms: C_2  and  O_3
REMARK    3  A    between atoms: O_3  and  C_4
REMARK    4  A    between atoms: C_8  and  C_9
REMARK    5  A    between atoms: C_10  and  C_11
REMARK    6  A    between atoms: C_11  and  C_13
REMARK    7  A    between atoms: C_20  and  C_21
REMARK    8  A    between atoms: C_23  and  O_24
REMARK    9  A    between atoms: N_27  and  C_28
REMARK   10  A    between atoms: C_28  and  C_29
REMARK   11  A    between atoms: C_29  and  N_30
REMARK                            x       y       z     vdW  Elec       q    Type
REMARK                         _______ _______ _______ _____ _____    ______ ____
ROOT
ATOM      1  C   UNL     1      -1.706  12.062  19.375  0.00  0.00    +0.000 C 
ATOM      2  C   UNL     1      -0.447  11.556  18.729  0.00  0.00    +0.000 C 
ATOM      3  C   UNL     1       0.449  12.548  18.576  0.00  0.00    +0.000 C 
ATOM      4  C   UNL     1      -0.106  13.776  19.187  0.00  0.00    +0.000 C 
ATOM      5  O   UNL     1       0.505  14.818  19.342  0.00  0.00    +0.000 OA
ATOM      6  N   UNL     1      -1.410  13.476  19.567  0.00  0.00    +0.000 N 
ENDROOT
BRANCH   1  11
ATOM      7  C   UNL     1      -5.487  11.877  18.788  0.00  0.00    +0.000 A 
ATOM      8  C   UNL     1      -5.560  11.527  17.438  0.00  0.00    +0.000 A 
ATOM      9  C   UNL     1      -4.382  11.361  16.696  0.00  0.00    +0.000 A 
ATOM     10  C   UNL     1      -3.136  11.560  17.284  0.00  0.00    +0.000 A 
ATOM     11  C   UNL     1      -3.036  11.878  18.645  0.00  0.00    +0.000 A 
ATOM     12  C   UNL     1      -4.235  12.033  19.382  0.00  0.00    +0.000 A 
BRANCH   7  13
ATOM     13  O   UNL     1      -6.694  12.055  19.408  0.00  0.00    +0.000 OA
BRANCH  13  15
ATOM     14  C   UNL     1      -7.299   9.854  20.115  0.00  0.00    +0.000 C 
ATOM     15  C   UNL     1      -6.943  11.258  20.566  0.00  0.00    +0.000 C 
ENDBRANCH  13  15
ENDBRANCH   7  13
ENDBRANCH   1  11
BRANCH   2  16
ATOM     16  C   UNL     1      -0.055  10.179  18.309  0.00  0.00    +0.000 C 
ATOM     17  O   UNL     1      -0.748   9.601  17.464  0.00  0.00    +0.000 OA
BRANCH  16  18
ATOM     18  C   UNL     1       1.029   9.394  18.966  0.00  0.00    +0.000 A 
ATOM     19  C   UNL     1       1.009   9.035  20.323  0.00  0.00    +0.000 A 
ATOM     20  C   UNL     1       1.563   7.815  20.722  0.00  0.00    +0.000 A 
ATOM     21  C   UNL     1       2.242   7.108  19.759  0.00  0.00    +0.000 A 
ATOM     22  C   UNL     1       2.650   7.692  18.568  0.00  0.00    +0.000 A 
ATOM     23  C   UNL     1       1.977   8.804  18.111  0.00  0.00    +0.000 A 
ATOM     24  C   UNL     1       3.376   6.650  17.799  0.00  0.00    +0.000 C 
ATOM     25  C   UNL     1       2.363   5.586  18.189  0.00  0.00    +0.000 C 
ATOM     26  C   UNL     1       2.692   4.206  17.674  0.00  0.00    +0.000 C 
ATOM     27  O   UNL     1       2.278   5.715  19.651  0.00  0.00    +0.000 OA
ENDBRANCH  16  18
ENDBRANCH   2  16
BRANCH   3  28
ATOM     28  O   UNL     1       1.706  12.496  18.033  0.00  0.00    +0.000 OA
ATOM     29  H   UNL     1       1.749  13.184  17.333  0.00  0.00    +0.000 HD
ENDBRANCH   3  28
BRANCH   6  30
ATOM     30  C   UNL     1      -2.148  14.291  20.535  0.00  0.00    +0.000 C 
BRANCH  30  31
ATOM     31  C   UNL     1      -2.202  13.692  21.951  0.00  0.00    +0.000 C 
BRANCH  31  32
ATOM     32  N   UNL     1      -2.852  14.536  22.979  0.00  0.00    +0.000 NA
ATOM     33  C   UNL     1      -3.016  13.887  24.298  0.00  0.00    +0.000 C 
ATOM     34  C   UNL     1      -4.033  12.736  24.307  0.00  0.00    +0.000 C 
ATOM     35  O   UNL     1      -5.318  13.185  23.859  0.00  0.00    +0.000 OA
ATOM     36  C   UNL     1      -5.231  13.764  22.550  0.00  0.00    +0.000 C 
ATOM     37  C   UNL     1      -4.209  14.919  22.507  0.00  0.00    +0.000 C 
ENDBRANCH  31  32
ENDBRANCH  30  31
ENDBRANCH   6  30
TORSDOF 9
ENDMDL
MODEL 4
REMARK VINA RESULT:      -6.7      3.625      8.156
REMARK  Name = 
REMARK  11 active torsions:
REMARK  status: ('A' for Active; 'I' for Inactive)
REMARK    1  A    between atoms: C_1  and  C_2
REMARK    2  A    between atoms: C_2  and  O_3
REMARK    3  A    between atoms: O_3  and  C_4
REMARK    4  A    between atoms: C_8  and  C_9
REMARK    5  A    between atoms: C_10  and  C_11
REMARK    6  A    between atoms: C_11  and  C_13
REMARK    7  A    between atoms: C_20  and  C_21
REMARK    8  A    between atoms: C_23  and  O_24
REMARK    9  A    between atoms: N_27  and  C_28
REMARK   10  A    between atoms: C_28  and  C_29
REMARK   11  A    between atoms: C_29  and  N_30
REMARK                            x       y       z     vdW  Elec       q    Type
REMARK                         _______ _______ _______ _____ _____    ______ ____
ROOT
ATOM      1  C   UNL     1      -0.194  11.482  20.484  0.00  0.00    +0.000 C 
ATOM      2  C   UNL     1       0.177  10.445  21.508  0.00  0.00    +0.000 C 
ATOM      3  C   UNL     1      -0.584  10.563  22.611  0.00  0.00    +0.000 C 
ATOM      4  C   UNL     1      -1.583  11.630  22.377  0.00  0.00    +0.000 C 
ATOM      5  O   UNL     1      -2.509  11.896  23.121  0.00  0.00    +0.000 OA
ATOM      6  N   UNL     1      -1.266  12.208  21.153  0.00  0.00    +0.000 N 
ENDROOT
BRANCH   1  11
ATOM      7  C   UNL     1       2.464  14.239  20.522  0.00  0.00    +0.000 A 
ATOM      8  C   UNL     1       2.855  14.292  19.182  0.00  0.00    +0.000 A 
ATOM      9  C   UNL     1       2.269  13.422  18.250  0.00  0.00    +0.000 A 
ATOM     10  C   UNL     1       1.316  12.489  18.648  0.00  0.00    +0.000 A 
ATOM     11  C   UNL     1       0.883  12.440  19.980  0.00  0.00    +0.000 A 
ATOM     12  C   UNL     1       1.478  13.332  20.906  0.00  0.00    +0.000 A 
BRANCH   7  13
ATOM     13  O   UNL     1       3.126  15.100  21.353  0.00  0.00    +0.000 OA
BRANCH  13  15
ATOM     14  C   UNL     1       5.030  14.008  22.297  0.00  0.00    +0.000 C 
ATOM     15  C   UNL     1       4.552  15.060  21.314  0.00  0.00    +0.000 C 
ENDBRANCH  13  15
ENDBRANCH   7  13
ENDBRANCH   1  11
BRANCH   2  16
ATOM     16  C   UNL     1       1.173   9.337  21.452  0.00  0.00    +0.000 C 
ATOM     17  O   UNL     1       2.000   9.241  22.366  0.00  0.00    +0.000 OA
BRANCH  16  18
ATOM     18  C   UNL     1       1.336   8.432  20.277  0.00  0.00    +0.000 A 
ATOM     19  C   UNL     1       1.421   8.893  18.954  0.00  0.00    +0.000 A 
ATOM     20  C   UNL     1       2.231   8.215  18.038  0.00  0.00    +0.000 A 
ATOM     21  C   UNL     1       2.776   7.028  18.467  0.00  0.00    +0.000 A 
ATOM     22  C   UNL     1       2.305   6.365  19.592  0.00  0.00    +0.000 A 
ATOM     23  C   UNL     1       1.650   7.091  20.562  0.00  0.00    +0.000 A 
ATOM     24  C   UNL     1       3.097   5.118  19.725  0.00  0.00    +0.000 C 
ATOM     25  C   UNL     1       4.385   5.837  19.355  0.00  0.00    +0.000 C 
ATOM     26  C   UNL     1       5.593   4.935  19.279  0.00  0.00    +0.000 C 
ATOM     27  O   UNL     1       4.037   6.541  18.113  0.00  0.00    +0.000 OA
ENDBRANCH  16  18
ENDBRANCH   2  16
BRANCH   3  28
ATOM     28  O   UNL     1      -0.556   9.816  23.759  0.00  0.00    +0.000 OA
ATOM     29  H   UNL     1       0.227  10.106  24.276  0.00  0.00    +0.000 HD
ENDBRANCH   3  28
BRANCH   6  30
ATOM     30  C   UNL     1      -2.226  13.022  20.402  0.00  0.00    +0.000 C 
BRANCH  30  31
ATOM     31  C   UNL     1      -2.750  12.357  19.119  0.00  0.00    +0.000 C 
BRANCH  31  32
ATOM     32  N   UNL     1      -3.934  11.485  19.286  0.00  0.00    +0.000 NA
ATOM     33  C   UNL     1      -4.475  10.928  18.027  0.00  0.00    +0.000 C 
ATOM     34  C   UNL     1      -5.121  11.973  17.107  0.00  0.00    +0.000 C 
ATOM     35  O   UNL     1      -6.174  12.671  17.784  0.00  0.00    +0.000 OA
ATOM     36  C   UNL     1      -5.690  13.291  18.983  0.00  0.00    +0.000 C 
ATOM     37  C   UNL     1      -5.026  12.266  19.925  0.00  0.00    +0.000 C 
ENDBRANCH  31  32
ENDBRANCH  30  31
ENDBRANCH   6  30
TORSDOF 9
ENDMDL
MODEL 5
REMARK VINA RESULT:      -6.7      3.463      7.920
REMARK  Name = 
REMARK  11 active torsions:
REMARK  status: ('A' for Active; 'I' for Inactive)
REMARK    1  A    between atoms: C_1  and  C_2
REMARK    2  A    between atoms: C_2  and  O_3
REMARK    3  A    between atoms: O_3  and  C_4
REMARK    4  A    between atoms: C_8  and  C_9
REMARK    5  A    between atoms: C_10  and  C_11
REMARK    6  A    between atoms: C_11  and  C_13
REMARK    7  A    between atoms: C_20  and  C_21
REMARK    8  A    between atoms: C_23  and  O_24
REMARK    9  A    between atoms: N_27  and  C_28
REMARK   10  A    between atoms: C_28  and  C_29
REMARK   11  A    between atoms: C_29  and  N_30
REMARK                            x       y       z     vdW  Elec       q    Type
REMARK                         _______ _______ _______ _____ _____    ______ ____
ROOT
ATOM      1  C   UNL     1      -0.192  11.790  20.808  0.00  0.00    +0.000 C 
ATOM      2  C   UNL     1       0.126  10.593  21.661  0.00  0.00    +0.000 C 
ATOM      3  C   UNL     1      -0.754  10.474  22.672  0.00  0.00    +0.000 C 
ATOM      4  C   UNL     1      -1.780  11.530  22.523  0.00  0.00    +0.000 C 
ATOM      5  O   UNL     1      -2.794  11.619  23.192  0.00  0.00    +0.000 OA
ATOM      6  N   UNL     1      -1.368  12.339  21.470  0.00  0.00    +0.000 N 
ENDROOT
BRANCH   1  11
ATOM      7  C   UNL     1       2.670  13.763  19.200  0.00  0.00    +0.000 A 
ATOM      8  C   UNL     1       2.914  14.758  20.149  0.00  0.00    +0.000 A 
ATOM      9  C   UNL     1       2.143  14.809  21.319  0.00  0.00    +0.000 A 
ATOM     10  C   UNL     1       1.119  13.892  21.538  0.00  0.00    +0.000 A 
ATOM     11  C   UNL     1       0.878  12.864  20.616  0.00  0.00    +0.000 A 
ATOM     12  C   UNL     1       1.672  12.821  19.445  0.00  0.00    +0.000 A 
BRANCH   7  13
ATOM     13  O   UNL     1       3.450  13.829  18.077  0.00  0.00    +0.000 OA
BRANCH  13  15
ATOM     14  C   UNL     1       5.695  14.622  17.870  0.00  0.00    +0.000 C 
ATOM     15  C   UNL     1       4.228  15.013  17.906  0.00  0.00    +0.000 C 
ENDBRANCH  13  15
ENDBRANCH   7  13
ENDBRANCH   1  11
BRANCH   2  16
ATOM     16  C   UNL     1       1.183   9.551  21.518  0.00  0.00    +0.000 C 
ATOM     17  O   UNL     1       2.096   9.520  22.351  0.00  0.00    +0.000 OA
BRANCH  16  18
ATOM     18  C   UNL     1       1.294   8.644  20.339  0.00  0.00    +0.000 A 
ATOM     19  C   UNL     1       1.364   9.105  19.015  0.00  0.00    +0.000 A 
ATOM     20  C   UNL     1       2.135   8.404  18.082  0.00  0.00    +0.000 A 
ATOM     21  C   UNL     1       2.654   7.202  18.497  0.00  0.00    +0.000 A 
ATOM     22  C   UNL     1       2.187   6.551  19.631  0.00  0.00    +0.000 A 
ATOM     23  C   UNL     1       1.575   7.294  20.616  0.00  0.00    +0.000 A 
ATOM     24  C   UNL     1       2.946   5.281  19.746  0.00  0.00    +0.000 C 
ATOM     25  C   UNL     1       4.245   5.962  19.349  0.00  0.00    +0.000 C 
ATOM     26  C   UNL     1       5.425   5.026  19.246  0.00  0.00    +0.000 C 
ATOM     27  O   UNL     1       3.892   6.679  18.115  0.00  0.00    +0.000 OA
ENDBRANCH  16  18
ENDBRANCH   2  16
BRANCH   3  28
ATOM     28  O   UNL     1      -0.807   9.526  23.659  0.00  0.00    +0.000 OA
ATOM     29  H   UNL     1      -1.692   9.102  23.607  0.00  0.00    +0.000 HD
ENDBRANCH   3  28
BRANCH   6  30
ATOM     30  C   UNL     1      -2.286  13.246  20.776  0.00  0.00    +0.000 C 
BRANCH  30  31
ATOM     31  C   UNL     1      -2.611  12.830  19.331  0.00  0.00    +0.000 C 
BRANCH  31  32
ATOM     32  N   UNL     1      -3.160  11.465  19.166  0.00  0.00    +0.000 NA
ATOM     33  C   UNL     1      -2.459  10.634  18.163  0.00  0.00    +0.000 C 
ATOM     34  C   UNL     1      -2.651  11.108  16.715  0.00  0.00    +0.000 C 
ATOM     35  O   UNL     1      -4.042  11.157  16.372  0.00  0.00    +0.000 OA
ATOM     36  C   UNL     1      -4.763  12.006  17.275  0.00  0.00    +0.000 C 
ATOM     37  C   UNL     1      -4.581  11.561  18.741  0.00  0.00    +0.000 C 
ENDBRANCH  31  32
ENDBRANCH  30  31
ENDBRANCH   6  30
TORSDOF 9
ENDMDL
MODEL 6
REMARK VINA RESULT:      -6.6      3.553      8.254
REMARK  Name = 
REMARK  11 active torsions:
REMARK  status: ('A' for Active; 'I' for Inactive)
REMARK    1  A    between atoms: C_1  and  C_2
REMARK    2  A    between atoms: C_2  and  O_3
REMARK    3  A    between atoms: O_3  and  C_4
REMARK    4  A    between atoms: C_8  and  C_9
REMARK    5  A    between atoms: C_10  and  C_11
REMARK    6  A    between atoms: C_11  and  C_13
REMARK    7  A    between atoms: C_20  and  C_21
REMARK    8  A    between atoms: C_23  and  O_24
REMARK    9  A    between atoms: N_27  and  C_28
REMARK   10  A    between atoms: C_28  and  C_29
REMARK   11  A    between atoms: C_29  and  N_30
REMARK                            x       y       z     vdW  Elec       q    Type
REMARK                         _______ _______ _______ _____ _____    ______ ____
ROOT
ATOM      1  C   UNL     1      -0.158  11.510  20.531  0.00  0.00    +0.000 C 
ATOM      2  C   UNL     1       0.205  10.467  21.551  0.00  0.00    +0.000 C 
ATOM      3  C   UNL     1      -0.531  10.608  22.668  0.00  0.00    +0.000 C 
ATOM      4  C   UNL     1      -1.505  11.700  22.450  0.00  0.00    +0.000 C 
ATOM      5  O   UNL     1      -2.409  11.993  23.211  0.00  0.00    +0.000 OA
ATOM      6  N   UNL     1      -1.197  12.267  21.218  0.00  0.00    +0.000 N 
ENDROOT
BRANCH   1  11
ATOM      7  C   UNL     1       2.542  14.227  20.500  0.00  0.00    +0.000 A 
ATOM      8  C   UNL     1       2.935  14.238  19.160  0.00  0.00    +0.000 A 
ATOM      9  C   UNL     1       2.338  13.353  18.251  0.00  0.00    +0.000 A 
ATOM     10  C   UNL     1       1.370  12.446  18.671  0.00  0.00    +0.000 A 
ATOM     11  C   UNL     1       0.934  12.439  20.004  0.00  0.00    +0.000 A 
ATOM     12  C   UNL     1       1.542  13.345  20.906  0.00  0.00    +0.000 A 
BRANCH   7  13
ATOM     13  O   UNL     1       3.216  15.100  21.309  0.00  0.00    +0.000 OA
BRANCH  13  15
ATOM     14  C   UNL     1       3.361  17.448  20.886  0.00  0.00    +0.000 C 
ATOM     15  C   UNL     1       4.010  16.094  20.661  0.00  0.00    +0.000 C 
ENDBRANCH  13  15
ENDBRANCH   7  13
ENDBRANCH   1  11
BRANCH   2  16
ATOM     16  C   UNL     1       1.171   9.333  21.479  0.00  0.00    +0.000 C 
ATOM     17  O   UNL     1       1.989   9.196  22.395  0.00  0.00    +0.000 OA
BRANCH  16  18
ATOM     18  C   UNL     1       1.314   8.446  20.288  0.00  0.00    +0.000 A 
ATOM     19  C   UNL     1       1.445   8.930  18.977  0.00  0.00    +0.000 A 
ATOM     20  C   UNL     1       2.241   8.234  18.062  0.00  0.00    +0.000 A 
ATOM     21  C   UNL     1       2.724   7.015  18.474  0.00  0.00    +0.000 A 
ATOM     22  C   UNL     1       2.202   6.352  19.576  0.00  0.00    +0.000 A 
ATOM     23  C   UNL     1       1.562   7.086  20.550  0.00  0.00    +0.000 A 
ATOM     24  C   UNL     1       2.935   5.067  19.697  0.00  0.00    +0.000 C 
ATOM     25  C   UNL     1       4.260   5.734  19.365  0.00  0.00    +0.000 C 
ATOM     26  C   UNL     1       5.428   4.780  19.292  0.00  0.00    +0.000 C 
ATOM     27  O   UNL     1       3.968   6.479  18.132  0.00  0.00    +0.000 OA
ENDBRANCH  16  18
ENDBRANCH   2  16
BRANCH   3  28
ATOM     28  O   UNL     1      -0.501   9.863  23.817  0.00  0.00    +0.000 OA
ATOM     29  H   UNL     1      -1.042   9.059  23.656  0.00  0.00    +0.000 HD
ENDBRANCH   3  28
BRANCH   6  30
ATOM     30  C   UNL     1      -2.149  13.105  20.484  0.00  0.00    +0.000 C 
BRANCH  30  31
ATOM     31  C   UNL     1      -3.432  12.374  20.055  0.00  0.00    +0.000 C 
BRANCH  31  32
ATOM     32  N   UNL     1      -4.641  13.219  19.931  0.00  0.00    +0.000 NA
ATOM     33  C   UNL     1      -5.150  13.761  21.210  0.00  0.00    +0.000 C 
ATOM     34  C   UNL     1      -5.741  12.698  22.148  0.00  0.00    +0.000 C 
ATOM     35  O   UNL     1      -6.801  11.980  21.505  0.00  0.00    +0.000 OA
ATOM     36  C   UNL     1      -6.345  11.373  20.288  0.00  0.00    +0.000 C 
ATOM     37  C   UNL     1      -5.737  12.416  19.328  0.00  0.00    +0.000 C 
ENDBRANCH  31  32
ENDBRANCH  30  31
ENDBRANCH   6  30
TORSDOF 9
ENDMDL
MODEL 7
REMARK VINA RESULT:      -6.6      3.424      6.985
REMARK  Name = 
REMARK  11 active torsions:
REMARK  status: ('A' for Active; 'I' for Inactive)
REMARK    1  A    between atoms: C_1  and  C_2
REMARK    2  A    between atoms: C_2  and  O_3
REMARK    3  A    between atoms: O_3  and  C_4
REMARK    4  A    between atoms: C_8  and  C_9
REMARK    5  A    between atoms: C_10  and  C_11
REMARK    6  A    between atoms: C_11  and  C_13
REMARK    7  A    between atoms: C_20  and  C_21
REMARK    8  A    between atoms: C_23  and  O_24
REMARK    9  A    between atoms: N_27  and  C_28
REMARK   10  A    between atoms: C_28  and  C_29
REMARK   11  A    between atoms: C_29  and  N_30
REMARK                            x       y       z     vdW  Elec       q    Type
REMARK                         _______ _______ _______ _____ _____    ______ ____
ROOT
ATOM      1  C   UNL     1      -1.291  11.659  19.287  0.00  0.00    +0.000 C 
ATOM      2  C   UNL     1      -0.004  11.172  18.682  0.00  0.00    +0.000 C 
ATOM      3  C   UNL     1       0.917  12.153  18.656  0.00  0.00    +0.000 C 
ATOM      4  C   UNL     1       0.348  13.345  19.322  0.00  0.00    +0.000 C 
ATOM      5  O   UNL     1       0.967  14.359  19.589  0.00  0.00    +0.000 OA
ATOM      6  N   UNL     1      -0.982  13.048  19.600  0.00  0.00    +0.000 N 
ENDROOT
BRANCH   1  11
ATOM      7  C   UNL     1      -3.599  11.386  16.242  0.00  0.00    +0.000 A 
ATOM      8  C   UNL     1      -4.866  11.406  16.828  0.00  0.00    +0.000 A 
ATOM      9  C   UNL     1      -4.988  11.494  18.222  0.00  0.00    +0.000 A 
ATOM     10  C   UNL     1      -3.859  11.541  19.034  0.00  0.00    +0.000 A 
ATOM     11  C   UNL     1      -2.577  11.557  18.467  0.00  0.00    +0.000 A 
ATOM     12  C   UNL     1      -2.472  11.477  17.057  0.00  0.00    +0.000 A 
BRANCH   7  13
ATOM     13  O   UNL     1      -3.592  11.256  14.880  0.00  0.00    +0.000 OA
BRANCH  13  15
ATOM     14  C   UNL     1      -3.819   9.773  13.019  0.00  0.00    +0.000 C 
ATOM     15  C   UNL     1      -3.142  10.006  14.358  0.00  0.00    +0.000 C 
ENDBRANCH  13  15
ENDBRANCH   7  13
ENDBRANCH   1  11
BRANCH   2  16
ATOM     16  C   UNL     1       0.388   9.821  18.186  0.00  0.00    +0.000 C 
ATOM     17  O   UNL     1      -0.259   9.323  17.258  0.00  0.00    +0.000 OA
BRANCH  16  18
ATOM     18  C   UNL     1       1.413   8.964  18.850  0.00  0.00    +0.000 A 
ATOM     19  C   UNL     1       1.362   8.613  20.209  0.00  0.00    +0.000 A 
ATOM     20  C   UNL     1       1.828   7.359  20.614  0.00  0.00    +0.000 A 
ATOM     21  C   UNL     1       2.459   6.602  19.656  0.00  0.00    +0.000 A 
ATOM     22  C   UNL     1       2.912   7.152  18.464  0.00  0.00    +0.000 A 
ATOM     23  C   UNL     1       2.320   8.307  18.001  0.00  0.00    +0.000 A 
ATOM     24  C   UNL     1       3.566   6.059  17.702  0.00  0.00    +0.000 C 
ATOM     25  C   UNL     1       2.479   5.070  18.092  0.00  0.00    +0.000 C 
ATOM     26  C   UNL     1       2.712   3.668  17.582  0.00  0.00    +0.000 C 
ATOM     27  O   UNL     1       2.398   5.210  19.553  0.00  0.00    +0.000 OA
ENDBRANCH  16  18
ENDBRANCH   2  16
BRANCH   3  28
ATOM     28  O   UNL     1       2.204  12.112  18.187  0.00  0.00    +0.000 OA
ATOM     29  H   UNL     1       2.154  12.026  17.210  0.00  0.00    +0.000 HD
ENDBRANCH   3  28
BRANCH   6  30
ATOM     30  C   UNL     1      -1.764  13.807  20.579  0.00  0.00    +0.000 C 
BRANCH  30  31
ATOM     31  C   UNL     1      -1.971  13.080  21.919  0.00  0.00    +0.000 C 
BRANCH  31  32
ATOM     32  N   UNL     1      -3.374  12.761  22.266  0.00  0.00    +0.000 NA
ATOM     33  C   UNL     1      -4.354  13.808  21.902  0.00  0.00    +0.000 C 
ATOM     34  C   UNL     1      -4.228  15.096  22.728  0.00  0.00    +0.000 C 
ATOM     35  O   UNL     1      -4.357  14.821  24.129  0.00  0.00    +0.000 OA
ATOM     36  C   UNL     1      -3.382  13.859  24.554  0.00  0.00    +0.000 C 
ATOM     37  C   UNL     1      -3.477  12.555  23.735  0.00  0.00    +0.000 C 
ENDBRANCH  31  32
ENDBRANCH  30  31
ENDBRANCH   6  30
TORSDOF 9
ENDMDL
MODEL 8
REMARK VINA RESULT:      -6.5      3.654      7.932
REMARK  Name = 
REMARK  11 active torsions:
REMARK  status: ('A' for Active; 'I' for Inactive)
REMARK    1  A    between atoms: C_1  and  C_2
REMARK    2  A    between atoms: C_2  and  O_3
REMARK    3  A    between atoms: O_3  and  C_4
REMARK    4  A    between atoms: C_8  and  C_9
REMARK    5  A    between atoms: C_10  and  C_11
REMARK    6  A    between atoms: C_11  and  C_13
REMARK    7  A    between atoms: C_20  and  C_21
REMARK    8  A    between atoms: C_23  and  O_24
REMARK    9  A    between atoms: N_27  and  C_28
REMARK   10  A    between atoms: C_28  and  C_29
REMARK   11  A    between atoms: C_29  and  N_30
REMARK                            x       y       z     vdW  Elec       q    Type
REMARK                         _______ _______ _______ _____ _____    ______ ____
ROOT
ATOM      1  C   UNL     1      -0.306  11.355  20.683  0.00  0.00    +0.000 C 
ATOM      2  C   UNL     1       0.183  10.333  21.671  0.00  0.00    +0.000 C 
ATOM      3  C   UNL     1      -0.504  10.412  22.826  0.00  0.00    +0.000 C 
ATOM      4  C   UNL     1      -1.564  11.432  22.668  0.00  0.00    +0.000 C 
ATOM      5  O   UNL     1      -2.448  11.652  23.477  0.00  0.00    +0.000 OA
ATOM      6  N   UNL     1      -1.361  12.029  21.429  0.00  0.00    +0.000 N 
ENDROOT
BRANCH   1  11
ATOM      7  C   UNL     1       2.209  14.241  20.553  0.00  0.00    +0.000 A 
ATOM      8  C   UNL     1       2.512  14.309  19.192  0.00  0.00    +0.000 A 
ATOM      9  C   UNL     1       1.913  13.409  18.298  0.00  0.00    +0.000 A 
ATOM     10  C   UNL     1       1.034  12.431  18.755  0.00  0.00    +0.000 A 
ATOM     11  C   UNL     1       0.689  12.365  20.112  0.00  0.00    +0.000 A 
ATOM     12  C   UNL     1       1.296  13.287  20.999  0.00  0.00    +0.000 A 
BRANCH   7  13
ATOM     13  O   UNL     1       2.879  15.137  21.342  0.00  0.00    +0.000 OA
BRANCH  13  15
ATOM     14  C   UNL     1       5.050  14.334  21.939  0.00  0.00    +0.000 C 
ATOM     15  C   UNL     1       4.271  15.310  21.075  0.00  0.00    +0.000 C 
ENDBRANCH  13  15
ENDBRANCH   7  13
ENDBRANCH   1  11
BRANCH   2  16
ATOM     16  C   UNL     1       1.223   9.273  21.539  0.00  0.00    +0.000 C 
ATOM     17  O   UNL     1       2.101   9.197  22.405  0.00  0.00    +0.000 OA
BRANCH  16  18
ATOM     18  C   UNL     1       1.362   8.399  20.337  0.00  0.00    +0.000 A 
ATOM     19  C   UNL     1       1.452   8.896  19.028  0.00  0.00    +0.000 A 
ATOM     20  C   UNL     1       2.244   8.227  18.090  0.00  0.00    +0.000 A 
ATOM     21  C   UNL     1       2.766   7.018  18.481  0.00  0.00    +0.000 A 
ATOM     22  C   UNL     1       2.284   6.333  19.589  0.00  0.00    +0.000 A 
ATOM     23  C   UNL     1       1.649   7.044  20.583  0.00  0.00    +0.000 A 
ATOM     24  C   UNL     1       3.052   5.066  19.683  0.00  0.00    +0.000 C 
ATOM     25  C   UNL     1       4.352   5.768  19.327  0.00  0.00    +0.000 C 
ATOM     26  C   UNL     1       5.541   4.844  19.220  0.00  0.00    +0.000 C 
ATOM     27  O   UNL     1       4.014   6.515  18.108  0.00  0.00    +0.000 OA
ENDBRANCH  16  18
ENDBRANCH   2  16
BRANCH   3  28
ATOM     28  O   UNL     1      -0.362   9.662  23.963  0.00  0.00    +0.000 OA
ATOM     29  H   UNL     1       0.337  10.088  24.506  0.00  0.00    +0.000 HD
ENDBRANCH   3  28
BRANCH   6  30
ATOM     30  C   UNL     1      -2.407  12.801  20.752  0.00  0.00    +0.000 C 
BRANCH  30  31
ATOM     31  C   UNL     1      -2.553  14.245  21.261  0.00  0.00    +0.000 C 
BRANCH  31  32
ATOM     32  N   UNL     1      -3.909  14.828  21.153  0.00  0.00    +0.000 NA
ATOM     33  C   UNL     1      -3.995  16.263  21.501  0.00  0.00    +0.000 C 
ATOM     34  C   UNL     1      -3.764  16.560  22.990  0.00  0.00    +0.000 C 
ATOM     35  O   UNL     1      -4.694  15.838  23.806  0.00  0.00    +0.000 OA
ATOM     36  C   UNL     1      -4.607  14.428  23.559  0.00  0.00    +0.000 C 
ATOM     37  C   UNL     1      -4.826  14.099  22.068  0.00  0.00    +0.000 C 
ENDBRANCH  31  32
ENDBRANCH  30  31
ENDBRANCH   6  30
TORSDOF 9
ENDMDL
MODEL 9
REMARK VINA RESULT:      -6.5      3.401      6.987
REMARK  Name = 
REMARK  11 active torsions:
REMARK  status: ('A' for Active; 'I' for Inactive)
REMARK    1  A    between atoms: C_1  and  C_2
REMARK    2  A    between atoms: C_2  and  O_3
REMARK    3  A    between atoms: O_3  and  C_4
REMARK    4  A    between atoms: C_8  and  C_9
REMARK    5  A    between atoms: C_10  and  C_11
REMARK    6  A    between atoms: C_11  and  C_13
REMARK    7  A    between atoms: C_20  and  C_21
REMARK    8  A    between atoms: C_23  and  O_24
REMARK    9  A    between atoms: N_27  and  C_28
REMARK   10  A    between atoms: C_28  and  C_29
REMARK   11  A    between atoms: C_29  and  N_30
REMARK                            x       y       z     vdW  Elec       q    Type
REMARK                         _______ _______ _______ _____ _____    ______ ____
ROOT
ATOM      1  C   UNL     1      -1.081  11.685  19.076  0.00  0.00    +0.000 C 
ATOM      2  C   UNL     1       0.261  11.164  18.643  0.00  0.00    +0.000 C 
ATOM      3  C   UNL     1       1.176  12.150  18.620  0.00  0.00    +0.000 C 
ATOM      4  C   UNL     1       0.539  13.389  19.120  0.00  0.00    +0.000 C 
ATOM      5  O   UNL     1       1.125  14.430  19.355  0.00  0.00    +0.000 OA
ATOM      6  N   UNL     1      -0.810  13.100  19.293  0.00  0.00    +0.000 N 
ENDROOT
BRANCH   1  11
ATOM      7  C   UNL     1      -4.717  11.284  17.941  0.00  0.00    +0.000 A 
ATOM      8  C   UNL     1      -4.580  11.112  16.562  0.00  0.00    +0.000 A 
ATOM      9  C   UNL     1      -3.304  11.138  15.980  0.00  0.00    +0.000 A 
ATOM     10  C   UNL     1      -2.171  11.354  16.758  0.00  0.00    +0.000 A 
ATOM     11  C   UNL     1      -2.280  11.495  18.148  0.00  0.00    +0.000 A 
ATOM     12  C   UNL     1      -3.575  11.458  18.720  0.00  0.00    +0.000 A 
BRANCH   7  13
ATOM     13  O   UNL     1      -6.006  11.283  18.400  0.00  0.00    +0.000 OA
BRANCH  13  15
ATOM     14  C   UNL     1      -7.687  12.919  18.859  0.00  0.00    +0.000 C 
ATOM     15  C   UNL     1      -6.909  12.195  17.775  0.00  0.00    +0.000 C 
ENDBRANCH  13  15
ENDBRANCH   7  13
ENDBRANCH   1  11
BRANCH   2  16
ATOM     16  C   UNL     1       0.705   9.780  18.310  0.00  0.00    +0.000 C 
ATOM     17  O   UNL     1       0.354   9.292  17.229  0.00  0.00    +0.000 OA
BRANCH  16  18
ATOM     18  C   UNL     1       1.415   8.887  19.271  0.00  0.00    +0.000 A 
ATOM     19  C   UNL     1       1.087   8.804  20.633  0.00  0.00    +0.000 A 
ATOM     20  C   UNL     1       1.212   7.581  21.299  0.00  0.00    +0.000 A 
ATOM     21  C   UNL     1       1.808   6.561  20.597  0.00  0.00    +0.000 A 
ATOM     22  C   UNL     1       2.541   6.793  19.441  0.00  0.00    +0.000 A 
ATOM     23  C   UNL     1       2.282   7.932  18.710  0.00  0.00    +0.000 A 
ATOM     24  C   UNL     1       3.058   5.479  18.984  0.00  0.00    +0.000 C 
ATOM     25  C   UNL     1       1.742   4.791  19.309  0.00  0.00    +0.000 C 
ATOM     26  C   UNL     1       1.750   3.302  19.065  0.00  0.00    +0.000 C 
ATOM     27  O   UNL     1       1.472   5.208  20.692  0.00  0.00    +0.000 OA
ENDBRANCH  16  18
ENDBRANCH   2  16
BRANCH   3  28
ATOM     28  O   UNL     1       2.502  12.085  18.283  0.00  0.00    +0.000 OA
ATOM     29  H   UNL     1       3.015  12.409  19.056  0.00  0.00    +0.000 HD
ENDBRANCH   3  28
BRANCH   6  30
ATOM     30  C   UNL     1      -1.687  13.931  20.122  0.00  0.00    +0.000 C 
BRANCH  30  31
ATOM     31  C   UNL     1      -1.812  13.457  21.580  0.00  0.00    +0.000 C 
BRANCH  31  32
ATOM     32  N   UNL     1      -2.751  14.227  22.426  0.00  0.00    +0.000 NA
ATOM     33  C   UNL     1      -2.901  13.716  23.806  0.00  0.00    +0.000 C 
ATOM     34  C   UNL     1      -3.613  12.359  23.896  0.00  0.00    +0.000 C 
ATOM     35  O   UNL     1      -4.910  12.420  23.290  0.00  0.00    +0.000 OA
ATOM     36  C   UNL     1      -4.819  12.846  21.924  0.00  0.00    +0.000 C 
ATOM     37  C   UNL     1      -4.099  14.205  21.800  0.00  0.00    +0.000 C 
ENDBRANCH  31  32
ENDBRANCH  30  31
ENDBRANCH   6  30
TORSDOF 9
ENDMDL
