MODEL 1
REMARK VINA RESULT:      -6.9      0.000      0.000
REMARK  Name = 
REMARK  7 active torsions:
REMARK  status: ('A' for Active; 'I' for Inactive)
REMARK    1  A    between atoms: C_1  and  C_2
REMARK    2  A    between atoms: C_4  and  C_5
REMARK    3  A    between atoms: C_13  and  S_14
REMARK    4  A    between atoms: S_14  and  C_15
REMARK    5  A    between atoms: C_15  and  C_16
REMARK    6  A    between atoms: N_18  and  C_19
REMARK    7  A    between atoms: C_19  and  C_20
REMARK                            x       y       z     vdW  Elec       q    Type
REMARK                         _______ _______ _______ _____ _____    ______ ____
ROOT
ATOM      1  C   UNL     1      -0.475  14.598  19.940  0.00  0.00    +0.000 C 
ATOM      2  C   UNL     1       0.004  13.175  19.931  0.00  0.00    +0.000 A 
ATOM      3  C   UNL     1      -0.067  12.403  21.096  0.00  0.00    +0.000 A 
ATOM      4  C   UNL     1       0.380  11.069  21.136  0.00  0.00    +0.000 A 
ATOM      5  C   UNL     1       0.273  10.288  22.418  0.00  0.00    +0.000 C 
ATOM      6  C   UNL     1       0.908  10.516  19.944  0.00  0.00    +0.000 A 
ATOM      7  C   UNL     1       0.966  11.300  18.786  0.00  0.00    +0.000 A 
ATOM      8  C   UNL     1       0.526  12.626  18.751  0.00  0.00    +0.000 A 
ATOM      9  N   UNL     1       1.508  10.516  17.784  0.00  0.00    +0.000 N 
ATOM     10  C   UNL     1       1.776   9.270  18.264  0.00  0.00    +0.000 A 
ATOM     11  N   UNL     1       2.280   8.226  17.590  0.00  0.00    +0.000 NA
ATOM     12  N   UNL     1       2.420   7.113  18.310  0.00  0.00    +0.000 NA
ATOM     13  C   UNL     1       2.063   7.083  19.623  0.00  0.00    +0.000 A 
ATOM     14  N   UNL     1       1.562   8.112  20.336  0.00  0.00    +0.000 NA
ATOM     15  C   UNL     1       1.426   9.237  19.596  0.00  0.00    +0.000 A 
ATOM     16  H   UNL     1       1.670  10.808  16.831  0.00  0.00    +0.000 HD
ENDROOT
BRANCH  13  17
ATOM     17  S   UNL     1       2.261   5.532  20.473  0.00  0.00    +0.000 S 
BRANCH  17  18
ATOM     18  C   UNL     1       2.281   4.391  19.054  0.00  0.00    +0.000 C 
BRANCH  18  19
ATOM     19  C   UNL     1       3.687   3.874  18.798  0.00  0.00    +0.000 C 
ATOM     20  O   UNL     1       4.189   2.978  19.477  0.00  0.00    +0.000 OA
ATOM     21  N   UNL     1       4.359   4.476  17.757  0.00  0.00    +0.000 N 
ATOM     22  H   UNL     1       4.004   5.365  17.417  0.00  0.00    +0.000 HD
BRANCH  21  23
ATOM     23  C   UNL     1       5.742   4.148  17.509  0.00  0.00    +0.000 C 
BRANCH  23  24
ATOM     24  C   UNL     1       6.603   5.357  17.699  0.00  0.00    +0.000 A 
ATOM     25  C   UNL     1       6.719   6.464  16.877  0.00  0.00    +0.000 A 
ATOM     26  C   UNL     1       7.592   7.453  17.416  0.00  0.00    +0.000 A 
ATOM     27  C   UNL     1       8.119   7.068  18.629  0.00  0.00    +0.000 A 
ATOM     28  S   UNL     1       7.572   5.520  19.104  0.00  0.00    +0.000 S 
ENDBRANCH  23  24
ENDBRANCH  21  23
ENDBRANCH  18  19
ENDBRANCH  17  18
ENDBRANCH  13  17
TORSDOF 5
ENDMDL
MODEL 2
REMARK VINA RESULT:      -6.9      4.697      8.047
REMARK  Name = 
REMARK  7 active torsions:
REMARK  status: ('A' for Active; 'I' for Inactive)
REMARK    1  A    between atoms: C_1  and  C_2
REMARK    2  A    between atoms: C_4  and  C_5
REMARK    3  A    between atoms: C_13  and  S_14
REMARK    4  A    between atoms: S_14  and  C_15
REMARK    5  A    between atoms: C_15  and  C_16
REMARK    6  A    between atoms: N_18  and  C_19
REMARK    7  A    between atoms: C_19  and  C_20
REMARK                            x       y       z     vdW  Elec       q    Type
REMARK                         _______ _______ _______ _____ _____    ______ ____
ROOT
ATOM      1  C   UNL     1       0.807   2.705  19.387  0.00  0.00    +0.000 C 
ATOM      2  C   UNL     1       2.003   3.561  19.082  0.00  0.00    +0.000 A 
ATOM      3  C   UNL     1       1.831   4.891  18.682  0.00  0.00    +0.000 A 
ATOM      4  C   UNL     1       2.922   5.726  18.376  0.00  0.00    +0.000 A 
ATOM      5  C   UNL     1       2.673   7.149  17.956  0.00  0.00    +0.000 C 
ATOM      6  C   UNL     1       4.221   5.177  18.491  0.00  0.00    +0.000 A 
ATOM      7  C   UNL     1       4.377   3.847  18.898  0.00  0.00    +0.000 A 
ATOM      8  C   UNL     1       3.291   3.019  19.196  0.00  0.00    +0.000 A 
ATOM      9  N   UNL     1       5.733   3.581  18.934  0.00  0.00    +0.000 N 
ATOM     10  C   UNL     1       6.433   4.696  18.581  0.00  0.00    +0.000 A 
ATOM     11  N   UNL     1       7.765   4.840  18.524  0.00  0.00    +0.000 NA
ATOM     12  N   UNL     1       8.179   6.055  18.165  0.00  0.00    +0.000 NA
ATOM     13  C   UNL     1       7.285   7.044  17.891  0.00  0.00    +0.000 A 
ATOM     14  N   UNL     1       5.941   6.935  17.930  0.00  0.00    +0.000 NA
ATOM     15  C   UNL     1       5.531   5.697  18.293  0.00  0.00    +0.000 A 
ATOM     16  H   UNL     1       6.155   2.702  19.197  0.00  0.00    +0.000 HD
ENDROOT
BRANCH  13  17
ATOM     17  S   UNL     1       7.954   8.634  17.458  0.00  0.00    +0.000 S 
BRANCH  17  18
ATOM     18  C   UNL     1       8.760   9.079  19.030  0.00  0.00    +0.000 C 
BRANCH  18  19
ATOM     19  C   UNL     1       9.375  10.467  18.947  0.00  0.00    +0.000 C 
ATOM     20  O   UNL     1       9.902  10.889  17.917  0.00  0.00    +0.000 OA
ATOM     21  N   UNL     1       9.302  11.216  20.100  0.00  0.00    +0.000 N 
ATOM     22  H   UNL     1       9.101  10.729  20.969  0.00  0.00    +0.000 HD
BRANCH  21  23
ATOM     23  C   UNL     1       9.964  12.496  20.169  0.00  0.00    +0.000 C 
BRANCH  23  24
ATOM     24  C   UNL     1       8.995  13.597  19.876  0.00  0.00    +0.000 A 
ATOM     25  C   UNL     1       8.764  14.239  18.672  0.00  0.00    +0.000 A 
ATOM     26  C   UNL     1       7.713  15.198  18.759  0.00  0.00    +0.000 A 
ATOM     27  C   UNL     1       7.179  15.262  20.026  0.00  0.00    +0.000 A 
ATOM     28  S   UNL     1       7.949  14.182  21.103  0.00  0.00    +0.000 S 
ENDBRANCH  23  24
ENDBRANCH  21  23
ENDBRANCH  18  19
ENDBRANCH  17  18
ENDBRANCH  13  17
TORSDOF 5
ENDMDL
MODEL 3
REMARK VINA RESULT:      -6.7      3.053      8.359
REMARK  Name = 
REMARK  7 active torsions:
REMARK  status: ('A' for Active; 'I' for Inactive)
REMARK    1  A    between atoms: C_1  and  C_2
REMARK    2  A    between atoms: C_4  and  C_5
REMARK    3  A    between atoms: C_13  and  S_14
REMARK    4  A    between atoms: S_14  and  C_15
REMARK    5  A    between atoms: C_15  and  C_16
REMARK    6  A    between atoms: N_18  and  C_19
REMARK    7  A    between atoms: C_19  and  C_20
REMARK                            x       y       z     vdW  Elec       q    Type
REMARK                         _______ _______ _______ _____ _____    ______ ____
ROOT
ATOM      1  C   UNL     1       6.958   4.368  13.475  0.00  0.00    +0.000 C 
ATOM      2  C   UNL     1       6.110   4.530  14.704  0.00  0.00    +0.000 A 
ATOM      3  C   UNL     1       5.711   5.805  15.118  0.00  0.00    +0.000 A 
ATOM      4  C   UNL     1       4.926   6.005  16.269  0.00  0.00    +0.000 A 
ATOM      5  C   UNL     1       4.524   7.402  16.661  0.00  0.00    +0.000 C 
ATOM      6  C   UNL     1       4.538   4.861  17.007  0.00  0.00    +0.000 A 
ATOM      7  C   UNL     1       4.940   3.592  16.576  0.00  0.00    +0.000 A 
ATOM      8  C   UNL     1       5.725   3.398  15.436  0.00  0.00    +0.000 A 
ATOM      9  N   UNL     1       4.419   2.669  17.464  0.00  0.00    +0.000 N 
ATOM     10  C   UNL     1       3.694   3.309  18.423  0.00  0.00    +0.000 A 
ATOM     11  N   UNL     1       3.016   2.755  19.439  0.00  0.00    +0.000 NA
ATOM     12  N   UNL     1       2.374   3.624  20.220  0.00  0.00    +0.000 NA
ATOM     13  C   UNL     1       2.427   4.961  19.967  0.00  0.00    +0.000 A 
ATOM     14  N   UNL     1       3.103   5.554  18.962  0.00  0.00    +0.000 NA
ATOM     15  C   UNL     1       3.752   4.663  18.177  0.00  0.00    +0.000 A 
ATOM     16  H   UNL     1       4.537   1.668  17.410  0.00  0.00    +0.000 HD
ENDROOT
BRANCH  13  17
ATOM     17  S   UNL     1       1.501   6.022  21.054  0.00  0.00    +0.000 S 
BRANCH  17  18
ATOM     18  C   UNL     1       1.929   7.647  20.353  0.00  0.00    +0.000 C 
BRANCH  18  19
ATOM     19  C   UNL     1       0.858   8.675  20.681  0.00  0.00    +0.000 C 
ATOM     20  O   UNL     1      -0.017   8.463  21.521  0.00  0.00    +0.000 OA
ATOM     21  N   UNL     1       0.934   9.854  19.974  0.00  0.00    +0.000 N 
ATOM     22  H   UNL     1       1.499   9.865  19.130  0.00  0.00    +0.000 HD
BRANCH  21  23
ATOM     23  C   UNL     1      -0.105  10.846  20.116  0.00  0.00    +0.000 C 
BRANCH  23  24
ATOM     24  C   UNL     1      -1.006  10.827  18.923  0.00  0.00    +0.000 A 
ATOM     25  C   UNL     1      -1.648   9.744  18.350  0.00  0.00    +0.000 A 
ATOM     26  C   UNL     1      -2.481  10.120  17.256  0.00  0.00    +0.000 A 
ATOM     27  C   UNL     1      -2.446  11.477  17.026  0.00  0.00    +0.000 A 
ATOM     28  S   UNL     1      -1.404  12.286  18.113  0.00  0.00    +0.000 S 
ENDBRANCH  23  24
ENDBRANCH  21  23
ENDBRANCH  18  19
ENDBRANCH  17  18
ENDBRANCH  13  17
TORSDOF 5
ENDMDL
MODEL 4
REMARK VINA RESULT:      -6.7      1.942      4.054
REMARK  Name = 
REMARK  7 active torsions:
REMARK  status: ('A' for Active; 'I' for Inactive)
REMARK    1  A    between atoms: C_1  and  C_2
REMARK    2  A    between atoms: C_4  and  C_5
REMARK    3  A    between atoms: C_13  and  S_14
REMARK    4  A    between atoms: S_14  and  C_15
REMARK    5  A    between atoms: C_15  and  C_16
REMARK    6  A    between atoms: N_18  and  C_19
REMARK    7  A    between atoms: C_19  and  C_20
REMARK                            x       y       z     vdW  Elec       q    Type
REMARK                         _______ _______ _______ _____ _____    ______ ____
ROOT
ATOM      1  C   UNL     1      -1.328  12.738  22.925  0.00  0.00    +0.000 C 
ATOM      2  C   UNL     1      -0.580  11.751  22.075  0.00  0.00    +0.000 A 
ATOM      3  C   UNL     1      -0.026  12.154  20.855  0.00  0.00    +0.000 A 
ATOM      4  C   UNL     1       0.674  11.262  20.022  0.00  0.00    +0.000 A 
ATOM      5  C   UNL     1       1.251  11.756  18.723  0.00  0.00    +0.000 C 
ATOM      6  C   UNL     1       0.810   9.923  20.460  0.00  0.00    +0.000 A 
ATOM      7  C   UNL     1       0.256   9.537  21.686  0.00  0.00    +0.000 A 
ATOM      8  C   UNL     1      -0.443  10.425  22.508  0.00  0.00    +0.000 A 
ATOM      9  N   UNL     1       0.544   8.197  21.866  0.00  0.00    +0.000 N 
ATOM     10  C   UNL     1       1.270   7.734  20.811  0.00  0.00    +0.000 A 
ATOM     11  N   UNL     1       1.759   6.497  20.637  0.00  0.00    +0.000 NA
ATOM     12  N   UNL     1       2.455   6.327  19.513  0.00  0.00    +0.000 NA
ATOM     13  C   UNL     1       2.634   7.356  18.641  0.00  0.00    +0.000 A 
ATOM     14  N   UNL     1       2.153   8.608  18.777  0.00  0.00    +0.000 NA
ATOM     15  C   UNL     1       1.446   8.770  19.920  0.00  0.00    +0.000 A 
ATOM     16  H   UNL     1       0.276   7.639  22.664  0.00  0.00    +0.000 HD
ENDROOT
BRANCH  13  17
ATOM     17  S   UNL     1       3.612   7.020  17.192  0.00  0.00    +0.000 S 
BRANCH  17  18
ATOM     18  C   UNL     1       5.213   6.639  17.971  0.00  0.00    +0.000 C 
BRANCH  18  19
ATOM     19  C   UNL     1       5.162   5.295  18.679  0.00  0.00    +0.000 C 
ATOM     20  O   UNL     1       5.860   5.046  19.662  0.00  0.00    +0.000 OA
ATOM     21  N   UNL     1       4.284   4.378  18.146  0.00  0.00    +0.000 N 
ATOM     22  H   UNL     1       3.943   4.543  17.203  0.00  0.00    +0.000 HD
BRANCH  21  23
ATOM     23  C   UNL     1       4.248   3.032  18.663  0.00  0.00    +0.000 C 
BRANCH  23  24
ATOM     24  C   UNL     1       3.091   2.866  19.596  0.00  0.00    +0.000 A 
ATOM     25  C   UNL     1       3.107   2.787  20.977  0.00  0.00    +0.000 A 
ATOM     26  C   UNL     1       1.798   2.696  21.533  0.00  0.00    +0.000 A 
ATOM     27  C   UNL     1       0.824   2.702  20.560  0.00  0.00    +0.000 A 
ATOM     28  S   UNL     1       1.488   2.805  18.988  0.00  0.00    +0.000 S 
ENDBRANCH  23  24
ENDBRANCH  21  23
ENDBRANCH  18  19
ENDBRANCH  17  18
ENDBRANCH  13  17
TORSDOF 5
ENDMDL
MODEL 5
REMARK VINA RESULT:      -6.7      3.568      8.665
REMARK  Name = 
REMARK  7 active torsions:
REMARK  status: ('A' for Active; 'I' for Inactive)
REMARK    1  A    between atoms: C_1  and  C_2
REMARK    2  A    between atoms: C_4  and  C_5
REMARK    3  A    between atoms: C_13  and  S_14
REMARK    4  A    between atoms: S_14  and  C_15
REMARK    5  A    between atoms: C_15  and  C_16
REMARK    6  A    between atoms: N_18  and  C_19
REMARK    7  A    between atoms: C_19  and  C_20
REMARK                            x       y       z     vdW  Elec       q    Type
REMARK                         _______ _______ _______ _____ _____    ______ ____
ROOT
ATOM      1  C   UNL     1       6.186   3.761  14.498  0.00  0.00    +0.000 C 
ATOM      2  C   UNL     1       5.381   4.368  15.611  0.00  0.00    +0.000 A 
ATOM      3  C   UNL     1       5.330   5.758  15.762  0.00  0.00    +0.000 A 
ATOM      4  C   UNL     1       4.597   6.371  16.796  0.00  0.00    +0.000 A 
ATOM      5  C   UNL     1       4.577   7.871  16.905  0.00  0.00    +0.000 C 
ATOM      6  C   UNL     1       3.895   5.529  17.691  0.00  0.00    +0.000 A 
ATOM      7  C   UNL     1       3.950   4.140  17.522  0.00  0.00    +0.000 A 
ATOM      8  C   UNL     1       4.684   3.536  16.498  0.00  0.00    +0.000 A 
ATOM      9  N   UNL     1       3.175   3.572  18.516  0.00  0.00    +0.000 N 
ATOM     10  C   UNL     1       2.624   4.548  19.289  0.00  0.00    +0.000 A 
ATOM     11  N   UNL     1       1.795   4.394  20.331  0.00  0.00    +0.000 NA
ATOM     12  N   UNL     1       1.390   5.531  20.895  0.00  0.00    +0.000 NA
ATOM     13  C   UNL     1       1.809   6.735  20.416  0.00  0.00    +0.000 A 
ATOM     14  N   UNL     1       2.648   6.930  19.378  0.00  0.00    +0.000 NA
ATOM     15  C   UNL     1       3.053   5.768  18.814  0.00  0.00    +0.000 A 
ATOM     16  H   UNL     1       3.019   2.583  18.648  0.00  0.00    +0.000 HD
ENDROOT
BRANCH  13  17
ATOM     17  S   UNL     1       1.176   8.187  21.226  0.00  0.00    +0.000 S 
BRANCH  17  18
ATOM     18  C   UNL     1       1.012   9.303  19.796  0.00  0.00    +0.000 C 
BRANCH  18  19
ATOM     19  C   UNL     1      -0.091  10.322  20.031  0.00  0.00    +0.000 C 
ATOM     20  O   UNL     1      -0.737  10.358  21.079  0.00  0.00    +0.000 OA
ATOM     21  N   UNL     1      -0.317  11.198  18.994  0.00  0.00    +0.000 N 
ATOM     22  H   UNL     1       0.054  10.956  18.080  0.00  0.00    +0.000 HD
BRANCH  21  23
ATOM     23  C   UNL     1      -1.423  12.123  19.062  0.00  0.00    +0.000 C 
BRANCH  23  24
ATOM     24  C   UNL     1      -2.506  11.707  18.118  0.00  0.00    +0.000 A 
ATOM     25  C   UNL     1      -2.377  11.163  16.852  0.00  0.00    +0.000 A 
ATOM     26  C   UNL     1      -3.635  10.829  16.272  0.00  0.00    +0.000 A 
ATOM     27  C   UNL     1      -4.685  11.131  17.111  0.00  0.00    +0.000 A 
ATOM     28  S   UNL     1      -4.153  11.826  18.579  0.00  0.00    +0.000 S 
ENDBRANCH  23  24
ENDBRANCH  21  23
ENDBRANCH  18  19
ENDBRANCH  17  18
ENDBRANCH  13  17
TORSDOF 5
ENDMDL
MODEL 6
REMARK VINA RESULT:      -6.7      4.811      8.362
REMARK  Name = 
REMARK  7 active torsions:
REMARK  status: ('A' for Active; 'I' for Inactive)
REMARK    1  A    between atoms: C_1  and  C_2
REMARK    2  A    between atoms: C_4  and  C_5
REMARK    3  A    between atoms: C_13  and  S_14
REMARK    4  A    between atoms: S_14  and  C_15
REMARK    5  A    between atoms: C_15  and  C_16
REMARK    6  A    between atoms: N_18  and  C_19
REMARK    7  A    between atoms: C_19  and  C_20
REMARK                            x       y       z     vdW  Elec       q    Type
REMARK                         _______ _______ _______ _____ _____    ______ ____
ROOT
ATOM      1  C   UNL     1       2.797   5.734  18.005  0.00  0.00    +0.000 C 
ATOM      2  C   UNL     1       2.278   6.948  18.721  0.00  0.00    +0.000 A 
ATOM      3  C   UNL     1       2.215   8.180  18.060  0.00  0.00    +0.000 A 
ATOM      4  C   UNL     1       1.746   9.345  18.694  0.00  0.00    +0.000 A 
ATOM      5  C   UNL     1       1.697  10.639  17.929  0.00  0.00    +0.000 C 
ATOM      6  C   UNL     1       1.326   9.236  20.042  0.00  0.00    +0.000 A 
ATOM      7  C   UNL     1       1.389   7.995  20.687  0.00  0.00    +0.000 A 
ATOM      8  C   UNL     1       1.861   6.841  20.056  0.00  0.00    +0.000 A 
ATOM      9  N   UNL     1       0.914   8.174  21.973  0.00  0.00    +0.000 N 
ATOM     10  C   UNL     1       0.541   9.471  22.153  0.00  0.00    +0.000 A 
ATOM     11  N   UNL     1       0.010  10.023  23.254  0.00  0.00    +0.000 NA
ATOM     12  N   UNL     1      -0.281  11.319  23.143  0.00  0.00    +0.000 NA
ATOM     13  C   UNL     1      -0.043  11.990  21.983  0.00  0.00    +0.000 A 
ATOM     14  N   UNL     1       0.496  11.473  20.860  0.00  0.00    +0.000 NA
ATOM     15  C   UNL     1       0.789  10.157  20.984  0.00  0.00    +0.000 A 
ATOM     16  H   UNL     1       0.835   7.454  22.677  0.00  0.00    +0.000 HD
ENDROOT
BRANCH  13  17
ATOM     17  S   UNL     1      -0.505  13.708  21.939  0.00  0.00    +0.000 S 
BRANCH  17  18
ATOM     18  C   UNL     1      -0.904  13.885  20.171  0.00  0.00    +0.000 C 
BRANCH  18  19
ATOM     19  C   UNL     1      -2.198  13.162  19.835  0.00  0.00    +0.000 C 
ATOM     20  O   UNL     1      -3.275  13.478  20.341  0.00  0.00    +0.000 OA
ATOM     21  N   UNL     1      -2.082  12.132  18.929  0.00  0.00    +0.000 N 
ATOM     22  H   UNL     1      -1.154  11.757  18.755  0.00  0.00    +0.000 HD
BRANCH  21  23
ATOM     23  C   UNL     1      -3.224  11.300  18.635  0.00  0.00    +0.000 C 
BRANCH  23  24
ATOM     24  C   UNL     1      -3.170  10.827  17.217  0.00  0.00    +0.000 A 
ATOM     25  C   UNL     1      -2.238   9.991  16.627  0.00  0.00    +0.000 A 
ATOM     26  C   UNL     1      -2.547   9.706  15.266  0.00  0.00    +0.000 A 
ATOM     27  C   UNL     1      -3.700  10.336  14.857  0.00  0.00    +0.000 A 
ATOM     28  S   UNL     1      -4.396  11.275  16.105  0.00  0.00    +0.000 S 
ENDBRANCH  23  24
ENDBRANCH  21  23
ENDBRANCH  18  19
ENDBRANCH  17  18
ENDBRANCH  13  17
TORSDOF 5
ENDMDL
MODEL 7
REMARK VINA RESULT:      -6.7      2.170      3.645
REMARK  Name = 
REMARK  7 active torsions:
REMARK  status: ('A' for Active; 'I' for Inactive)
REMARK    1  A    between atoms: C_1  and  C_2
REMARK    2  A    between atoms: C_4  and  C_5
REMARK    3  A    between atoms: C_13  and  S_14
REMARK    4  A    between atoms: S_14  and  C_15
REMARK    5  A    between atoms: C_15  and  C_16
REMARK    6  A    between atoms: N_18  and  C_19
REMARK    7  A    between atoms: C_19  and  C_20
REMARK                            x       y       z     vdW  Elec       q    Type
REMARK                         _______ _______ _______ _____ _____    ______ ____
ROOT
ATOM      1  C   UNL     1       0.598  11.388  19.922  0.00  0.00    +0.000 C 
ATOM      2  C   UNL     1       1.100   9.980  19.775  0.00  0.00    +0.000 A 
ATOM      3  C   UNL     1       1.774   9.592  18.611  0.00  0.00    +0.000 A 
ATOM      4  C   UNL     1       2.252   8.282  18.426  0.00  0.00    +0.000 A 
ATOM      5  C   UNL     1       2.973   7.926  17.155  0.00  0.00    +0.000 C 
ATOM      6  C   UNL     1       2.035   7.350  19.470  0.00  0.00    +0.000 A 
ATOM      7  C   UNL     1       1.365   7.755  20.630  0.00  0.00    +0.000 A 
ATOM      8  C   UNL     1       0.887   9.056  20.808  0.00  0.00    +0.000 A 
ATOM      9  N   UNL     1       1.303   6.662  21.474  0.00  0.00    +0.000 N 
ATOM     10  C   UNL     1       1.920   5.594  20.896  0.00  0.00    +0.000 A 
ATOM     11  N   UNL     1       2.088   4.369  21.414  0.00  0.00    +0.000 NA
ATOM     12  N   UNL     1       2.753   3.519  20.631  0.00  0.00    +0.000 NA
ATOM     13  C   UNL     1       3.210   3.908  19.410  0.00  0.00    +0.000 A 
ATOM     14  N   UNL     1       3.054   5.127  18.852  0.00  0.00    +0.000 NA
ATOM     15  C   UNL     1       2.377   5.981  19.655  0.00  0.00    +0.000 A 
ATOM     16  H   UNL     1       0.880   6.649  22.392  0.00  0.00    +0.000 HD
ENDROOT
BRANCH  13  17
ATOM     17  S   UNL     1       4.115   2.700  18.468  0.00  0.00    +0.000 S 
BRANCH  17  18
ATOM     18  C   UNL     1       3.710   3.246  16.778  0.00  0.00    +0.000 C 
BRANCH  18  19
ATOM     19  C   UNL     1       4.886   3.978  16.152  0.00  0.00    +0.000 C 
ATOM     20  O   UNL     1       5.764   3.389  15.522  0.00  0.00    +0.000 OA
ATOM     21  N   UNL     1       4.900   5.342  16.338  0.00  0.00    +0.000 N 
ATOM     22  H   UNL     1       4.310   5.726  17.071  0.00  0.00    +0.000 HD
BRANCH  21  23
ATOM     23  C   UNL     1       6.033   6.117  15.894  0.00  0.00    +0.000 C 
BRANCH  23  24
ATOM     24  C   UNL     1       6.930   6.432  17.049  0.00  0.00    +0.000 A 
ATOM     25  C   UNL     1       7.523   7.640  17.370  0.00  0.00    +0.000 A 
ATOM     26  C   UNL     1       8.263   7.578  18.587  0.00  0.00    +0.000 A 
ATOM     27  C   UNL     1       8.217   6.325  19.153  0.00  0.00    +0.000 A 
ATOM     28  S   UNL     1       7.298   5.230  18.216  0.00  0.00    +0.000 S 
ENDBRANCH  23  24
ENDBRANCH  21  23
ENDBRANCH  18  19
ENDBRANCH  17  18
ENDBRANCH  13  17
TORSDOF 5
ENDMDL
MODEL 8
REMARK VINA RESULT:      -6.6      4.824      8.105
REMARK  Name = 
REMARK  7 active torsions:
REMARK  status: ('A' for Active; 'I' for Inactive)
REMARK    1  A    between atoms: C_1  and  C_2
REMARK    2  A    between atoms: C_4  and  C_5
REMARK    3  A    between atoms: C_13  and  S_14
REMARK    4  A    between atoms: S_14  and  C_15
REMARK    5  A    between atoms: C_15  and  C_16
REMARK    6  A    between atoms: N_18  and  C_19
REMARK    7  A    between atoms: C_19  and  C_20
REMARK                            x       y       z     vdW  Elec       q    Type
REMARK                         _______ _______ _______ _____ _____    ______ ____
ROOT
ATOM      1  C   UNL     1       3.311   6.372  17.654  0.00  0.00    +0.000 C 
ATOM      2  C   UNL     1       2.508   7.337  18.477  0.00  0.00    +0.000 A 
ATOM      3  C   UNL     1       1.785   8.360  17.853  0.00  0.00    +0.000 A 
ATOM      4  C   UNL     1       1.028   9.293  18.586  0.00  0.00    +0.000 A 
ATOM      5  C   UNL     1       0.267  10.368  17.858  0.00  0.00    +0.000 C 
ATOM      6  C   UNL     1       1.011   9.165  19.995  0.00  0.00    +0.000 A 
ATOM      7  C   UNL     1       1.734   8.132  20.604  0.00  0.00    +0.000 A 
ATOM      8  C   UNL     1       2.490   7.211  19.873  0.00  0.00    +0.000 A 
ATOM      9  N   UNL     1       1.534   8.236  21.968  0.00  0.00    +0.000 N 
ATOM     10  C   UNL     1       0.703   9.280  22.236  0.00  0.00    +0.000 A 
ATOM     11  N   UNL     1       0.254   9.680  23.435  0.00  0.00    +0.000 NA
ATOM     12  N   UNL     1      -0.570  10.726  23.401  0.00  0.00    +0.000 NA
ATOM     13  C   UNL     1      -0.907  11.311  22.219  0.00  0.00    +0.000 A 
ATOM     14  N   UNL     1      -0.471  10.943  20.996  0.00  0.00    +0.000 NA
ATOM     15  C   UNL     1       0.367   9.881  21.043  0.00  0.00    +0.000 A 
ATOM     16  H   UNL     1       1.927   7.624  22.669  0.00  0.00    +0.000 HD
ENDROOT
BRANCH  13  17
ATOM     17  S   UNL     1      -2.044  12.678  22.293  0.00  0.00    +0.000 S 
BRANCH  17  18
ATOM     18  C   UNL     1      -0.931  13.984  22.901  0.00  0.00    +0.000 C 
BRANCH  18  19
ATOM     19  C   UNL     1      -0.409  14.828  21.749  0.00  0.00    +0.000 C 
ATOM     20  O   UNL     1       0.125  15.922  21.928  0.00  0.00    +0.000 OA
ATOM     21  N   UNL     1      -0.575  14.283  20.495  0.00  0.00    +0.000 N 
ATOM     22  H   UNL     1      -1.242  13.524  20.393  0.00  0.00    +0.000 HD
BRANCH  21  23
ATOM     23  C   UNL     1      -0.230  15.054  19.325  0.00  0.00    +0.000 C 
BRANCH  23  24
ATOM     24  C   UNL     1       1.175  14.757  18.904  0.00  0.00    +0.000 A 
ATOM     25  C   UNL     1       1.732  13.532  18.584  0.00  0.00    +0.000 A 
ATOM     26  C   UNL     1       3.089  13.644  18.162  0.00  0.00    +0.000 A 
ATOM     27  C   UNL     1       3.526  14.950  18.180  0.00  0.00    +0.000 A 
ATOM     28  S   UNL     1       2.311  16.027  18.712  0.00  0.00    +0.000 S 
ENDBRANCH  23  24
ENDBRANCH  21  23
ENDBRANCH  18  19
ENDBRANCH  17  18
ENDBRANCH  13  17
TORSDOF 5
ENDMDL
MODEL 9
REMARK VINA RESULT:      -6.6      3.698      5.088
REMARK  Name = 
REMARK  7 active torsions:
REMARK  status: ('A' for Active; 'I' for Inactive)
REMARK    1  A    between atoms: C_1  and  C_2
REMARK    2  A    between atoms: C_4  and  C_5
REMARK    3  A    between atoms: C_13  and  S_14
REMARK    4  A    between atoms: S_14  and  C_15
REMARK    5  A    between atoms: C_15  and  C_16
REMARK    6  A    between atoms: N_18  and  C_19
REMARK    7  A    between atoms: C_19  and  C_20
REMARK                            x       y       z     vdW  Elec       q    Type
REMARK                         _______ _______ _______ _____ _____    ______ ____
ROOT
ATOM      1  C   UNL     1      -7.040  12.091  17.922  0.00  0.00    +0.000 C 
ATOM      2  C   UNL     1      -5.571  11.817  18.072  0.00  0.00    +0.000 A 
ATOM      3  C   UNL     1      -4.903  11.034  17.125  0.00  0.00    +0.000 A 
ATOM      4  C   UNL     1      -3.530  10.743  17.231  0.00  0.00    +0.000 A 
ATOM      5  C   UNL     1      -2.866   9.898  16.177  0.00  0.00    +0.000 C 
ATOM      6  C   UNL     1      -2.829  11.277  18.338  0.00  0.00    +0.000 A 
ATOM      7  C   UNL     1      -3.510  12.064  19.274  0.00  0.00    +0.000 A 
ATOM      8  C   UNL     1      -4.875  12.346  19.168  0.00  0.00    +0.000 A 
ATOM      9  N   UNL     1      -2.593  12.456  20.231  0.00  0.00    +0.000 N 
ATOM     10  C   UNL     1      -1.362  11.961  19.923  0.00  0.00    +0.000 A 
ATOM     11  N   UNL     1      -0.216  12.147  20.593  0.00  0.00    +0.000 NA
ATOM     12  N   UNL     1       0.849  11.558  20.050  0.00  0.00    +0.000 NA
ATOM     13  C   UNL     1       0.737  10.836  18.901  0.00  0.00    +0.000 A 
ATOM     14  N   UNL     1      -0.397  10.621  18.204  0.00  0.00    +0.000 NA
ATOM     15  C   UNL     1      -1.472  11.221  18.766  0.00  0.00    +0.000 A 
ATOM     16  H   UNL     1      -2.790  13.038  21.033  0.00  0.00    +0.000 HD
ENDROOT
BRANCH  13  17
ATOM     17  S   UNL     1       2.233  10.126  18.250  0.00  0.00    +0.000 S 
BRANCH  17  18
ATOM     18  C   UNL     1       1.616   8.485  17.755  0.00  0.00    +0.000 C 
BRANCH  18  19
ATOM     19  C   UNL     1       2.399   7.383  18.450  0.00  0.00    +0.000 C 
ATOM     20  O   UNL     1       2.210   7.090  19.630  0.00  0.00    +0.000 OA
ATOM     21  N   UNL     1       3.332   6.737  17.668  0.00  0.00    +0.000 N 
ATOM     22  H   UNL     1       3.620   7.189  16.806  0.00  0.00    +0.000 HD
BRANCH  21  23
ATOM     23  C   UNL     1       4.215   5.762  18.261  0.00  0.00    +0.000 C 
BRANCH  23  24
ATOM     24  C   UNL     1       3.554   4.422  18.303  0.00  0.00    +0.000 A 
ATOM     25  C   UNL     1       2.961   3.725  17.265  0.00  0.00    +0.000 A 
ATOM     26  C   UNL     1       2.490   2.442  17.669  0.00  0.00    +0.000 A 
ATOM     27  C   UNL     1       2.732   2.201  19.003  0.00  0.00    +0.000 A 
ATOM     28  S   UNL     1       3.511   3.520  19.762  0.00  0.00    +0.000 S 
ENDBRANCH  23  24
ENDBRANCH  21  23
ENDBRANCH  18  19
ENDBRANCH  17  18
ENDBRANCH  13  17
TORSDOF 5
ENDMDL
