MODEL 1
REMARK VINA RESULT:      -9.3      0.000      0.000
REMARK  Name = 
REMARK  3 active torsions:
REMARK  status: ('A' for Active; 'I' for Inactive)
REMARK    1  A    between atoms: C_4  and  N_5
REMARK    2  A    between atoms: N_5  and  N_6
REMARK    3  A    between atoms: N_6  and  C_7
REMARK                            x       y       z     vdW  Elec       q    Type
REMARK                         _______ _______ _______ _____ _____    ______ ____
ROOT
ATOM      1  C   UNL     1       0.339  10.624  20.084  0.00  0.00    +0.000 A 
ATOM      2  N   UNL     1      -0.286  10.332  21.249  0.00  0.00    +0.000 NA
ATOM      3  N   UNL     1      -0.214   9.133  21.794  0.00  0.00    +0.000 NA
ATOM      4  N   UNL     1       0.443   8.176  21.295  0.00  0.00    +0.000 NA
ATOM      5  C   UNL     1       1.142   8.378  20.152  0.00  0.00    +0.000 A 
ATOM      6  C   UNL     1       1.107   9.610  19.527  0.00  0.00    +0.000 A 
ATOM      7  S   UNL     1       2.093   9.638  18.131  0.00  0.00    +0.000 S 
ATOM      8  C   UNL     1       2.577   8.029  18.371  0.00  0.00    +0.000 A 
ATOM      9  N   UNL     1       3.461   7.491  17.524  0.00  0.00    +0.000 NA
ATOM     10  C   UNL     1       3.811   6.213  17.735  0.00  0.00    +0.000 A 
ATOM     11  N   UNL     1       4.778   5.729  16.889  0.00  0.00    +0.000 N 
ATOM     12  C   UNL     1       4.807   4.421  16.237  0.00  0.00    +0.000 C 
ATOM     13  C   UNL     1       6.198   3.809  16.482  0.00  0.00    +0.000 C 
ATOM     14  O   UNL     1       7.235   4.664  15.964  0.00  0.00    +0.000 OA
ATOM     15  C   UNL     1       7.168   5.976  16.562  0.00  0.00    +0.000 C 
ATOM     16  C   UNL     1       5.794   6.641  16.341  0.00  0.00    +0.000 C 
ATOM     17  C   UNL     1       3.273   5.469  18.811  0.00  0.00    +0.000 A 
ATOM     18  C   UNL     1       2.310   6.060  19.685  0.00  0.00    +0.000 A 
ATOM     19  C   UNL     1       1.976   7.422  19.461  0.00  0.00    +0.000 A 
ATOM     20  C   UNL     1       1.727   5.283  20.848  0.00  0.00    +0.000 C 
ATOM     21  C   UNL     1       1.927   3.775  20.748  0.00  0.00    +0.000 C 
ATOM     22  C   UNL     1       3.386   3.489  20.449  0.00  0.00    +0.000 C 
ATOM     23  C   UNL     1       3.726   4.048  19.076  0.00  0.00    +0.000 C 
ENDROOT
BRANCH   1  24
ATOM     24  N   UNL     1       0.224  11.881  19.459  0.00  0.00    +0.000 N 
ATOM     25  H   UNL     1       0.091  12.631  20.137  0.00  0.00    +0.000 HD
BRANCH  24  26
ATOM     26  N   UNL     1      -0.424  12.061  18.274  0.00  0.00    +0.000 N 
ATOM     27  H   UNL     1      -0.279  12.964  17.814  0.00  0.00    +0.000 HD
BRANCH  26  31
ATOM     28  C   UNL     1      -4.271  10.413  17.667  0.00  0.00    +0.000 A 
ATOM     29  C   UNL     1      -4.121  11.507  18.510  0.00  0.00    +0.000 A 
ATOM     30  C   UNL     1      -2.851  12.067  18.710  0.00  0.00    +0.000 A 
ATOM     31  C   UNL     1      -1.725  11.557  18.047  0.00  0.00    +0.000 A 
ATOM     32  C   UNL     1      -1.892  10.429  17.235  0.00  0.00    +0.000 A 
ATOM     33  C   UNL     1      -3.159   9.866  17.036  0.00  0.00    +0.000 A 
ENDBRANCH  26  31
ENDBRANCH  24  26
ENDBRANCH   1  24
TORSDOF 3
ENDMDL
MODEL 2
REMARK VINA RESULT:      -8.8      0.575      1.135
REMARK  Name = 
REMARK  3 active torsions:
REMARK  status: ('A' for Active; 'I' for Inactive)
REMARK    1  A    between atoms: C_4  and  N_5
REMARK    2  A    between atoms: N_5  and  N_6
REMARK    3  A    between atoms: N_6  and  C_7
REMARK                            x       y       z     vdW  Elec       q    Type
REMARK                         _______ _______ _______ _____ _____    ______ ____
ROOT
ATOM      1  C   UNL     1       0.267  10.410  20.258  0.00  0.00    +0.000 A 
ATOM      2  N   UNL     1      -0.341  10.067  21.419  0.00  0.00    +0.000 NA
ATOM      3  N   UNL     1      -0.235   8.854  21.926  0.00  0.00    +0.000 NA
ATOM      4  N   UNL     1       0.441   7.930  21.394  0.00  0.00    +0.000 NA
ATOM      5  C   UNL     1       1.124   8.183  20.252  0.00  0.00    +0.000 A 
ATOM      6  C   UNL     1       1.054   9.433  19.665  0.00  0.00    +0.000 A 
ATOM      7  S   UNL     1       2.028   9.527  18.263  0.00  0.00    +0.000 S 
ATOM      8  C   UNL     1       2.553   7.924  18.450  0.00  0.00    +0.000 A 
ATOM      9  N   UNL     1       3.442   7.433  17.580  0.00  0.00    +0.000 NA
ATOM     10  C   UNL     1       3.825   6.159  17.750  0.00  0.00    +0.000 A 
ATOM     11  N   UNL     1       4.796   5.725  16.881  0.00  0.00    +0.000 N 
ATOM     12  C   UNL     1       4.851   4.439  16.190  0.00  0.00    +0.000 C 
ATOM     13  C   UNL     1       6.259   3.854  16.405  0.00  0.00    +0.000 C 
ATOM     14  O   UNL     1       7.271   4.750  15.905  0.00  0.00    +0.000 OA
ATOM     15  C   UNL     1       7.177   6.041  16.543  0.00  0.00    +0.000 C 
ATOM     16  C   UNL     1       5.785   6.678  16.353  0.00  0.00    +0.000 C 
ATOM     17  C   UNL     1       3.314   5.370  18.806  0.00  0.00    +0.000 A 
ATOM     18  C   UNL     1       2.345   5.910  19.705  0.00  0.00    +0.000 A 
ATOM     19  C   UNL     1       1.976   7.270  19.525  0.00  0.00    +0.000 A 
ATOM     20  C   UNL     1       1.791   5.084  20.849  0.00  0.00    +0.000 C 
ATOM     21  C   UNL     1       2.027   3.586  20.701  0.00  0.00    +0.000 C 
ATOM     22  C   UNL     1       3.490   3.345  20.383  0.00  0.00    +0.000 C 
ATOM     23  C   UNL     1       3.805   3.953  19.024  0.00  0.00    +0.000 C 
ENDROOT
BRANCH   1  24
ATOM     24  N   UNL     1       0.115  11.682  19.673  0.00  0.00    +0.000 N 
ATOM     25  H   UNL     1       0.174  12.428  20.366  0.00  0.00    +0.000 HD
BRANCH  24  26
ATOM     26  N   UNL     1      -0.745  11.924  18.644  0.00  0.00    +0.000 N 
ATOM     27  H   UNL     1      -0.443  12.624  17.961  0.00  0.00    +0.000 HD
BRANCH  26  31
ATOM     28  C   UNL     1      -4.936  12.118  19.171  0.00  0.00    +0.000 A 
ATOM     29  C   UNL     1      -4.417  11.506  18.037  0.00  0.00    +0.000 A 
ATOM     30  C   UNL     1      -3.028  11.428  17.858  0.00  0.00    +0.000 A 
ATOM     31  C   UNL     1      -2.147  11.934  18.825  0.00  0.00    +0.000 A 
ATOM     32  C   UNL     1      -2.691  12.584  19.939  0.00  0.00    +0.000 A 
ATOM     33  C   UNL     1      -4.077  12.665  20.119  0.00  0.00    +0.000 A 
ENDBRANCH  26  31
ENDBRANCH  24  26
ENDBRANCH   1  24
TORSDOF 3
ENDMDL
MODEL 3
REMARK VINA RESULT:      -8.5      2.219      3.048
REMARK  Name = 
REMARK  3 active torsions:
REMARK  status: ('A' for Active; 'I' for Inactive)
REMARK    1  A    between atoms: C_4  and  N_5
REMARK    2  A    between atoms: N_5  and  N_6
REMARK    3  A    between atoms: N_6  and  C_7
REMARK                            x       y       z     vdW  Elec       q    Type
REMARK                         _______ _______ _______ _____ _____    ______ ____
ROOT
ATOM      1  C   UNL     1       0.300  10.623  20.143  0.00  0.00    +0.000 A 
ATOM      2  N   UNL     1      -0.328  10.317  21.303  0.00  0.00    +0.000 NA
ATOM      3  N   UNL     1      -0.254   9.112  21.835  0.00  0.00    +0.000 NA
ATOM      4  N   UNL     1       0.407   8.163  21.328  0.00  0.00    +0.000 NA
ATOM      5  C   UNL     1       1.109   8.379  20.190  0.00  0.00    +0.000 A 
ATOM      6  C   UNL     1       1.072   9.618  19.577  0.00  0.00    +0.000 A 
ATOM      7  S   UNL     1       2.063   9.664  18.185  0.00  0.00    +0.000 S 
ATOM      8  C   UNL     1       2.551   8.054  18.409  0.00  0.00    +0.000 A 
ATOM      9  N   UNL     1       3.439   7.527  17.559  0.00  0.00    +0.000 NA
ATOM     10  C   UNL     1       3.792   6.249  17.758  0.00  0.00    +0.000 A 
ATOM     11  N   UNL     1       4.763   5.777  16.909  0.00  0.00    +0.000 N 
ATOM     12  C   UNL     1       4.798   4.476  16.243  0.00  0.00    +0.000 C 
ATOM     13  C   UNL     1       6.190   3.866  16.486  0.00  0.00    +0.000 C 
ATOM     14  O   UNL     1       7.227   4.730  15.981  0.00  0.00    +0.000 OA
ATOM     15  C   UNL     1       7.153   6.035  16.592  0.00  0.00    +0.000 C 
ATOM     16  C   UNL     1       5.778   6.698  16.374  0.00  0.00    +0.000 C 
ATOM     17  C   UNL     1       3.253   5.492  18.823  0.00  0.00    +0.000 A 
ATOM     18  C   UNL     1       2.286   6.070  19.701  0.00  0.00    +0.000 A 
ATOM     19  C   UNL     1       1.948   7.434  19.490  0.00  0.00    +0.000 A 
ATOM     20  C   UNL     1       1.702   5.279  20.854  0.00  0.00    +0.000 C 
ATOM     21  C   UNL     1       1.907   3.773  20.738  0.00  0.00    +0.000 C 
ATOM     22  C   UNL     1       3.367   3.495  20.441  0.00  0.00    +0.000 C 
ATOM     23  C   UNL     1       3.710   4.069  19.075  0.00  0.00    +0.000 C 
ENDROOT
BRANCH   1  24
ATOM     24  N   UNL     1       0.182  11.887  19.531  0.00  0.00    +0.000 N 
ATOM     25  H   UNL     1       0.321  11.835  18.522  0.00  0.00    +0.000 HD
BRANCH  24  26
ATOM     26  N   UNL     1       0.635  13.033  20.112  0.00  0.00    +0.000 N 
ATOM     27  H   UNL     1      -0.025  13.519  20.725  0.00  0.00    +0.000 HD
BRANCH  26  31
ATOM     28  C   UNL     1       3.139  15.651  17.931  0.00  0.00    +0.000 A 
ATOM     29  C   UNL     1       1.962  16.136  18.487  0.00  0.00    +0.000 A 
ATOM     30  C   UNL     1       1.130  15.278  19.220  0.00  0.00    +0.000 A 
ATOM     31  C   UNL     1       1.482  13.937  19.429  0.00  0.00    +0.000 A 
ATOM     32  C   UNL     1       2.651  13.459  18.825  0.00  0.00    +0.000 A 
ATOM     33  C   UNL     1       3.482  14.313  18.091  0.00  0.00    +0.000 A 
ENDBRANCH  26  31
ENDBRANCH  24  26
ENDBRANCH   1  24
TORSDOF 3
ENDMDL
MODEL 4
REMARK VINA RESULT:      -8.3      2.249      2.941
REMARK  Name = 
REMARK  3 active torsions:
REMARK  status: ('A' for Active; 'I' for Inactive)
REMARK    1  A    between atoms: C_4  and  N_5
REMARK    2  A    between atoms: N_5  and  N_6
REMARK    3  A    between atoms: N_6  and  C_7
REMARK                            x       y       z     vdW  Elec       q    Type
REMARK                         _______ _______ _______ _____ _____    ______ ____
ROOT
ATOM      1  C   UNL     1       0.451  10.803  20.138  0.00  0.00    +0.000 A 
ATOM      2  N   UNL     1      -0.144  10.543  21.326  0.00  0.00    +0.000 NA
ATOM      3  N   UNL     1      -0.104   9.344  21.875  0.00  0.00    +0.000 NA
ATOM      4  N   UNL     1       0.493   8.359  21.359  0.00  0.00    +0.000 NA
ATOM      5  C   UNL     1       1.159   8.525  20.192  0.00  0.00    +0.000 A 
ATOM      6  C   UNL     1       1.155   9.756  19.560  0.00  0.00    +0.000 A 
ATOM      7  S   UNL     1       2.091   9.735  18.130  0.00  0.00    +0.000 S 
ATOM      8  C   UNL     1       2.514   8.108  18.362  0.00  0.00    +0.000 A 
ATOM      9  N   UNL     1       3.343   7.528  17.488  0.00  0.00    +0.000 NA
ATOM     10  C   UNL     1       3.646   6.238  17.694  0.00  0.00    +0.000 A 
ATOM     11  N   UNL     1       4.560   5.709  16.817  0.00  0.00    +0.000 N 
ATOM     12  C   UNL     1       4.510   4.399  16.172  0.00  0.00    +0.000 C 
ATOM     13  C   UNL     1       5.881   3.728  16.371  0.00  0.00    +0.000 C 
ATOM     14  O   UNL     1       6.935   4.536  15.812  0.00  0.00    +0.000 OA
ATOM     15  C   UNL     1       6.945   5.852  16.404  0.00  0.00    +0.000 C 
ATOM     16  C   UNL     1       5.594   6.574  16.228  0.00  0.00    +0.000 C 
ATOM     17  C   UNL     1       3.114   5.522  18.792  0.00  0.00    +0.000 A 
ATOM     18  C   UNL     1       2.209   6.157  19.696  0.00  0.00    +0.000 A 
ATOM     19  C   UNL     1       1.926   7.532  19.476  0.00  0.00    +0.000 A 
ATOM     20  C   UNL     1       1.635   5.411  20.883  0.00  0.00    +0.000 C 
ATOM     21  C   UNL     1       1.767   3.896  20.785  0.00  0.00    +0.000 C 
ATOM     22  C   UNL     1       3.201   3.546  20.437  0.00  0.00    +0.000 C 
ATOM     23  C   UNL     1       3.516   4.084  19.049  0.00  0.00    +0.000 C 
ENDROOT
BRANCH   1  24
ATOM     24  N   UNL     1       0.368  12.062  19.511  0.00  0.00    +0.000 N 
ATOM     25  H   UNL     1      -0.007  11.991  18.565  0.00  0.00    +0.000 HD
BRANCH  24  26
ATOM     26  N   UNL     1       1.305  13.036  19.682  0.00  0.00    +0.000 N 
ATOM     27  H   UNL     1       1.776  13.052  20.591  0.00  0.00    +0.000 HD
BRANCH  26  31
ATOM     28  C   UNL     1       0.767  16.972  18.235  0.00  0.00    +0.000 A 
ATOM     29  C   UNL     1       2.049  16.442  18.314  0.00  0.00    +0.000 A 
ATOM     30  C   UNL     1       2.237  15.134  18.784  0.00  0.00    +0.000 A 
ATOM     31  C   UNL     1       1.143  14.335  19.149  0.00  0.00    +0.000 A 
ATOM     32  C   UNL     1      -0.135  14.903  19.101  0.00  0.00    +0.000 A 
ATOM     33  C   UNL     1      -0.325  16.210  18.635  0.00  0.00    +0.000 A 
ENDBRANCH  26  31
ENDBRANCH  24  26
ENDBRANCH   1  24
TORSDOF 3
ENDMDL
MODEL 5
REMARK VINA RESULT:      -8.3      3.391      8.168
REMARK  Name = 
REMARK  3 active torsions:
REMARK  status: ('A' for Active; 'I' for Inactive)
REMARK    1  A    between atoms: C_4  and  N_5
REMARK    2  A    between atoms: N_5  and  N_6
REMARK    3  A    between atoms: N_6  and  C_7
REMARK                            x       y       z     vdW  Elec       q    Type
REMARK                         _______ _______ _______ _____ _____    ______ ____
ROOT
ATOM      1  C   UNL     1       2.798   5.483  18.465  0.00  0.00    +0.000 A 
ATOM      2  N   UNL     1       2.399   4.523  19.332  0.00  0.00    +0.000 NA
ATOM      3  N   UNL     1       1.759   4.816  20.448  0.00  0.00    +0.000 NA
ATOM      4  N   UNL     1       1.455   5.993  20.790  0.00  0.00    +0.000 NA
ATOM      5  C   UNL     1       1.769   7.024  19.969  0.00  0.00    +0.000 A 
ATOM      6  C   UNL     1       2.444   6.786  18.786  0.00  0.00    +0.000 A 
ATOM      7  S   UNL     1       2.694   8.228  17.902  0.00  0.00    +0.000 S 
ATOM      8  C   UNL     1       1.892   9.155  19.075  0.00  0.00    +0.000 A 
ATOM      9  N   UNL     1       1.739  10.466  18.864  0.00  0.00    +0.000 NA
ATOM     10  C   UNL     1       1.113  11.171  19.818  0.00  0.00    +0.000 A 
ATOM     11  N   UNL     1       0.910  12.496  19.522  0.00  0.00    +0.000 N 
ATOM     12  C   UNL     1       1.093  13.639  20.415  0.00  0.00    +0.000 C 
ATOM     13  C   UNL     1      -0.176  14.507  20.326  0.00  0.00    +0.000 C 
ATOM     14  O   UNL     1      -0.406  14.945  18.973  0.00  0.00    +0.000 OA
ATOM     15  C   UNL     1      -0.523  13.817  18.080  0.00  0.00    +0.000 C 
ATOM     16  C   UNL     1       0.726  12.914  18.124  0.00  0.00    +0.000 C 
ATOM     17  C   UNL     1       0.630  10.552  20.995  0.00  0.00    +0.000 A 
ATOM     18  C   UNL     1       0.831   9.155  21.208  0.00  0.00    +0.000 A 
ATOM     19  C   UNL     1       1.470   8.423  20.172  0.00  0.00    +0.000 A 
ATOM     20  C   UNL     1       0.314   8.471  22.458  0.00  0.00    +0.000 C 
ATOM     21  C   UNL     1      -0.036   9.430  23.589  0.00  0.00    +0.000 C 
ATOM     22  C   UNL     1      -0.924  10.532  23.045  0.00  0.00    +0.000 C 
ATOM     23  C   UNL     1      -0.132  11.349  22.035  0.00  0.00    +0.000 C 
ENDROOT
BRANCH   1  24
ATOM     24  N   UNL     1       3.534   5.191  17.300  0.00  0.00    +0.000 N 
ATOM     25  H   UNL     1       2.951   4.762  16.581  0.00  0.00    +0.000 HD
BRANCH  24  26
ATOM     26  N   UNL     1       4.822   4.748  17.332  0.00  0.00    +0.000 N 
ATOM     27  H   UNL     1       4.956   3.775  17.622  0.00  0.00    +0.000 HD
BRANCH  26  31
ATOM     28  C   UNL     1       8.120   7.100  18.544  0.00  0.00    +0.000 A 
ATOM     29  C   UNL     1       7.364   7.496  17.449  0.00  0.00    +0.000 A 
ATOM     30  C   UNL     1       6.262   6.728  17.044  0.00  0.00    +0.000 A 
ATOM     31  C   UNL     1       5.890   5.575  17.750  0.00  0.00    +0.000 A 
ATOM     32  C   UNL     1       6.690   5.171  18.825  0.00  0.00    +0.000 A 
ATOM     33  C   UNL     1       7.792   5.935  19.229  0.00  0.00    +0.000 A 
ENDBRANCH  26  31
ENDBRANCH  24  26
ENDBRANCH   1  24
TORSDOF 3
ENDMDL
MODEL 6
REMARK VINA RESULT:      -8.2      1.292      1.860
REMARK  Name = 
REMARK  3 active torsions:
REMARK  status: ('A' for Active; 'I' for Inactive)
REMARK    1  A    between atoms: C_4  and  N_5
REMARK    2  A    between atoms: N_5  and  N_6
REMARK    3  A    between atoms: N_6  and  C_7
REMARK                            x       y       z     vdW  Elec       q    Type
REMARK                         _______ _______ _______ _____ _____    ______ ____
ROOT
ATOM      1  C   UNL     1       0.269  10.290  20.455  0.00  0.00    +0.000 A 
ATOM      2  N   UNL     1      -0.306   9.916  21.622  0.00  0.00    +0.000 NA
ATOM      3  N   UNL     1      -0.176   8.694  22.100  0.00  0.00    +0.000 NA
ATOM      4  N   UNL     1       0.497   7.788  21.530  0.00  0.00    +0.000 NA
ATOM      5  C   UNL     1       1.150   8.074  20.379  0.00  0.00    +0.000 A 
ATOM      6  C   UNL     1       1.052   9.335  19.821  0.00  0.00    +0.000 A 
ATOM      7  S   UNL     1       1.990   9.470  18.398  0.00  0.00    +0.000 S 
ATOM      8  C   UNL     1       2.536   7.870  18.537  0.00  0.00    +0.000 A 
ATOM      9  N   UNL     1       3.410   7.408  17.636  0.00  0.00    +0.000 NA
ATOM     10  C   UNL     1       3.810   6.135  17.768  0.00  0.00    +0.000 A 
ATOM     11  N   UNL     1       4.764   5.731  16.867  0.00  0.00    +0.000 N 
ATOM     12  C   UNL     1       4.816   4.460  16.146  0.00  0.00    +0.000 C 
ATOM     13  C   UNL     1       6.234   3.886  16.315  0.00  0.00    +0.000 C 
ATOM     14  O   UNL     1       7.224   4.804  15.811  0.00  0.00    +0.000 OA
ATOM     15  C   UNL     1       7.132   6.079  16.479  0.00  0.00    +0.000 C 
ATOM     16  C   UNL     1       5.730   6.705  16.337  0.00  0.00    +0.000 C 
ATOM     17  C   UNL     1       3.333   5.317  18.819  0.00  0.00    +0.000 A 
ATOM     18  C   UNL     1       2.380   5.827  19.752  0.00  0.00    +0.000 A 
ATOM     19  C   UNL     1       1.993   7.186  19.612  0.00  0.00    +0.000 A 
ATOM     20  C   UNL     1       1.863   4.970  20.890  0.00  0.00    +0.000 C 
ATOM     21  C   UNL     1       2.111   3.478  20.704  0.00  0.00    +0.000 C 
ATOM     22  C   UNL     1       3.568   3.260  20.345  0.00  0.00    +0.000 C 
ATOM     23  C   UNL     1       3.843   3.901  18.994  0.00  0.00    +0.000 C 
ENDROOT
BRANCH   1  24
ATOM     24  N   UNL     1       0.091  11.574  19.902  0.00  0.00    +0.000 N 
ATOM     25  H   UNL     1       0.892  11.859  19.338  0.00  0.00    +0.000 HD
BRANCH  24  26
ATOM     26  N   UNL     1      -0.527  12.587  20.571  0.00  0.00    +0.000 N 
ATOM     27  H   UNL     1      -0.013  12.983  21.363  0.00  0.00    +0.000 HD
BRANCH  26  31
ATOM     28  C   UNL     1      -4.692  12.780  21.278  0.00  0.00    +0.000 A 
ATOM     29  C   UNL     1      -4.226  12.613  19.980  0.00  0.00    +0.000 A 
ATOM     30  C   UNL     1      -2.847  12.538  19.736  0.00  0.00    +0.000 A 
ATOM     31  C   UNL     1      -1.924  12.599  20.791  0.00  0.00    +0.000 A 
ATOM     32  C   UNL     1      -2.413  12.810  22.085  0.00  0.00    +0.000 A 
ATOM     33  C   UNL     1      -3.789  12.888  22.330  0.00  0.00    +0.000 A 
ENDBRANCH  26  31
ENDBRANCH  24  26
ENDBRANCH   1  24
TORSDOF 3
ENDMDL
MODEL 7
REMARK VINA RESULT:      -8.1      4.324      9.653
REMARK  Name = 
REMARK  3 active torsions:
REMARK  status: ('A' for Active; 'I' for Inactive)
REMARK    1  A    between atoms: C_4  and  N_5
REMARK    2  A    between atoms: N_5  and  N_6
REMARK    3  A    between atoms: N_6  and  C_7
REMARK                            x       y       z     vdW  Elec       q    Type
REMARK                         _______ _______ _______ _____ _____    ______ ____
ROOT
ATOM      1  C   UNL     1       0.963   9.264  20.885  0.00  0.00    +0.000 A 
ATOM      2  N   UNL     1       1.404   9.139  22.158  0.00  0.00    +0.000 NA
ATOM      3  N   UNL     1       0.836   9.788  23.157  0.00  0.00    +0.000 NA
ATOM      4  N   UNL     1      -0.157  10.555  23.017  0.00  0.00    +0.000 NA
ATOM      5  C   UNL     1      -0.703  10.714  21.788  0.00  0.00    +0.000 A 
ATOM      6  C   UNL     1      -0.155  10.066  20.697  0.00  0.00    +0.000 A 
ATOM      7  S   UNL     1      -1.034  10.385  19.266  0.00  0.00    +0.000 S 
ATOM      8  C   UNL     1      -2.145  11.361  20.097  0.00  0.00    +0.000 A 
ATOM      9  N   UNL     1      -3.170  11.890  19.419  0.00  0.00    +0.000 NA
ATOM     10  C   UNL     1      -4.021  12.667  20.105  0.00  0.00    +0.000 A 
ATOM     11  N   UNL     1      -5.098  13.123  19.385  0.00  0.00    +0.000 N 
ATOM     12  C   UNL     1      -5.666  14.470  19.404  0.00  0.00    +0.000 C 
ATOM     13  C   UNL     1      -7.187  14.330  19.599  0.00  0.00    +0.000 C 
ATOM     14  O   UNL     1      -7.771  13.541  18.544  0.00  0.00    +0.000 OA
ATOM     15  C   UNL     1      -7.166  12.232  18.485  0.00  0.00    +0.000 C 
ATOM     16  C   UNL     1      -5.639  12.312  18.284  0.00  0.00    +0.000 C 
ATOM     17  C   UNL     1      -3.847  12.912  21.487  0.00  0.00    +0.000 A 
ATOM     18  C   UNL     1      -2.729  12.356  22.181  0.00  0.00    +0.000 A 
ATOM     19  C   UNL     1      -1.857  11.513  21.443  0.00  0.00    +0.000 A 
ATOM     20  C   UNL     1      -2.529  12.599  23.664  0.00  0.00    +0.000 C 
ATOM     21  C   UNL     1      -3.338  13.767  24.215  0.00  0.00    +0.000 C 
ATOM     22  C   UNL     1      -4.782  13.617  23.777  0.00  0.00    +0.000 C 
ATOM     23  C   UNL     1      -4.853  13.738  22.262  0.00  0.00    +0.000 C 
ENDROOT
BRANCH   1  24
ATOM     24  N   UNL     1       1.594   8.625  19.800  0.00  0.00    +0.000 N 
ATOM     25  H   UNL     1       0.971   8.533  18.998  0.00  0.00    +0.000 HD
BRANCH  24  26
ATOM     26  N   UNL     1       2.475   7.597  19.959  0.00  0.00    +0.000 N 
ATOM     27  H   UNL     1       3.461   7.821  19.800  0.00  0.00    +0.000 HD
BRANCH  26  31
ATOM     28  C   UNL     1       1.389   3.674  18.817  0.00  0.00    +0.000 A 
ATOM     29  C   UNL     1       1.917   4.541  17.868  0.00  0.00    +0.000 A 
ATOM     30  C   UNL     1       2.290   5.841  18.239  0.00  0.00    +0.000 A 
ATOM     31  C   UNL     1       2.165   6.275  19.567  0.00  0.00    +0.000 A 
ATOM     32  C   UNL     1       1.592   5.400  20.497  0.00  0.00    +0.000 A 
ATOM     33  C   UNL     1       1.217   4.103  20.128  0.00  0.00    +0.000 A 
ENDBRANCH  26  31
ENDBRANCH  24  26
ENDBRANCH   1  24
TORSDOF 3
ENDMDL
MODEL 8
REMARK VINA RESULT:      -8.0      1.665      2.236
REMARK  Name = 
REMARK  3 active torsions:
REMARK  status: ('A' for Active; 'I' for Inactive)
REMARK    1  A    between atoms: C_4  and  N_5
REMARK    2  A    between atoms: N_5  and  N_6
REMARK    3  A    between atoms: N_6  and  C_7
REMARK                            x       y       z     vdW  Elec       q    Type
REMARK                         _______ _______ _______ _____ _____    ______ ____
ROOT
ATOM      1  C   UNL     1       0.306  10.289  20.409  0.00  0.00    +0.000 A 
ATOM      2  N   UNL     1      -0.297   9.912  21.561  0.00  0.00    +0.000 NA
ATOM      3  N   UNL     1      -0.195   8.683  22.029  0.00  0.00    +0.000 NA
ATOM      4  N   UNL     1       0.473   7.773  21.462  0.00  0.00    +0.000 NA
ATOM      5  C   UNL     1       1.152   8.059  20.326  0.00  0.00    +0.000 A 
ATOM      6  C   UNL     1       1.085   9.328  19.780  0.00  0.00    +0.000 A 
ATOM      7  S   UNL     1       2.052   9.462  18.376  0.00  0.00    +0.000 S 
ATOM      8  C   UNL     1       2.569   7.852  18.508  0.00  0.00    +0.000 A 
ATOM      9  N   UNL     1       3.451   7.385  17.618  0.00  0.00    +0.000 NA
ATOM     10  C   UNL     1       3.828   6.103  17.744  0.00  0.00    +0.000 A 
ATOM     11  N   UNL     1       4.792   5.693  16.857  0.00  0.00    +0.000 N 
ATOM     12  C   UNL     1       4.836   4.429  16.123  0.00  0.00    +0.000 C 
ATOM     13  C   UNL     1       6.242   3.830  16.312  0.00  0.00    +0.000 C 
ATOM     14  O   UNL     1       7.256   4.737  15.836  0.00  0.00    +0.000 OA
ATOM     15  C   UNL     1       7.172   6.007  16.515  0.00  0.00    +0.000 C 
ATOM     16  C   UNL     1       5.783   6.657  16.354  0.00  0.00    +0.000 C 
ATOM     17  C   UNL     1       3.319   5.283  18.777  0.00  0.00    +0.000 A 
ATOM     18  C   UNL     1       2.357   5.799  19.699  0.00  0.00    +0.000 A 
ATOM     19  C   UNL     1       1.995   7.166  19.565  0.00  0.00    +0.000 A 
ATOM     20  C   UNL     1       1.805   4.939  20.818  0.00  0.00    +0.000 C 
ATOM     21  C   UNL     1       2.032   3.445  20.621  0.00  0.00    +0.000 C 
ATOM     22  C   UNL     1       3.492   3.207  20.286  0.00  0.00    +0.000 C 
ATOM     23  C   UNL     1       3.803   3.857  18.946  0.00  0.00    +0.000 C 
ENDROOT
BRANCH   1  24
ATOM     24  N   UNL     1       0.159  11.581  19.866  0.00  0.00    +0.000 N 
ATOM     25  H   UNL     1       0.731  11.709  19.032  0.00  0.00    +0.000 HD
BRANCH  24  26
ATOM     26  N   UNL     1       0.015  12.694  20.638  0.00  0.00    +0.000 N 
ATOM     27  H   UNL     1       0.846  12.992  21.157  0.00  0.00    +0.000 HD
BRANCH  26  31
ATOM     28  C   UNL     1      -3.595  13.351  22.739  0.00  0.00    +0.000 A 
ATOM     29  C   UNL     1      -2.387  13.411  23.421  0.00  0.00    +0.000 A 
ATOM     30  C   UNL     1      -1.183  13.204  22.732  0.00  0.00    +0.000 A 
ATOM     31  C   UNL     1      -1.176  12.966  21.350  0.00  0.00    +0.000 A 
ATOM     32  C   UNL     1      -2.407  12.868  20.690  0.00  0.00    +0.000 A 
ATOM     33  C   UNL     1      -3.609  13.071  21.377  0.00  0.00    +0.000 A 
ENDBRANCH  26  31
ENDBRANCH  24  26
ENDBRANCH   1  24
TORSDOF 3
ENDMDL
MODEL 9
REMARK VINA RESULT:      -8.0      1.830      2.524
REMARK  Name = 
REMARK  3 active torsions:
REMARK  status: ('A' for Active; 'I' for Inactive)
REMARK    1  A    between atoms: C_4  and  N_5
REMARK    2  A    between atoms: N_5  and  N_6
REMARK    3  A    between atoms: N_6  and  C_7
REMARK                            x       y       z     vdW  Elec       q    Type
REMARK                         _______ _______ _______ _____ _____    ______ ____
ROOT
ATOM      1  C   UNL     1       0.457  10.564  20.277  0.00  0.00    +0.000 A 
ATOM      2  N   UNL     1      -0.115  10.267  21.467  0.00  0.00    +0.000 NA
ATOM      3  N   UNL     1      -0.043   9.058  21.990  0.00  0.00    +0.000 NA
ATOM      4  N   UNL     1       0.567   8.096  21.444  0.00  0.00    +0.000 NA
ATOM      5  C   UNL     1       1.212   8.301  20.272  0.00  0.00    +0.000 A 
ATOM      6  C   UNL     1       1.174   9.544  19.667  0.00  0.00    +0.000 A 
ATOM      7  S   UNL     1       2.090   9.573  18.224  0.00  0.00    +0.000 S 
ATOM      8  C   UNL     1       2.549   7.951  18.415  0.00  0.00    +0.000 A 
ATOM      9  N   UNL     1       3.378   7.407  17.517  0.00  0.00    +0.000 NA
ATOM     10  C   UNL     1       3.710   6.119  17.691  0.00  0.00    +0.000 A 
ATOM     11  N   UNL     1       4.622   5.629  16.791  0.00  0.00    +0.000 N 
ATOM     12  C   UNL     1       4.590   4.331  16.118  0.00  0.00    +0.000 C 
ATOM     13  C   UNL     1       5.978   3.685  16.284  0.00  0.00    +0.000 C 
ATOM     14  O   UNL     1       7.007   4.526  15.728  0.00  0.00    +0.000 OA
ATOM     15  C   UNL     1       6.998   5.829  16.348  0.00  0.00    +0.000 C 
ATOM     16  C   UNL     1       5.630   6.527  16.206  0.00  0.00    +0.000 C 
ATOM     17  C   UNL     1       3.209   5.369  18.781  0.00  0.00    +0.000 A 
ATOM     18  C   UNL     1       2.304   5.966  19.711  0.00  0.00    +0.000 A 
ATOM     19  C   UNL     1       1.990   7.339  19.524  0.00  0.00    +0.000 A 
ATOM     20  C   UNL     1       1.763   5.183  20.890  0.00  0.00    +0.000 C 
ATOM     21  C   UNL     1       1.924   3.673  20.757  0.00  0.00    +0.000 C 
ATOM     22  C   UNL     1       3.360   3.361  20.382  0.00  0.00    +0.000 C 
ATOM     23  C   UNL     1       3.644   3.934  19.001  0.00  0.00    +0.000 C 
ENDROOT
BRANCH   1  24
ATOM     24  N   UNL     1       0.339  11.834  19.678  0.00  0.00    +0.000 N 
ATOM     25  H   UNL     1       1.150  12.422  19.872  0.00  0.00    +0.000 HD
BRANCH  24  26
ATOM     26  N   UNL     1      -0.845  12.502  19.592  0.00  0.00    +0.000 N 
ATOM     27  H   UNL     1      -1.560  12.076  18.996  0.00  0.00    +0.000 HD
BRANCH  26  31
ATOM     28  C   UNL     1      -0.964  16.728  19.655  0.00  0.00    +0.000 A 
ATOM     29  C   UNL     1      -0.182  16.081  18.707  0.00  0.00    +0.000 A 
ATOM     30  C   UNL     1      -0.143  14.679  18.672  0.00  0.00    +0.000 A 
ATOM     31  C   UNL     1      -0.909  13.914  19.564  0.00  0.00    +0.000 A 
ATOM     32  C   UNL     1      -1.657  14.587  20.537  0.00  0.00    +0.000 A 
ATOM     33  C   UNL     1      -1.696  15.986  20.575  0.00  0.00    +0.000 A 
ENDBRANCH  26  31
ENDBRANCH  24  26
ENDBRANCH   1  24
TORSDOF 3
ENDMDL
