MODEL 1
REMARK VINA RESULT:      -7.3      0.000      0.000
REMARK  Name = 
REMARK  11 active torsions:
REMARK  status: ('A' for Active; 'I' for Inactive)
REMARK    1  A    between atoms: C_1  and  C_2
REMARK    2  A    between atoms: C_2  and  O_3
REMARK    3  A    between atoms: O_3  and  C_4
REMARK    4  A    between atoms: C_4  and  C_6
REMARK    5  A    between atoms: C_7  and  C_8
REMARK    6  A    between atoms: C_10  and  C_11
REMARK    7  A    between atoms: C_12  and  C_13
REMARK    8  A    between atoms: C_13  and  O_15
REMARK    9  A    between atoms: O_15  and  C_16
REMARK   10  A    between atoms: C_16  and  C_17
REMARK   11  A    between atoms: C_18  and  C_19
REMARK                            x       y       z     vdW  Elec       q    Type
REMARK                         _______ _______ _______ _____ _____    ______ ____
ROOT
ATOM      1  C   UNL     1       2.308   7.084  19.596  0.00  0.00    +0.000 C 
ATOM      2  C   UNL     1       2.376   7.758  18.424  0.00  0.00    +0.000 C 
ATOM      3  C   UNL     1       1.546   8.947  18.003  0.00  0.00    +0.000 C 
ATOM      4  N   UNL     1       3.321   7.378  17.484  0.00  0.00    +0.000 N 
ATOM      5  C   UNL     1       4.349   6.478  17.702  0.00  0.00    +0.000 C 
ATOM      6  C   UNL     1       5.357   6.363  16.586  0.00  0.00    +0.000 C 
ATOM      7  C   UNL     1       4.385   5.763  18.852  0.00  0.00    +0.000 C 
ATOM      8  C   UNL     1       3.227   5.873  19.858  0.00  0.00    +0.000 C 
ATOM      9  H   UNL     1       3.303   7.861  16.589  0.00  0.00    +0.000 HD
ENDROOT
BRANCH   8  10
ATOM     10  C   UNL     1       2.409   4.573  19.895  0.00  0.00    +0.000 A 
ATOM     11  C   UNL     1       2.139   3.949  21.128  0.00  0.00    +0.000 A 
ATOM     12  F   UNL     1       2.597   4.472  22.272  0.00  0.00    +0.000 F 
ATOM     13  C   UNL     1       1.393   2.777  21.229  0.00  0.00    +0.000 A 
ATOM     14  C   UNL     1       0.889   2.180  20.084  0.00  0.00    +0.000 A 
ATOM     15  C   UNL     1       1.144   2.763  18.845  0.00  0.00    +0.000 A 
ATOM     16  C   UNL     1       1.895   3.945  18.745  0.00  0.00    +0.000 A 
ATOM     17 CL   UNL     1       2.133   4.561  17.146  0.00  0.00    +0.000 Cl
ENDBRANCH   8  10
BRANCH   1  18
ATOM     18  C   UNL     1       1.393   7.510  20.696  0.00  0.00    +0.000 C 
ATOM     19  O   UNL     1       0.339   6.983  20.998  0.00  0.00    +0.000 OA
BRANCH  18  20
ATOM     20  O   UNL     1       1.872   8.659  21.235  0.00  0.00    +0.000 OA
BRANCH  20  22
ATOM     21  C   UNL     1       0.525   9.488  22.994  0.00  0.00    +0.000 C 
ATOM     22  C   UNL     1       0.907   9.673  21.536  0.00  0.00    +0.000 C 
ENDBRANCH  20  22
ENDBRANCH  18  20
ENDBRANCH   1  18
BRANCH   7  23
ATOM     23  C   UNL     1       5.503   4.816  19.139  0.00  0.00    +0.000 C 
ATOM     24  O   UNL     1       5.486   3.627  18.863  0.00  0.00    +0.000 OA
BRANCH  23  25
ATOM     25  O   UNL     1       6.524   5.434  19.785  0.00  0.00    +0.000 OA
BRANCH  25  26
ATOM     26  C   UNL     1       7.759   5.519  19.049  0.00  0.00    +0.000 C 
ATOM     27  C   UNL     1       8.090   6.942  18.646  0.00  0.00    +0.000 C 
ENDBRANCH  25  26
ENDBRANCH  23  25
ENDBRANCH   7  23
TORSDOF 7
ENDMDL
MODEL 2
REMARK VINA RESULT:      -7.2      1.497      1.791
REMARK  Name = 
REMARK  11 active torsions:
REMARK  status: ('A' for Active; 'I' for Inactive)
REMARK    1  A    between atoms: C_1  and  C_2
REMARK    2  A    between atoms: C_2  and  O_3
REMARK    3  A    between atoms: O_3  and  C_4
REMARK    4  A    between atoms: C_4  and  C_6
REMARK    5  A    between atoms: C_7  and  C_8
REMARK    6  A    between atoms: C_10  and  C_11
REMARK    7  A    between atoms: C_12  and  C_13
REMARK    8  A    between atoms: C_13  and  O_15
REMARK    9  A    between atoms: O_15  and  C_16
REMARK   10  A    between atoms: C_16  and  C_17
REMARK   11  A    between atoms: C_18  and  C_19
REMARK                            x       y       z     vdW  Elec       q    Type
REMARK                         _______ _______ _______ _____ _____    ______ ____
ROOT
ATOM      1  C   UNL     1       2.281   7.196  19.523  0.00  0.00    +0.000 C 
ATOM      2  C   UNL     1       2.362   8.001  18.438  0.00  0.00    +0.000 C 
ATOM      3  C   UNL     1       1.575   9.262  18.174  0.00  0.00    +0.000 C 
ATOM      4  N   UNL     1       3.282   7.702  17.446  0.00  0.00    +0.000 N 
ATOM      5  C   UNL     1       4.277   6.745  17.540  0.00  0.00    +0.000 C 
ATOM      6  C   UNL     1       5.268   6.726  16.402  0.00  0.00    +0.000 C 
ATOM      7  C   UNL     1       4.297   5.897  18.596  0.00  0.00    +0.000 C 
ATOM      8  C   UNL     1       3.156   5.929  19.626  0.00  0.00    +0.000 C 
ATOM      9  H   UNL     1       3.273   8.288  16.615  0.00  0.00    +0.000 HD
ENDROOT
BRANCH   8  10
ATOM     10  C   UNL     1       2.289   4.665  19.520  0.00  0.00    +0.000 A 
ATOM     11  C   UNL     1       1.737   4.295  18.278  0.00  0.00    +0.000 A 
ATOM     12  F   UNL     1       1.952   5.041  17.187  0.00  0.00    +0.000 F 
ATOM     13  C   UNL     1       0.953   3.155  18.114  0.00  0.00    +0.000 A 
ATOM     14  C   UNL     1       0.689   2.338  19.203  0.00  0.00    +0.000 A 
ATOM     15  C   UNL     1       1.209   2.677  20.449  0.00  0.00    +0.000 A 
ATOM     16  C   UNL     1       2.001   3.826  20.613  0.00  0.00    +0.000 A 
ATOM     17 CL   UNL     1       2.583   4.125  22.213  0.00  0.00    +0.000 Cl
ENDBRANCH   8  10
BRANCH   1  18
ATOM     18  C   UNL     1       1.395   7.521  20.679  0.00  0.00    +0.000 C 
ATOM     19  O   UNL     1       0.374   6.936  20.989  0.00  0.00    +0.000 OA
BRANCH  18  20
ATOM     20  O   UNL     1       1.852   8.655  21.267  0.00  0.00    +0.000 OA
BRANCH  20  22
ATOM     21  C   UNL     1       0.400  10.497  21.577  0.00  0.00    +0.000 C 
ATOM     22  C   UNL     1       0.990   9.263  22.235  0.00  0.00    +0.000 C 
ENDBRANCH  20  22
ENDBRANCH  18  20
ENDBRANCH   1  18
BRANCH   7  23
ATOM     23  C   UNL     1       5.382   4.882  18.752  0.00  0.00    +0.000 C 
ATOM     24  O   UNL     1       5.365   3.773  18.241  0.00  0.00    +0.000 OA
BRANCH  23  25
ATOM     25  O   UNL     1       6.369   5.331  19.567  0.00  0.00    +0.000 OA
BRANCH  25  26
ATOM     26  C   UNL     1       7.669   5.442  18.959  0.00  0.00    +0.000 C 
ATOM     27  C   UNL     1       8.030   6.879  18.636  0.00  0.00    +0.000 C 
ENDBRANCH  25  26
ENDBRANCH  23  25
ENDBRANCH   7  23
TORSDOF 7
ENDMDL
MODEL 3
REMARK VINA RESULT:      -7.0      0.942      1.781
REMARK  Name = 
REMARK  11 active torsions:
REMARK  status: ('A' for Active; 'I' for Inactive)
REMARK    1  A    between atoms: C_1  and  C_2
REMARK    2  A    between atoms: C_2  and  O_3
REMARK    3  A    between atoms: O_3  and  C_4
REMARK    4  A    between atoms: C_4  and  C_6
REMARK    5  A    between atoms: C_7  and  C_8
REMARK    6  A    between atoms: C_10  and  C_11
REMARK    7  A    between atoms: C_12  and  C_13
REMARK    8  A    between atoms: C_13  and  O_15
REMARK    9  A    between atoms: O_15  and  C_16
REMARK   10  A    between atoms: C_16  and  C_17
REMARK   11  A    between atoms: C_18  and  C_19
REMARK                            x       y       z     vdW  Elec       q    Type
REMARK                         _______ _______ _______ _____ _____    ______ ____
ROOT
ATOM      1  C   UNL     1       2.188   7.259  19.667  0.00  0.00    +0.000 C 
ATOM      2  C   UNL     1       2.264   7.953  18.507  0.00  0.00    +0.000 C 
ATOM      3  C   UNL     1       1.482   9.187  18.126  0.00  0.00    +0.000 C 
ATOM      4  N   UNL     1       3.172   7.549  17.541  0.00  0.00    +0.000 N 
ATOM      5  C   UNL     1       4.161   6.599  17.720  0.00  0.00    +0.000 C 
ATOM      6  C   UNL     1       5.141   6.460  16.581  0.00  0.00    +0.000 C 
ATOM      7  C   UNL     1       4.187   5.860  18.855  0.00  0.00    +0.000 C 
ATOM      8  C   UNL     1       3.056   6.002  19.887  0.00  0.00    +0.000 C 
ATOM      9  H   UNL     1       3.158   8.050  16.656  0.00  0.00    +0.000 HD
ENDROOT
BRANCH   8  10
ATOM     10  C   UNL     1       2.180   4.741  19.916  0.00  0.00    +0.000 A 
ATOM     11  C   UNL     1       2.023   4.023  21.117  0.00  0.00    +0.000 A 
ATOM     12  F   UNL     1       2.640   4.423  22.236  0.00  0.00    +0.000 F 
ATOM     13  C   UNL     1       1.233   2.879  21.211  0.00  0.00    +0.000 A 
ATOM     14  C   UNL     1       0.567   2.408  20.090  0.00  0.00    +0.000 A 
ATOM     15  C   UNL     1       0.705   3.086  18.882  0.00  0.00    +0.000 A 
ATOM     16  C   UNL     1       1.500   4.240  18.789  0.00  0.00    +0.000 A 
ATOM     17 CL   UNL     1       1.581   4.983  17.230  0.00  0.00    +0.000 Cl
ENDBRANCH   8  10
BRANCH   1  18
ATOM     18  C   UNL     1       1.316   7.704  20.793  0.00  0.00    +0.000 C 
ATOM     19  O   UNL     1       0.248   7.216  21.111  0.00  0.00    +0.000 OA
BRANCH  18  20
ATOM     20  O   UNL     1       1.854   8.824  21.339  0.00  0.00    +0.000 OA
BRANCH  20  22
ATOM     21  C   UNL     1       0.444  10.722  21.391  0.00  0.00    +0.000 C 
ATOM     22  C   UNL     1       1.007   9.577  22.214  0.00  0.00    +0.000 C 
ENDBRANCH  20  22
ENDBRANCH  18  20
ENDBRANCH   1  18
BRANCH   7  23
ATOM     23  C   UNL     1       5.266   4.857  19.101  0.00  0.00    +0.000 C 
ATOM     24  O   UNL     1       6.275   5.079  19.752  0.00  0.00    +0.000 OA
BRANCH  23  25
ATOM     25  O   UNL     1       5.006   3.683  18.473  0.00  0.00    +0.000 OA
BRANCH  25  26
ATOM     26  C   UNL     1       4.706   2.574  19.340  0.00  0.00    +0.000 C 
ATOM     27  C   UNL     1       3.899   1.499  18.638  0.00  0.00    +0.000 C 
ENDBRANCH  25  26
ENDBRANCH  23  25
ENDBRANCH   7  23
TORSDOF 7
ENDMDL
MODEL 4
REMARK VINA RESULT:      -6.9      1.717      2.479
REMARK  Name = 
REMARK  11 active torsions:
REMARK  status: ('A' for Active; 'I' for Inactive)
REMARK    1  A    between atoms: C_1  and  C_2
REMARK    2  A    between atoms: C_2  and  O_3
REMARK    3  A    between atoms: O_3  and  C_4
REMARK    4  A    between atoms: C_4  and  C_6
REMARK    5  A    between atoms: C_7  and  C_8
REMARK    6  A    between atoms: C_10  and  C_11
REMARK    7  A    between atoms: C_12  and  C_13
REMARK    8  A    between atoms: C_13  and  O_15
REMARK    9  A    between atoms: O_15  and  C_16
REMARK   10  A    between atoms: C_16  and  C_17
REMARK   11  A    between atoms: C_18  and  C_19
REMARK                            x       y       z     vdW  Elec       q    Type
REMARK                         _______ _______ _______ _____ _____    ______ ____
ROOT
ATOM      1  C   UNL     1       2.229   7.233  19.588  0.00  0.00    +0.000 C 
ATOM      2  C   UNL     1       2.383   8.014  18.494  0.00  0.00    +0.000 C 
ATOM      3  C   UNL     1       1.650   9.295  18.173  0.00  0.00    +0.000 C 
ATOM      4  N   UNL     1       3.331   7.664  17.546  0.00  0.00    +0.000 N 
ATOM      5  C   UNL     1       4.288   6.676  17.698  0.00  0.00    +0.000 C 
ATOM      6  C   UNL     1       5.323   6.602  16.603  0.00  0.00    +0.000 C 
ATOM      7  C   UNL     1       4.236   5.849  18.769  0.00  0.00    +0.000 C 
ATOM      8  C   UNL     1       3.055   5.939  19.750  0.00  0.00    +0.000 C 
ATOM      9  H   UNL     1       3.376   8.234  16.705  0.00  0.00    +0.000 HD
ENDROOT
BRANCH   8  10
ATOM     10  C   UNL     1       2.150   4.704  19.632  0.00  0.00    +0.000 A 
ATOM     11  C   UNL     1       1.540   4.397  18.400  0.00  0.00    +0.000 A 
ATOM     12  F   UNL     1       1.732   5.179  17.331  0.00  0.00    +0.000 F 
ATOM     13  C   UNL     1       0.719   3.286  18.224  0.00  0.00    +0.000 A 
ATOM     14  C   UNL     1       0.475   2.434  19.291  0.00  0.00    +0.000 A 
ATOM     15  C   UNL     1       1.053   2.710  20.527  0.00  0.00    +0.000 A 
ATOM     16  C   UNL     1       1.882   3.830  20.702  0.00  0.00    +0.000 A 
ATOM     17 CL   UNL     1       2.536   4.051  22.288  0.00  0.00    +0.000 Cl
ENDBRANCH   8  10
BRANCH   1  18
ATOM     18  C   UNL     1       1.309   7.610  20.701  0.00  0.00    +0.000 C 
ATOM     19  O   UNL     1       0.243   7.083  20.961  0.00  0.00    +0.000 OA
BRANCH  18  20
ATOM     20  O   UNL     1       1.798   8.720  21.308  0.00  0.00    +0.000 OA
BRANCH  20  22
ATOM     21  C   UNL     1       0.376  10.603  21.469  0.00  0.00    +0.000 C 
ATOM     22  C   UNL     1       0.916   9.394  22.211  0.00  0.00    +0.000 C 
ENDBRANCH  20  22
ENDBRANCH  18  20
ENDBRANCH   1  18
BRANCH   7  23
ATOM     23  C   UNL     1       5.277   4.801  18.989  0.00  0.00    +0.000 C 
ATOM     24  O   UNL     1       6.290   4.966  19.651  0.00  0.00    +0.000 OA
BRANCH  23  25
ATOM     25  O   UNL     1       4.979   3.656  18.325  0.00  0.00    +0.000 OA
BRANCH  25  26
ATOM     26  C   UNL     1       4.683   2.520  19.157  0.00  0.00    +0.000 C 
ATOM     27  C   UNL     1       3.877   1.466  18.423  0.00  0.00    +0.000 C 
ENDBRANCH  25  26
ENDBRANCH  23  25
ENDBRANCH   7  23
TORSDOF 7
ENDMDL
MODEL 5
REMARK VINA RESULT:      -6.8      2.203      4.413
REMARK  Name = 
REMARK  11 active torsions:
REMARK  status: ('A' for Active; 'I' for Inactive)
REMARK    1  A    between atoms: C_1  and  C_2
REMARK    2  A    between atoms: C_2  and  O_3
REMARK    3  A    between atoms: O_3  and  C_4
REMARK    4  A    between atoms: C_4  and  C_6
REMARK    5  A    between atoms: C_7  and  C_8
REMARK    6  A    between atoms: C_10  and  C_11
REMARK    7  A    between atoms: C_12  and  C_13
REMARK    8  A    between atoms: C_13  and  O_15
REMARK    9  A    between atoms: O_15  and  C_16
REMARK   10  A    between atoms: C_16  and  C_17
REMARK   11  A    between atoms: C_18  and  C_19
REMARK                            x       y       z     vdW  Elec       q    Type
REMARK                         _______ _______ _______ _____ _____    ______ ____
ROOT
ATOM      1  C   UNL     1       2.486   7.123  18.726  0.00  0.00    +0.000 C 
ATOM      2  C   UNL     1       1.864   6.991  19.920  0.00  0.00    +0.000 C 
ATOM      3  C   UNL     1       1.293   8.092  20.781  0.00  0.00    +0.000 C 
ATOM      4  N   UNL     1       1.672   5.721  20.441  0.00  0.00    +0.000 N 
ATOM      5  C   UNL     1       1.891   4.536  19.762  0.00  0.00    +0.000 C 
ATOM      6  C   UNL     1       1.438   3.286  20.476  0.00  0.00    +0.000 C 
ATOM      7  C   UNL     1       2.492   4.557  18.548  0.00  0.00    +0.000 C 
ATOM      8  C   UNL     1       3.026   5.883  17.982  0.00  0.00    +0.000 C 
ATOM      9  H   UNL     1       1.261   5.660  21.370  0.00  0.00    +0.000 HD
ENDROOT
BRANCH   8  10
ATOM     10  C   UNL     1       4.563   5.891  17.967  0.00  0.00    +0.000 A 
ATOM     11  C   UNL     1       5.277   5.491  19.112  0.00  0.00    +0.000 A 
ATOM     12  F   UNL     1       4.631   5.113  20.222  0.00  0.00    +0.000 F 
ATOM     13  C   UNL     1       6.669   5.464  19.158  0.00  0.00    +0.000 A 
ATOM     14  C   UNL     1       7.402   5.845  18.045  0.00  0.00    +0.000 A 
ATOM     15  C   UNL     1       6.731   6.257  16.896  0.00  0.00    +0.000 A 
ATOM     16  C   UNL     1       5.327   6.281  16.851  0.00  0.00    +0.000 A 
ATOM     17 CL   UNL     1       4.625   6.810  15.362  0.00  0.00    +0.000 Cl
ENDBRANCH   8  10
BRANCH   1  18
ATOM     18  C   UNL     1       2.625   8.448  18.054  0.00  0.00    +0.000 C 
ATOM     19  O   UNL     1       3.646   9.106  17.968  0.00  0.00    +0.000 OA
BRANCH  18  20
ATOM     20  O   UNL     1       1.397   8.860  17.652  0.00  0.00    +0.000 OA
BRANCH  20  22
ATOM     21  C   UNL     1      -0.521  10.135  18.193  0.00  0.00    +0.000 C 
ATOM     22  C   UNL     1       0.992  10.166  18.075  0.00  0.00    +0.000 C 
ENDBRANCH  20  22
ENDBRANCH  18  20
ENDBRANCH   1  18
BRANCH   7  23
ATOM     23  C   UNL     1       2.702   3.302  17.767  0.00  0.00    +0.000 C 
ATOM     24  O   UNL     1       1.866   2.800  17.033  0.00  0.00    +0.000 OA
BRANCH  23  25
ATOM     25  O   UNL     1       3.924   2.765  18.010  0.00  0.00    +0.000 OA
BRANCH  25  26
ATOM     26  C   UNL     1       3.930   1.602  18.859  0.00  0.00    +0.000 C 
ATOM     27  C   UNL     1       4.672   1.844  20.159  0.00  0.00    +0.000 C 
ENDBRANCH  25  26
ENDBRANCH  23  25
ENDBRANCH   7  23
TORSDOF 7
ENDMDL
MODEL 6
REMARK VINA RESULT:      -6.7      2.778      5.007
REMARK  Name = 
REMARK  11 active torsions:
REMARK  status: ('A' for Active; 'I' for Inactive)
REMARK    1  A    between atoms: C_1  and  C_2
REMARK    2  A    between atoms: C_2  and  O_3
REMARK    3  A    between atoms: O_3  and  C_4
REMARK    4  A    between atoms: C_4  and  C_6
REMARK    5  A    between atoms: C_7  and  C_8
REMARK    6  A    between atoms: C_10  and  C_11
REMARK    7  A    between atoms: C_12  and  C_13
REMARK    8  A    between atoms: C_13  and  O_15
REMARK    9  A    between atoms: O_15  and  C_16
REMARK   10  A    between atoms: C_16  and  C_17
REMARK   11  A    between atoms: C_18  and  C_19
REMARK                            x       y       z     vdW  Elec       q    Type
REMARK                         _______ _______ _______ _____ _____    ______ ____
ROOT
ATOM      1  C   UNL     1       3.697   4.109  18.284  0.00  0.00    +0.000 C 
ATOM      2  C   UNL     1       4.494   3.459  19.163  0.00  0.00    +0.000 C 
ATOM      3  C   UNL     1       4.210   2.151  19.862  0.00  0.00    +0.000 C 
ATOM      4  N   UNL     1       5.737   3.992  19.465  0.00  0.00    +0.000 N 
ATOM      5  C   UNL     1       6.337   5.049  18.803  0.00  0.00    +0.000 C 
ATOM      6  C   UNL     1       7.766   5.332  19.194  0.00  0.00    +0.000 C 
ATOM      7  C   UNL     1       5.632   5.757  17.888  0.00  0.00    +0.000 C 
ATOM      8  C   UNL     1       4.140   5.455  17.671  0.00  0.00    +0.000 C 
ATOM      9  H   UNL     1       6.284   3.516  20.179  0.00  0.00    +0.000 HD
ENDROOT
BRANCH   8  10
ATOM     10  C   UNL     1       3.266   6.602  18.202  0.00  0.00    +0.000 A 
ATOM     11  C   UNL     1       2.938   7.681  17.359  0.00  0.00    +0.000 A 
ATOM     12  F   UNL     1       3.389   7.724  16.099  0.00  0.00    +0.000 F 
ATOM     13  C   UNL     1       2.141   8.745  17.775  0.00  0.00    +0.000 A 
ATOM     14  C   UNL     1       1.642   8.765  19.069  0.00  0.00    +0.000 A 
ATOM     15  C   UNL     1       1.953   7.720  19.935  0.00  0.00    +0.000 A 
ATOM     16  C   UNL     1       2.755   6.648  19.512  0.00  0.00    +0.000 A 
ATOM     17 CL   UNL     1       3.060   5.417  20.688  0.00  0.00    +0.000 Cl
ENDBRANCH   8  10
BRANCH   1  18
ATOM     18  C   UNL     1       2.397   3.535  17.828  0.00  0.00    +0.000 C 
ATOM     19  O   UNL     1       2.204   2.933  16.788  0.00  0.00    +0.000 OA
BRANCH  18  20
ATOM     20  O   UNL     1       1.432   3.897  18.710  0.00  0.00    +0.000 OA
BRANCH  20  22
ATOM     21  C   UNL     1       0.893   2.922  20.796  0.00  0.00    +0.000 C 
ATOM     22  C   UNL     1       0.675   2.833  19.297  0.00  0.00    +0.000 C 
ENDBRANCH  20  22
ENDBRANCH  18  20
ENDBRANCH   1  18
BRANCH   7  23
ATOM     23  C   UNL     1       6.261   6.874  17.123  0.00  0.00    +0.000 C 
ATOM     24  O   UNL     1       6.681   7.903  17.628  0.00  0.00    +0.000 OA
BRANCH  23  25
ATOM     25  O   UNL     1       6.269   6.621  15.790  0.00  0.00    +0.000 OA
BRANCH  25  26
ATOM     26  C   UNL     1       6.906   5.391  15.399  0.00  0.00    +0.000 C 
ATOM     27  C   UNL     1       6.029   4.554  14.489  0.00  0.00    +0.000 C 
ENDBRANCH  25  26
ENDBRANCH  23  25
ENDBRANCH   7  23
TORSDOF 7
ENDMDL
MODEL 7
REMARK VINA RESULT:      -6.6      1.735      2.239
REMARK  Name = 
REMARK  11 active torsions:
REMARK  status: ('A' for Active; 'I' for Inactive)
REMARK    1  A    between atoms: C_1  and  C_2
REMARK    2  A    between atoms: C_2  and  O_3
REMARK    3  A    between atoms: O_3  and  C_4
REMARK    4  A    between atoms: C_4  and  C_6
REMARK    5  A    between atoms: C_7  and  C_8
REMARK    6  A    between atoms: C_10  and  C_11
REMARK    7  A    between atoms: C_12  and  C_13
REMARK    8  A    between atoms: C_13  and  O_15
REMARK    9  A    between atoms: O_15  and  C_16
REMARK   10  A    between atoms: C_16  and  C_17
REMARK   11  A    between atoms: C_18  and  C_19
REMARK                            x       y       z     vdW  Elec       q    Type
REMARK                         _______ _______ _______ _____ _____    ______ ____
ROOT
ATOM      1  C   UNL     1       2.202   7.262  19.587  0.00  0.00    +0.000 C 
ATOM      2  C   UNL     1       2.239   8.117  18.539  0.00  0.00    +0.000 C 
ATOM      3  C   UNL     1       1.411   9.366  18.347  0.00  0.00    +0.000 C 
ATOM      4  N   UNL     1       3.146   7.889  17.516  0.00  0.00    +0.000 N 
ATOM      5  C   UNL     1       4.168   6.958  17.547  0.00  0.00    +0.000 C 
ATOM      6  C   UNL     1       5.136   7.018  16.391  0.00  0.00    +0.000 C 
ATOM      7  C   UNL     1       4.234   6.064  18.563  0.00  0.00    +0.000 C 
ATOM      8  C   UNL     1       3.114   6.017  19.615  0.00  0.00    +0.000 C 
ATOM      9  H   UNL     1       3.103   8.511  16.713  0.00  0.00    +0.000 HD
ENDROOT
BRANCH   8  10
ATOM     10  C   UNL     1       2.280   4.735  19.469  0.00  0.00    +0.000 A 
ATOM     11  C   UNL     1       1.741   4.388  18.215  0.00  0.00    +0.000 A 
ATOM     12  F   UNL     1       1.940   5.171  17.147  0.00  0.00    +0.000 F 
ATOM     13  C   UNL     1       0.988   3.234  18.014  0.00  0.00    +0.000 A 
ATOM     14  C   UNL     1       0.742   2.378  19.077  0.00  0.00    +0.000 A 
ATOM     15  C   UNL     1       1.250   2.693  20.335  0.00  0.00    +0.000 A 
ATOM     16  C   UNL     1       2.011   3.856  20.535  0.00  0.00    +0.000 A 
ATOM     17 CL   UNL     1       2.582   4.123  22.145  0.00  0.00    +0.000 Cl
ENDBRANCH   8  10
BRANCH   1  18
ATOM     18  C   UNL     1       1.332   7.509  20.773  0.00  0.00    +0.000 C 
ATOM     19  O   UNL     1       0.297   6.926  21.040  0.00  0.00    +0.000 OA
BRANCH  18  20
ATOM     20  O   UNL     1       1.821   8.577  21.452  0.00  0.00    +0.000 OA
BRANCH  20  22
ATOM     21  C   UNL     1       0.328  10.398  21.674  0.00  0.00    +0.000 C 
ATOM     22  C   UNL     1       0.932   9.201  22.385  0.00  0.00    +0.000 C 
ENDBRANCH  20  22
ENDBRANCH  18  20
ENDBRANCH   1  18
BRANCH   7  23
ATOM     23  C   UNL     1       5.349   5.075  18.651  0.00  0.00    +0.000 C 
ATOM     24  O   UNL     1       6.255   5.131  19.468  0.00  0.00    +0.000 OA
BRANCH  23  25
ATOM     25  O   UNL     1       5.254   4.129  17.683  0.00  0.00    +0.000 OA
BRANCH  25  26
ATOM     26  C   UNL     1       6.391   4.027  16.806  0.00  0.00    +0.000 C 
ATOM     27  C   UNL     1       5.988   3.721  15.377  0.00  0.00    +0.000 C 
ENDBRANCH  25  26
ENDBRANCH  23  25
ENDBRANCH   7  23
TORSDOF 7
ENDMDL
MODEL 8
REMARK VINA RESULT:      -6.4      0.936      1.376
REMARK  Name = 
REMARK  11 active torsions:
REMARK  status: ('A' for Active; 'I' for Inactive)
REMARK    1  A    between atoms: C_1  and  C_2
REMARK    2  A    between atoms: C_2  and  O_3
REMARK    3  A    between atoms: O_3  and  C_4
REMARK    4  A    between atoms: C_4  and  C_6
REMARK    5  A    between atoms: C_7  and  C_8
REMARK    6  A    between atoms: C_10  and  C_11
REMARK    7  A    between atoms: C_12  and  C_13
REMARK    8  A    between atoms: C_13  and  O_15
REMARK    9  A    between atoms: O_15  and  C_16
REMARK   10  A    between atoms: C_16  and  C_17
REMARK   11  A    between atoms: C_18  and  C_19
REMARK                            x       y       z     vdW  Elec       q    Type
REMARK                         _______ _______ _______ _____ _____    ______ ____
ROOT
ATOM      1  C   UNL     1       2.117   7.322  19.722  0.00  0.00    +0.000 C 
ATOM      2  C   UNL     1       2.108   8.088  18.606  0.00  0.00    +0.000 C 
ATOM      3  C   UNL     1       1.237   9.289  18.327  0.00  0.00    +0.000 C 
ATOM      4  N   UNL     1       3.004   7.803  17.588  0.00  0.00    +0.000 N 
ATOM      5  C   UNL     1       4.057   6.910  17.676  0.00  0.00    +0.000 C 
ATOM      6  C   UNL     1       5.002   6.904  16.499  0.00  0.00    +0.000 C 
ATOM      7  C   UNL     1       4.170   6.107  18.761  0.00  0.00    +0.000 C 
ATOM      8  C   UNL     1       3.070   6.114  19.836  0.00  0.00    +0.000 C 
ATOM      9  H   UNL     1       2.927   8.354  16.736  0.00  0.00    +0.000 HD
ENDROOT
BRANCH   8  10
ATOM     10  C   UNL     1       2.277   4.798  19.814  0.00  0.00    +0.000 A 
ATOM     11  C   UNL     1       2.105   4.063  21.002  0.00  0.00    +0.000 A 
ATOM     12  F   UNL     1       2.637   4.494  22.153  0.00  0.00    +0.000 F 
ATOM     13  C   UNL     1       1.387   2.871  21.051  0.00  0.00    +0.000 A 
ATOM     14  C   UNL     1       0.811   2.366  19.895  0.00  0.00    +0.000 A 
ATOM     15  C   UNL     1       0.967   3.060  18.699  0.00  0.00    +0.000 A 
ATOM     16  C   UNL     1       1.690   4.263  18.651  0.00  0.00    +0.000 A 
ATOM     17 CL   UNL     1       1.803   5.021  17.101  0.00  0.00    +0.000 Cl
ENDBRANCH   8  10
BRANCH   1  18
ATOM     18  C   UNL     1       1.261   7.642  20.901  0.00  0.00    +0.000 C 
ATOM     19  O   UNL     1       0.217   7.091  21.200  0.00  0.00    +0.000 OA
BRANCH  18  20
ATOM     20  O   UNL     1       1.775   8.729  21.527  0.00  0.00    +0.000 OA
BRANCH  20  22
ATOM     21  C   UNL     1       0.291  10.560  21.733  0.00  0.00    +0.000 C 
ATOM     22  C   UNL     1       0.919   9.389  22.466  0.00  0.00    +0.000 C 
ENDBRANCH  20  22
ENDBRANCH  18  20
ENDBRANCH   1  18
BRANCH   7  23
ATOM     23  C   UNL     1       5.319   5.164  18.909  0.00  0.00    +0.000 C 
ATOM     24  O   UNL     1       6.224   5.305  19.717  0.00  0.00    +0.000 OA
BRANCH  23  25
ATOM     25  O   UNL     1       5.253   4.154  18.006  0.00  0.00    +0.000 OA
BRANCH  25  26
ATOM     26  C   UNL     1       6.361   4.072  17.091  0.00  0.00    +0.000 C 
ATOM     27  C   UNL     1       5.920   3.707  15.687  0.00  0.00    +0.000 C 
ENDBRANCH  25  26
ENDBRANCH  23  25
ENDBRANCH   7  23
TORSDOF 7
ENDMDL
MODEL 9
REMARK VINA RESULT:      -6.3      5.369      8.083
REMARK  Name = 
REMARK  11 active torsions:
REMARK  status: ('A' for Active; 'I' for Inactive)
REMARK    1  A    between atoms: C_1  and  C_2
REMARK    2  A    between atoms: C_2  and  O_3
REMARK    3  A    between atoms: O_3  and  C_4
REMARK    4  A    between atoms: C_4  and  C_6
REMARK    5  A    between atoms: C_7  and  C_8
REMARK    6  A    between atoms: C_10  and  C_11
REMARK    7  A    between atoms: C_12  and  C_13
REMARK    8  A    between atoms: C_13  and  O_15
REMARK    9  A    between atoms: O_15  and  C_16
REMARK   10  A    between atoms: C_16  and  C_17
REMARK   11  A    between atoms: C_18  and  C_19
REMARK                            x       y       z     vdW  Elec       q    Type
REMARK                         _______ _______ _______ _____ _____    ______ ____
ROOT
ATOM      1  C   UNL     1       0.093  12.908  19.483  0.00  0.00    +0.000 C 
ATOM      2  C   UNL     1      -0.823  13.746  20.022  0.00  0.00    +0.000 C 
ATOM      3  C   UNL     1      -0.568  15.087  20.669  0.00  0.00    +0.000 C 
ATOM      4  N   UNL     1      -2.164  13.401  19.969  0.00  0.00    +0.000 N 
ATOM      5  C   UNL     1      -2.691  12.350  19.240  0.00  0.00    +0.000 C 
ATOM      6  C   UNL     1      -4.198  12.283  19.194  0.00  0.00    +0.000 C 
ATOM      7  C   UNL     1      -1.860  11.461  18.643  0.00  0.00    +0.000 C 
ATOM      8  C   UNL     1      -0.343  11.560  18.871  0.00  0.00    +0.000 C 
ATOM      9  H   UNL     1      -2.820  14.019  20.440  0.00  0.00    +0.000 HD
ENDROOT
BRANCH   8  10
ATOM     10  C   UNL     1       0.159  10.391  19.732  0.00  0.00    +0.000 A 
ATOM     11  C   UNL     1      -0.326  10.228  21.044  0.00  0.00    +0.000 A 
ATOM     12  F   UNL     1      -1.214  11.090  21.555  0.00  0.00    +0.000 F 
ATOM     13  C   UNL     1       0.079   9.183  21.871  0.00  0.00    +0.000 A 
ATOM     14  C   UNL     1       0.999   8.254  21.406  0.00  0.00    +0.000 A 
ATOM     15  C   UNL     1       1.508   8.388  20.117  0.00  0.00    +0.000 A 
ATOM     16  C   UNL     1       1.096   9.441  19.284  0.00  0.00    +0.000 A 
ATOM     17 CL   UNL     1       1.806   9.485  17.708  0.00  0.00    +0.000 Cl
ENDBRANCH   8  10
BRANCH   1  18
ATOM     18  C   UNL     1       1.539  13.269  19.404  0.00  0.00    +0.000 C 
ATOM     19  O   UNL     1       2.365  13.120  20.284  0.00  0.00    +0.000 OA
BRANCH  18  20
ATOM     20  O   UNL     1       1.762  13.903  18.226  0.00  0.00    +0.000 OA
BRANCH  20  22
ATOM     21  C   UNL     1       2.521  16.143  18.187  0.00  0.00    +0.000 C 
ATOM     22  C   UNL     1       2.955  14.690  18.140  0.00  0.00    +0.000 C 
ENDBRANCH  20  22
ENDBRANCH  18  20
ENDBRANCH   1  18
BRANCH   7  23
ATOM     23  C   UNL     1      -2.394  10.341  17.812  0.00  0.00    +0.000 C 
ATOM     24  O   UNL     1      -2.785   9.276  18.262  0.00  0.00    +0.000 OA
BRANCH  23  25
ATOM     25  O   UNL     1      -2.349  10.639  16.489  0.00  0.00    +0.000 OA
BRANCH  25  26
ATOM     26  C   UNL     1      -3.063   9.734  15.628  0.00  0.00    +0.000 C 
ATOM     27  C   UNL     1      -3.007  10.161  14.174  0.00  0.00    +0.000 C 
ENDBRANCH  25  26
ENDBRANCH  23  25
ENDBRANCH   7  23
TORSDOF 7
ENDMDL
