MODEL 1
REMARK VINA RESULT:      -8.8      0.000      0.000
REMARK  Name = 
REMARK  3 active torsions:
REMARK  status: ('A' for Active; 'I' for Inactive)
REMARK    1  A    between atoms: N_4  and  C_5
REMARK    2  A    between atoms: C_5  and  C_7
REMARK    3  A    between atoms: C_13  and  O_14
REMARK                            x       y       z     vdW  Elec       q    Type
REMARK                         _______ _______ _______ _____ _____    ______ ____
ROOT
ATOM      1  C   UNL     1       5.803   5.081  15.555  0.00  0.00    +0.000 A 
ATOM      2  C   UNL     1       5.369   6.414  15.728  0.00  0.00    +0.000 A 
ATOM      3  C   UNL     1       4.509   6.762  16.778  0.00  0.00    +0.000 A 
ATOM      4  C   UNL     1       4.097   5.773  17.655  0.00  0.00    +0.000 A 
ATOM      5  C   UNL     1       4.545   4.442  17.493  0.00  0.00    +0.000 A 
ATOM      6  C   UNL     1       5.393   4.087  16.455  0.00  0.00    +0.000 A 
ATOM      7  C   UNL     1       3.958   3.554  18.575  0.00  0.00    +0.000 C 
ATOM      8  C   UNL     1       3.133   4.542  19.379  0.00  0.00    +0.000 A 
ATOM      9  C   UNL     1       2.370   4.300  20.511  0.00  0.00    +0.000 A 
ATOM     10  C   UNL     1       1.676   5.374  21.076  0.00  0.00    +0.000 A 
ATOM     11  C   UNL     1       1.760   6.655  20.504  0.00  0.00    +0.000 A 
ATOM     12 CL   UNL     1       0.889   7.956  21.224  0.00  0.00    +0.000 Cl
ATOM     13  C   UNL     1       2.535   6.896  19.366  0.00  0.00    +0.000 A 
ATOM     14  C   UNL     1       3.223   5.832  18.808  0.00  0.00    +0.000 A 
ENDROOT
BRANCH   1  15
ATOM     15  C   UNL     1       6.679   4.706  14.410  0.00  0.00    +0.000 C 
ATOM     16  O   UNL     1       7.681   5.389  14.192  0.00  0.00    +0.000 OA
BRANCH  15  20
ATOM     17  N   UNL     1       6.269   2.393  11.744  0.00  0.00    +0.000 N 
ATOM     18  C   UNL     1       6.603   3.491  12.457  0.00  0.00    +0.000 C 
ATOM     19  N   UNL     1       7.199   4.395  11.644  0.00  0.00    +0.000 N 
ATOM     20  N   UNL     1       6.329   3.573  13.709  0.00  0.00    +0.000 NA
ATOM     21  H   UNL     1       6.037   2.590  10.778  0.00  0.00    +0.000 HD
ATOM     22  H   UNL     1       5.543   1.852  12.204  0.00  0.00    +0.000 HD
ATOM     23  H   UNL     1       7.818   4.001  10.948  0.00  0.00    +0.000 HD
ATOM     24  H   UNL     1       7.646   5.147  12.171  0.00  0.00    +0.000 HD
ENDBRANCH  15  20
ENDBRANCH   1  15
BRANCH   7  25
ATOM     25  O   UNL     1       4.984   3.000  19.375  0.00  0.00    +0.000 OA
ATOM     26  H   UNL     1       4.673   3.045  20.295  0.00  0.00    +0.000 HD
ENDBRANCH   7  25
TORSDOF 3
ENDMDL
MODEL 2
REMARK VINA RESULT:      -8.1      1.129      1.437
REMARK  Name = 
REMARK  3 active torsions:
REMARK  status: ('A' for Active; 'I' for Inactive)
REMARK    1  A    between atoms: N_4  and  C_5
REMARK    2  A    between atoms: C_5  and  C_7
REMARK    3  A    between atoms: C_13  and  O_14
REMARK                            x       y       z     vdW  Elec       q    Type
REMARK                         _______ _______ _______ _____ _____    ______ ____
ROOT
ATOM      1  C   UNL     1       5.655   4.870  15.555  0.00  0.00    +0.000 A 
ATOM      2  C   UNL     1       5.382   6.232  15.812  0.00  0.00    +0.000 A 
ATOM      3  C   UNL     1       4.535   6.612  16.861  0.00  0.00    +0.000 A 
ATOM      4  C   UNL     1       3.975   5.624  17.654  0.00  0.00    +0.000 A 
ATOM      5  C   UNL     1       4.262   4.262  17.409  0.00  0.00    +0.000 A 
ATOM      6  C   UNL     1       5.095   3.875  16.370  0.00  0.00    +0.000 A 
ATOM      7  C   UNL     1       3.534   3.382  18.408  0.00  0.00    +0.000 C 
ATOM      8  C   UNL     1       2.808   4.409  19.260  0.00  0.00    +0.000 A 
ATOM      9  C   UNL     1       1.983   4.187  20.351  0.00  0.00    +0.000 A 
ATOM     10  C   UNL     1       1.407   5.298  20.974  0.00  0.00    +0.000 A 
ATOM     11  C   UNL     1       1.667   6.595  20.497  0.00  0.00    +0.000 A 
ATOM     12 CL   UNL     1       0.938   7.942  21.286  0.00  0.00    +0.000 Cl
ATOM     13  C   UNL     1       2.505   6.814  19.401  0.00  0.00    +0.000 A 
ATOM     14  C   UNL     1       3.076   5.713  18.786  0.00  0.00    +0.000 A 
ENDROOT
BRANCH   1  15
ATOM     15  C   UNL     1       6.518   4.467  14.408  0.00  0.00    +0.000 C 
ATOM     16  O   UNL     1       6.120   3.568  13.667  0.00  0.00    +0.000 OA
BRANCH  15  20
ATOM     17  N   UNL     1       9.227   6.142  12.834  0.00  0.00    +0.000 N 
ATOM     18  C   UNL     1       8.088   5.445  13.040  0.00  0.00    +0.000 C 
ATOM     19  N   UNL     1       7.544   5.103  11.848  0.00  0.00    +0.000 N 
ATOM     20  N   UNL     1       7.681   5.181  14.229  0.00  0.00    +0.000 NA
ATOM     21  H   UNL     1       9.723   5.871  11.994  0.00  0.00    +0.000 HD
ATOM     22  H   UNL     1       9.830   6.126  13.651  0.00  0.00    +0.000 HD
ATOM     23  H   UNL     1       7.617   5.808  11.127  0.00  0.00    +0.000 HD
ATOM     24  H   UNL     1       6.589   4.756  11.949  0.00  0.00    +0.000 HD
ENDBRANCH  15  20
ENDBRANCH   1  15
BRANCH   7  25
ATOM     25  O   UNL     1       4.455   2.651  19.193  0.00  0.00    +0.000 OA
ATOM     26  H   UNL     1       5.310   2.697  18.732  0.00  0.00    +0.000 HD
ENDBRANCH   7  25
TORSDOF 3
ENDMDL
MODEL 3
REMARK VINA RESULT:      -7.9      4.868      7.206
REMARK  Name = 
REMARK  3 active torsions:
REMARK  status: ('A' for Active; 'I' for Inactive)
REMARK    1  A    between atoms: N_4  and  C_5
REMARK    2  A    between atoms: C_5  and  C_7
REMARK    3  A    between atoms: C_13  and  O_14
REMARK                            x       y       z     vdW  Elec       q    Type
REMARK                         _______ _______ _______ _____ _____    ______ ____
ROOT
ATOM      1  C   UNL     1       2.989   4.902  19.318  0.00  0.00    +0.000 A 
ATOM      2  C   UNL     1       2.371   4.257  18.224  0.00  0.00    +0.000 A 
ATOM      3  C   UNL     1       3.055   4.071  17.016  0.00  0.00    +0.000 A 
ATOM      4  C   UNL     1       4.360   4.525  16.914  0.00  0.00    +0.000 A 
ATOM      5  C   UNL     1       4.985   5.155  18.014  0.00  0.00    +0.000 A 
ATOM      6  C   UNL     1       4.315   5.347  19.213  0.00  0.00    +0.000 A 
ATOM      7  C   UNL     1       6.403   5.556  17.654  0.00  0.00    +0.000 C 
ATOM      8  C   UNL     1       6.514   5.066  16.221  0.00  0.00    +0.000 A 
ATOM      9  C   UNL     1       7.604   5.149  15.369  0.00  0.00    +0.000 A 
ATOM     10  C   UNL     1       7.466   4.639  14.076  0.00  0.00    +0.000 A 
ATOM     11  C   UNL     1       6.252   4.061  13.665  0.00  0.00    +0.000 A 
ATOM     12 CL   UNL     1       6.114   3.444  12.062  0.00  0.00    +0.000 Cl
ATOM     13  C   UNL     1       5.157   3.974  14.529  0.00  0.00    +0.000 A 
ATOM     14  C   UNL     1       5.296   4.478  15.811  0.00  0.00    +0.000 A 
ENDROOT
BRANCH   1  15
ATOM     15  C   UNL     1       2.242   5.141  20.586  0.00  0.00    +0.000 C 
ATOM     16  O   UNL     1       1.596   6.183  20.695  0.00  0.00    +0.000 OA
BRANCH  15  20
ATOM     17  N   UNL     1       1.468   2.164  22.364  0.00  0.00    +0.000 N 
ATOM     18  C   UNL     1       1.452   3.162  21.454  0.00  0.00    +0.000 C 
ATOM     19  N   UNL     1       0.456   2.945  20.562  0.00  0.00    +0.000 N 
ATOM     20  N   UNL     1       2.285   4.136  21.527  0.00  0.00    +0.000 NA
ATOM     21  H   UNL     1       0.555   1.772  22.555  0.00  0.00    +0.000 HD
ATOM     22  H   UNL     1       1.947   2.441  23.217  0.00  0.00    +0.000 HD
ATOM     23  H   UNL     1       0.322   1.978  20.298  0.00  0.00    +0.000 HD
ATOM     24  H   UNL     1       0.531   3.557  19.748  0.00  0.00    +0.000 HD
ENDBRANCH  15  20
ENDBRANCH   1  15
BRANCH   7  25
ATOM     25  O   UNL     1       7.336   4.885  18.479  0.00  0.00    +0.000 OA
ATOM     26  H   UNL     1       6.869   4.663  19.303  0.00  0.00    +0.000 HD
ENDBRANCH   7  25
TORSDOF 3
ENDMDL
MODEL 4
REMARK VINA RESULT:      -7.9      3.766      5.591
REMARK  Name = 
REMARK  3 active torsions:
REMARK  status: ('A' for Active; 'I' for Inactive)
REMARK    1  A    between atoms: N_4  and  C_5
REMARK    2  A    between atoms: C_5  and  C_7
REMARK    3  A    between atoms: C_13  and  O_14
REMARK                            x       y       z     vdW  Elec       q    Type
REMARK                         _______ _______ _______ _____ _____    ______ ____
ROOT
ATOM      1  C   UNL     1       3.116   5.802  18.776  0.00  0.00    +0.000 A 
ATOM      2  C   UNL     1       2.500   5.523  20.016  0.00  0.00    +0.000 A 
ATOM      3  C   UNL     1       1.749   6.498  20.684  0.00  0.00    +0.000 A 
ATOM      4  C   UNL     1       1.611   7.746  20.100  0.00  0.00    +0.000 A 
ATOM      5  C   UNL     1       2.212   8.022  18.850  0.00  0.00    +0.000 A 
ATOM      6  C   UNL     1       2.961   7.064  18.184  0.00  0.00    +0.000 A 
ATOM      7  C   UNL     1       1.914   9.447  18.426  0.00  0.00    +0.000 C 
ATOM      8  C   UNL     1       1.060   9.947  19.578  0.00  0.00    +0.000 A 
ATOM      9  C   UNL     1       0.481  11.196  19.737  0.00  0.00    +0.000 A 
ATOM     10  C   UNL     1      -0.256  11.433  20.900  0.00  0.00    +0.000 A 
ATOM     11  C   UNL     1      -0.399  10.426  21.870  0.00  0.00    +0.000 A 
ATOM     12 CL   UNL     1      -1.312  10.754  23.294  0.00  0.00    +0.000 Cl
ATOM     13  C   UNL     1       0.182   9.166  21.703  0.00  0.00    +0.000 A 
ATOM     14  C   UNL     1       0.911   8.931  20.550  0.00  0.00    +0.000 A 
ENDROOT
BRANCH   1  15
ATOM     15  C   UNL     1       3.954   4.778  18.091  0.00  0.00    +0.000 C 
ATOM     16  O   UNL     1       5.111   5.075  17.792  0.00  0.00    +0.000 OA
BRANCH  15  20
ATOM     17  N   UNL     1       3.289   1.299  18.373  0.00  0.00    +0.000 N 
ATOM     18  C   UNL     1       3.828   2.526  18.545  0.00  0.00    +0.000 C 
ATOM     19  N   UNL     1       4.848   2.451  19.433  0.00  0.00    +0.000 N 
ATOM     20  N   UNL     1       3.382   3.540  17.897  0.00  0.00    +0.000 NA
ATOM     21  H   UNL     1       3.954   0.544  18.473  0.00  0.00    +0.000 HD
ATOM     22  H   UNL     1       2.772   1.235  17.500  0.00  0.00    +0.000 HD
ATOM     23  H   UNL     1       4.693   1.821  20.209  0.00  0.00    +0.000 HD
ATOM     24  H   UNL     1       5.151   3.375  19.745  0.00  0.00    +0.000 HD
ENDBRANCH  15  20
ENDBRANCH   1  15
BRANCH   7  25
ATOM     25  O   UNL     1       1.176   9.464  17.220  0.00  0.00    +0.000 OA
ATOM     26  H   UNL     1       0.595   8.685  17.239  0.00  0.00    +0.000 HD
ENDBRANCH   7  25
TORSDOF 3
ENDMDL
MODEL 5
REMARK VINA RESULT:      -7.9      3.260      5.021
REMARK  Name = 
REMARK  3 active torsions:
REMARK  status: ('A' for Active; 'I' for Inactive)
REMARK    1  A    between atoms: N_4  and  C_5
REMARK    2  A    between atoms: C_5  and  C_7
REMARK    3  A    between atoms: C_13  and  O_14
REMARK                            x       y       z     vdW  Elec       q    Type
REMARK                         _______ _______ _______ _____ _____    ______ ____
ROOT
ATOM      1  C   UNL     1       3.417   5.794  18.406  0.00  0.00    +0.000 A 
ATOM      2  C   UNL     1       2.885   5.425  19.661  0.00  0.00    +0.000 A 
ATOM      3  C   UNL     1       2.117   6.325  20.412  0.00  0.00    +0.000 A 
ATOM      4  C   UNL     1       1.878   7.587  19.894  0.00  0.00    +0.000 A 
ATOM      5  C   UNL     1       2.395   7.951  18.630  0.00  0.00    +0.000 A 
ATOM      6  C   UNL     1       3.160   7.069  17.882  0.00  0.00    +0.000 A 
ATOM      7  C   UNL     1       1.996   9.375  18.288  0.00  0.00    +0.000 C 
ATOM      8  C   UNL     1       1.179   9.772  19.504  0.00  0.00    +0.000 A 
ATOM      9  C   UNL     1       0.540  10.977  19.751  0.00  0.00    +0.000 A 
ATOM     10  C   UNL     1      -0.146  11.121  20.960  0.00  0.00    +0.000 A 
ATOM     11  C   UNL     1      -0.180  10.065  21.888  0.00  0.00    +0.000 A 
ATOM     12 CL   UNL     1      -1.032  10.277  23.371  0.00  0.00    +0.000 Cl
ATOM     13  C   UNL     1       0.460   8.850  21.633  0.00  0.00    +0.000 A 
ATOM     14  C   UNL     1       1.139   8.708  20.434  0.00  0.00    +0.000 A 
ENDROOT
BRANCH   1  15
ATOM     15  C   UNL     1       4.273   4.851  17.632  0.00  0.00    +0.000 C 
ATOM     16  O   UNL     1       4.061   3.643  17.745  0.00  0.00    +0.000 OA
BRANCH  15  20
ATOM     17  N   UNL     1       7.392   5.668  16.141  0.00  0.00    +0.000 N 
ATOM     18  C   UNL     1       6.452   5.130  16.948  0.00  0.00    +0.000 C 
ATOM     19  N   UNL     1       7.047   4.337  17.870  0.00  0.00    +0.000 N 
ATOM     20  N   UNL     1       5.209   5.412  16.792  0.00  0.00    +0.000 NA
ATOM     21  H   UNL     1       8.280   5.829  16.601  0.00  0.00    +0.000 HD
ATOM     22  H   UNL     1       7.053   6.504  15.672  0.00  0.00    +0.000 HD
ATOM     23  H   UNL     1       7.830   3.797  17.528  0.00  0.00    +0.000 HD
ATOM     24  H   UNL     1       6.370   3.756  18.368  0.00  0.00    +0.000 HD
ENDBRANCH  15  20
ENDBRANCH   1  15
BRANCH   7  25
ATOM     25  O   UNL     1       1.194   9.401  17.124  0.00  0.00    +0.000 OA
ATOM     26  H   UNL     1       0.272   9.323  17.420  0.00  0.00    +0.000 HD
ENDBRANCH   7  25
TORSDOF 3
ENDMDL
MODEL 6
REMARK VINA RESULT:      -7.9      3.966      5.619
REMARK  Name = 
REMARK  3 active torsions:
REMARK  status: ('A' for Active; 'I' for Inactive)
REMARK    1  A    between atoms: N_4  and  C_5
REMARK    2  A    between atoms: C_5  and  C_7
REMARK    3  A    between atoms: C_13  and  O_14
REMARK                            x       y       z     vdW  Elec       q    Type
REMARK                         _______ _______ _______ _____ _____    ______ ____
ROOT
ATOM      1  C   UNL     1       3.443   6.113  18.815  0.00  0.00    +0.000 A 
ATOM      2  C   UNL     1       3.403   6.982  17.702  0.00  0.00    +0.000 A 
ATOM      3  C   UNL     1       2.630   8.150  17.726  0.00  0.00    +0.000 A 
ATOM      4  C   UNL     1       1.908   8.445  18.871  0.00  0.00    +0.000 A 
ATOM      5  C   UNL     1       1.960   7.585  19.992  0.00  0.00    +0.000 A 
ATOM      6  C   UNL     1       2.719   6.425  19.976  0.00  0.00    +0.000 A 
ATOM      7  C   UNL     1       1.091   8.126  21.111  0.00  0.00    +0.000 C 
ATOM      8  C   UNL     1       0.547   9.404  20.497  0.00  0.00    +0.000 A 
ATOM      9  C   UNL     1      -0.308  10.333  21.069  0.00  0.00    +0.000 A 
ATOM     10  C   UNL     1      -0.689  11.435  20.298  0.00  0.00    +0.000 A 
ATOM     11  C   UNL     1      -0.211  11.583  18.985  0.00  0.00    +0.000 A 
ATOM     12 CL   UNL     1      -0.704  12.952  18.061  0.00  0.00    +0.000 Cl
ATOM     13  C   UNL     1       0.655  10.647  18.414  0.00  0.00    +0.000 A 
ATOM     14  C   UNL     1       1.033   9.557  19.179  0.00  0.00    +0.000 A 
ENDROOT
BRANCH   1  15
ATOM     15  C   UNL     1       4.228   4.847  18.769  0.00  0.00    +0.000 C 
ATOM     16  O   UNL     1       5.387   4.864  19.184  0.00  0.00    +0.000 OA
BRANCH  15  20
ATOM     17  N   UNL     1       3.228   1.460  18.381  0.00  0.00    +0.000 N 
ATOM     18  C   UNL     1       3.857   2.577  18.809  0.00  0.00    +0.000 C 
ATOM     19  N   UNL     1       4.773   2.248  19.750  0.00  0.00    +0.000 N 
ATOM     20  N   UNL     1       3.569   3.727  18.314  0.00  0.00    +0.000 NA
ATOM     21  H   UNL     1       3.811   0.632  18.401  0.00  0.00    +0.000 HD
ATOM     22  H   UNL     1       2.797   1.597  17.471  0.00  0.00    +0.000 HD
ATOM     23  H   UNL     1       4.486   1.518  20.388  0.00  0.00    +0.000 HD
ATOM     24  H   UNL     1       5.126   3.070  20.243  0.00  0.00    +0.000 HD
ENDBRANCH  15  20
ENDBRANCH   1  15
BRANCH   7  25
ATOM     25  O   UNL     1       1.872   8.419  22.252  0.00  0.00    +0.000 OA
ATOM     26  H   UNL     1       1.274   8.824  22.902  0.00  0.00    +0.000 HD
ENDBRANCH   7  25
TORSDOF 3
ENDMDL
MODEL 7
REMARK VINA RESULT:      -7.8      8.557     11.219
REMARK  Name = 
REMARK  3 active torsions:
REMARK  status: ('A' for Active; 'I' for Inactive)
REMARK    1  A    between atoms: N_4  and  C_5
REMARK    2  A    between atoms: C_5  and  C_7
REMARK    3  A    between atoms: C_13  and  O_14
REMARK                            x       y       z     vdW  Elec       q    Type
REMARK                         _______ _______ _______ _____ _____    ______ ____
ROOT
ATOM      1  C   UNL     1      -1.323  11.469  22.382  0.00  0.00    +0.000 A 
ATOM      2  C   UNL     1      -0.750  10.393  23.095  0.00  0.00    +0.000 A 
ATOM      3  C   UNL     1       0.074   9.460  22.453  0.00  0.00    +0.000 A 
ATOM      4  C   UNL     1       0.328   9.617  21.100  0.00  0.00    +0.000 A 
ATOM      5  C   UNL     1      -0.230  10.704  20.390  0.00  0.00    +0.000 A 
ATOM      6  C   UNL     1      -1.051  11.630  21.015  0.00  0.00    +0.000 A 
ATOM      7  C   UNL     1       0.196  10.655  18.934  0.00  0.00    +0.000 C 
ATOM      8  C   UNL     1       1.075   9.417  18.905  0.00  0.00    +0.000 A 
ATOM      9  C   UNL     1       1.758   8.877  17.827  0.00  0.00    +0.000 A 
ATOM     10  C   UNL     1       2.498   7.710  18.038  0.00  0.00    +0.000 A 
ATOM     11  C   UNL     1       2.540   7.115  19.311  0.00  0.00    +0.000 A 
ATOM     12 CL   UNL     1       3.459   5.675  19.536  0.00  0.00    +0.000 Cl
ATOM     13  C   UNL     1       1.854   7.666  20.397  0.00  0.00    +0.000 A 
ATOM     14  C   UNL     1       1.122   8.823  20.187  0.00  0.00    +0.000 A 
ENDROOT
BRANCH   1  15
ATOM     15  C   UNL     1      -2.238  12.432  23.057  0.00  0.00    +0.000 C 
ATOM     16  O   UNL     1      -1.910  13.618  23.098  0.00  0.00    +0.000 OA
BRANCH  15  20
ATOM     17  N   UNL     1      -5.242  12.101  24.924  0.00  0.00    +0.000 N 
ATOM     18  C   UNL     1      -4.077  12.576  24.432  0.00  0.00    +0.000 C 
ATOM     19  N   UNL     1      -3.772  13.746  25.041  0.00  0.00    +0.000 N 
ATOM     20  N   UNL     1      -3.424  11.925  23.538  0.00  0.00    +0.000 NA
ATOM     21  H   UNL     1      -5.403  12.343  25.894  0.00  0.00    +0.000 HD
ATOM     22  H   UNL     1      -5.340  11.103  24.762  0.00  0.00    +0.000 HD
ATOM     23  H   UNL     1      -4.561  14.351  25.224  0.00  0.00    +0.000 HD
ATOM     24  H   UNL     1      -3.015  14.239  24.565  0.00  0.00    +0.000 HD
ENDBRANCH  15  20
ENDBRANCH   1  15
BRANCH   7  25
ATOM     25  O   UNL     1       0.949  11.804  18.597  0.00  0.00    +0.000 OA
ATOM     26  H   UNL     1       1.540  11.979  19.348  0.00  0.00    +0.000 HD
ENDBRANCH   7  25
TORSDOF 3
ENDMDL
MODEL 8
REMARK VINA RESULT:      -7.8      3.777      5.511
REMARK  Name = 
REMARK  3 active torsions:
REMARK  status: ('A' for Active; 'I' for Inactive)
REMARK    1  A    between atoms: N_4  and  C_5
REMARK    2  A    between atoms: C_5  and  C_7
REMARK    3  A    between atoms: C_13  and  O_14
REMARK                            x       y       z     vdW  Elec       q    Type
REMARK                         _______ _______ _______ _____ _____    ______ ____
ROOT
ATOM      1  C   UNL     1       3.227   6.171  18.891  0.00  0.00    +0.000 A 
ATOM      2  C   UNL     1       3.234   7.037  17.776  0.00  0.00    +0.000 A 
ATOM      3  C   UNL     1       2.529   8.248  17.798  0.00  0.00    +0.000 A 
ATOM      4  C   UNL     1       1.829   8.588  18.944  0.00  0.00    +0.000 A 
ATOM      5  C   UNL     1       1.836   7.730  20.068  0.00  0.00    +0.000 A 
ATOM      6  C   UNL     1       2.527   6.528  20.053  0.00  0.00    +0.000 A 
ATOM      7  C   UNL     1       1.003   8.323  21.188  0.00  0.00    +0.000 C 
ATOM      8  C   UNL     1       0.532   9.629  20.572  0.00  0.00    +0.000 A 
ATOM      9  C   UNL     1      -0.266  10.607  21.143  0.00  0.00    +0.000 A 
ATOM     10  C   UNL     1      -0.586  11.727  20.370  0.00  0.00    +0.000 A 
ATOM     11  C   UNL     1      -0.105  11.844  19.055  0.00  0.00    +0.000 A 
ATOM     12 CL   UNL     1      -0.521  13.235  18.128  0.00  0.00    +0.000 Cl
ATOM     13  C   UNL     1       0.704  10.857  18.484  0.00  0.00    +0.000 A 
ATOM     14  C   UNL     1       1.021   9.749  19.252  0.00  0.00    +0.000 A 
ENDROOT
BRANCH   1  15
ATOM     15  C   UNL     1       3.938   4.862  18.847  0.00  0.00    +0.000 C 
ATOM     16  O   UNL     1       3.275   3.844  18.645  0.00  0.00    +0.000 OA
BRANCH  15  20
ATOM     17  N   UNL     1       7.395   4.425  18.152  0.00  0.00    +0.000 N 
ATOM     18  C   UNL     1       6.048   4.405  18.050  0.00  0.00    +0.000 C 
ATOM     19  N   UNL     1       5.690   3.796  16.895  0.00  0.00    +0.000 N 
ATOM     20  N   UNL     1       5.308   4.898  18.977  0.00  0.00    +0.000 NA
ATOM     21  H   UNL     1       7.847   3.631  17.717  0.00  0.00    +0.000 HD
ATOM     22  H   UNL     1       7.698   4.552  19.113  0.00  0.00    +0.000 HD
ATOM     23  H   UNL     1       6.283   4.001  16.102  0.00  0.00    +0.000 HD
ATOM     24  H   UNL     1       4.701   3.936  16.679  0.00  0.00    +0.000 HD
ENDBRANCH  15  20
ENDBRANCH   1  15
BRANCH   7  25
ATOM     25  O   UNL     1       1.804   8.575  22.326  0.00  0.00    +0.000 OA
ATOM     26  H   UNL     1       1.657   9.505  22.569  0.00  0.00    +0.000 HD
ENDBRANCH   7  25
TORSDOF 3
ENDMDL
MODEL 9
REMARK VINA RESULT:      -7.7      4.152      6.057
REMARK  Name = 
REMARK  3 active torsions:
REMARK  status: ('A' for Active; 'I' for Inactive)
REMARK    1  A    between atoms: N_4  and  C_5
REMARK    2  A    between atoms: C_5  and  C_7
REMARK    3  A    between atoms: C_13  and  O_14
REMARK                            x       y       z     vdW  Elec       q    Type
REMARK                         _______ _______ _______ _____ _____    ______ ____
ROOT
ATOM      1  C   UNL     1       2.719   6.326  19.016  0.00  0.00    +0.000 A 
ATOM      2  C   UNL     1       2.135   6.093  20.281  0.00  0.00    +0.000 A 
ATOM      3  C   UNL     1       1.390   7.089  20.926  0.00  0.00    +0.000 A 
ATOM      4  C   UNL     1       1.226   8.310  20.293  0.00  0.00    +0.000 A 
ATOM      5  C   UNL     1       1.794   8.538  19.019  0.00  0.00    +0.000 A 
ATOM      6  C   UNL     1       2.537   7.560  18.375  0.00  0.00    +0.000 A 
ATOM      7  C   UNL     1       1.473   9.942  18.543  0.00  0.00    +0.000 C 
ATOM      8  C   UNL     1       0.641  10.481  19.693  0.00  0.00    +0.000 A 
ATOM      9  C   UNL     1       0.053  11.731  19.813  0.00  0.00    +0.000 A 
ATOM     10  C   UNL     1      -0.659  12.010  20.983  0.00  0.00    +0.000 A 
ATOM     11  C   UNL     1      -0.768  11.044  21.998  0.00  0.00    +0.000 A 
ATOM     12 CL   UNL     1      -1.650  11.423  23.428  0.00  0.00    +0.000 Cl
ATOM     13  C   UNL     1      -0.179   9.783  21.870  0.00  0.00    +0.000 A 
ATOM     14  C   UNL     1       0.525   9.506  20.710  0.00  0.00    +0.000 A 
ENDROOT
BRANCH   1  15
ATOM     15  C   UNL     1       3.551   5.281  18.354  0.00  0.00    +0.000 C 
ATOM     16  O   UNL     1       4.136   5.575  17.312  0.00  0.00    +0.000 OA
BRANCH  15  20
ATOM     17  N   UNL     1       4.930   2.337  19.786  0.00  0.00    +0.000 N 
ATOM     18  C   UNL     1       4.803   3.526  19.159  0.00  0.00    +0.000 C 
ATOM     19  N   UNL     1       6.021   3.958  18.756  0.00  0.00    +0.000 N 
ATOM     20  N   UNL     1       3.650   4.069  19.000  0.00  0.00    +0.000 NA
ATOM     21  H   UNL     1       5.691   1.770  19.434  0.00  0.00    +0.000 HD
ATOM     22  H   UNL     1       4.053   1.824  19.803  0.00  0.00    +0.000 HD
ATOM     23  H   UNL     1       6.776   3.773  19.403  0.00  0.00    +0.000 HD
ATOM     24  H   UNL     1       6.002   4.935  18.460  0.00  0.00    +0.000 HD
ENDBRANCH  15  20
ENDBRANCH   1  15
BRANCH   7  25
ATOM     25  O   UNL     1       0.706   9.901  17.355  0.00  0.00    +0.000 OA
ATOM     26  H   UNL     1       1.277   9.518  16.668  0.00  0.00    +0.000 HD
ENDBRANCH   7  25
TORSDOF 3
ENDMDL
