MODEL 1
REMARK VINA RESULT:      -7.4      0.000      0.000
REMARK  Name = 
REMARK  13 active torsions:
REMARK  status: ('A' for Active; 'I' for Inactive)
REMARK    1  A    between atoms: C_1  and  C_2
REMARK    2  A    between atoms: C_2  and  C_3
REMARK    3  A    between atoms: C_3  and  C_4
REMARK    4  A    between atoms: C_4  and  N_5
REMARK    5  A    between atoms: N_5  and  C_6
REMARK    6  A    between atoms: N_5  and  C_7
REMARK    7  A    between atoms: N_15  and  C_16
REMARK    8  A    between atoms: C_18  and  C_19
REMARK    9  A    between atoms: C_19  and  O_20
REMARK   10  A    between atoms: O_20  and  S_21
REMARK   11  A    between atoms: S_21  and  N_22
REMARK   12  A    between atoms: C_25  and  O_26
REMARK   13  A    between atoms: C_27  and  O_28
REMARK                            x       y       z     vdW  Elec       q    Type
REMARK                         _______ _______ _______ _____ _____    ______ ____
ROOT
ATOM      1  C   UNL     1       3.303   5.541  19.563  0.00  0.00    +0.000 C 
ATOM      2  O   UNL     1       4.649   5.426  19.063  0.00  0.00    +0.000 OA
ATOM      3  C   UNL     1       4.833   4.093  18.533  0.00  0.00    +0.000 C 
ATOM      4  C   UNL     1       3.643   3.272  19.032  0.00  0.00    +0.000 C 
ATOM      5  C   UNL     1       2.525   4.296  19.145  0.00  0.00    +0.000 C 
ENDROOT
BRANCH   1  14
ATOM      6  C   UNL     1       0.909   9.788  19.494  0.00  0.00    +0.000 A 
ATOM      7  N   UNL     1       0.415   9.646  20.760  0.00  0.00    +0.000 NA
ATOM      8  C   UNL     1       0.708   8.538  21.470  0.00  0.00    +0.000 A 
ATOM      9  N   UNL     1       1.471   7.490  21.103  0.00  0.00    +0.000 NA
ATOM     10  C   UNL     1       1.926   7.645  19.849  0.00  0.00    +0.000 A 
ATOM     11  C   UNL     1       1.710   8.726  19.006  0.00  0.00    +0.000 A 
ATOM     12  N   UNL     1       2.360   8.522  17.799  0.00  0.00    +0.000 NA
ATOM     13  C   UNL     1       2.960   7.362  17.918  0.00  0.00    +0.000 A 
ATOM     14  N   UNL     1       2.721   6.790  19.134  0.00  0.00    +0.000 N 
BRANCH   6  15
ATOM     15  N   UNL     1       0.622  10.947  18.778  0.00  0.00    +0.000 N 
ATOM     16  C   UNL     1       1.660  11.955  18.685  0.00  0.00    +0.000 C 
BRANCH  15  17
ATOM     17  C   UNL     1      -0.742  11.255  18.355  0.00  0.00    +0.000 C 
BRANCH  17  18
ATOM     18  C   UNL     1      -1.370  10.093  17.577  0.00  0.00    +0.000 C 
BRANCH  18  20
ATOM     19  C   UNL     1      -2.832   9.957  15.534  0.00  0.00    +0.000 C 
ATOM     20  C   UNL     1      -2.714  10.483  16.957  0.00  0.00    +0.000 C 
ENDBRANCH  18  20
ENDBRANCH  17  18
ENDBRANCH  15  17
ENDBRANCH   6  15
ENDBRANCH   1  14
BRANCH   4  21
ATOM     21  O   UNL     1       3.886   2.743  20.352  0.00  0.00    +0.000 OA
ATOM     22  H   UNL     1       3.809   1.772  20.327  0.00  0.00    +0.000 HD
ENDBRANCH   4  21
BRANCH   5  23
ATOM     23  O   UNL     1       1.556   3.916  20.126  0.00  0.00    +0.000 OA
ATOM     24  H   UNL     1       1.355   4.725  20.641  0.00  0.00    +0.000 HD
ENDBRANCH   5  23
BRANCH   3  25
ATOM     25  C   UNL     1       4.942   4.149  17.007  0.00  0.00    +0.000 C 
BRANCH  25  26
ATOM     26  O   UNL     1       6.309   4.329  16.644  0.00  0.00    +0.000 OA
BRANCH  26  27
ATOM     27  S   UNL     1       6.664   5.635  15.754  0.00  0.00    +0.000 S 
ATOM     28  O   UNL     1       7.611   5.228  14.743  0.00  0.00    +0.000 OA
ATOM     29  O   UNL     1       5.436   6.322  15.431  0.00  0.00    +0.000 OA
BRANCH  27  30
ATOM     30  N   UNL     1       7.495   6.598  16.831  0.00  0.00    +0.000 NA
ATOM     31  H   UNL     1       8.340   6.143  17.164  0.00  0.00    +0.000 HD
ATOM     32  H   UNL     1       6.883   6.960  17.558  0.00  0.00    +0.000 HD
ENDBRANCH  27  30
ENDBRANCH  26  27
ENDBRANCH  25  26
ENDBRANCH   3  25
TORSDOF 11
ENDMDL
MODEL 2
REMARK VINA RESULT:      -7.3      0.988      1.034
REMARK  Name = 
REMARK  13 active torsions:
REMARK  status: ('A' for Active; 'I' for Inactive)
REMARK    1  A    between atoms: C_1  and  C_2
REMARK    2  A    between atoms: C_2  and  C_3
REMARK    3  A    between atoms: C_3  and  C_4
REMARK    4  A    between atoms: C_4  and  N_5
REMARK    5  A    between atoms: N_5  and  C_6
REMARK    6  A    between atoms: N_5  and  C_7
REMARK    7  A    between atoms: N_15  and  C_16
REMARK    8  A    between atoms: C_18  and  C_19
REMARK    9  A    between atoms: C_19  and  O_20
REMARK   10  A    between atoms: O_20  and  S_21
REMARK   11  A    between atoms: S_21  and  N_22
REMARK   12  A    between atoms: C_25  and  O_26
REMARK   13  A    between atoms: C_27  and  O_28
REMARK                            x       y       z     vdW  Elec       q    Type
REMARK                         _______ _______ _______ _____ _____    ______ ____
ROOT
ATOM      1  C   UNL     1       3.225   5.580  19.139  0.00  0.00    +0.000 C 
ATOM      2  O   UNL     1       4.577   5.734  19.613  0.00  0.00    +0.000 OA
ATOM      3  C   UNL     1       5.410   4.743  18.966  0.00  0.00    +0.000 C 
ATOM      4  C   UNL     1       4.450   3.743  18.318  0.00  0.00    +0.000 C 
ATOM      5  C   UNL     1       3.230   4.585  17.981  0.00  0.00    +0.000 C 
ENDROOT
BRANCH   1  14
ATOM      6  C   UNL     1       0.950   9.878  19.477  0.00  0.00    +0.000 A 
ATOM      7  N   UNL     1       0.505   9.657  20.750  0.00  0.00    +0.000 NA
ATOM      8  C   UNL     1       0.796   8.493  21.366  0.00  0.00    +0.000 A 
ATOM      9  N   UNL     1       1.514   7.456  20.892  0.00  0.00    +0.000 NA
ATOM     10  C   UNL     1       1.921   7.691  19.633  0.00  0.00    +0.000 A 
ATOM     11  C   UNL     1       1.699   8.834  18.880  0.00  0.00    +0.000 A 
ATOM     12  N   UNL     1       2.293   8.703  17.635  0.00  0.00    +0.000 NA
ATOM     13  C   UNL     1       2.865   7.523  17.644  0.00  0.00    +0.000 A 
ATOM     14  N   UNL     1       2.662   6.871  18.826  0.00  0.00    +0.000 N 
BRANCH   6  15
ATOM     15  N   UNL     1       0.665  11.093  18.859  0.00  0.00    +0.000 N 
ATOM     16  C   UNL     1       1.712  12.096  18.833  0.00  0.00    +0.000 C 
BRANCH  15  17
ATOM     17  C   UNL     1      -0.701  11.445  18.478  0.00  0.00    +0.000 C 
BRANCH  17  18
ATOM     18  C   UNL     1      -1.422  10.272  17.803  0.00  0.00    +0.000 C 
BRANCH  18  20
ATOM     19  C   UNL     1      -2.695  10.433  15.640  0.00  0.00    +0.000 C 
ATOM     20  C   UNL     1      -2.726  10.715  17.135  0.00  0.00    +0.000 C 
ENDBRANCH  18  20
ENDBRANCH  17  18
ENDBRANCH  15  17
ENDBRANCH   6  15
ENDBRANCH   1  14
BRANCH   4  21
ATOM     21  O   UNL     1       4.035   2.730  19.258  0.00  0.00    +0.000 OA
ATOM     22  H   UNL     1       3.976   3.124  20.147  0.00  0.00    +0.000 HD
ENDBRANCH   4  21
BRANCH   5  23
ATOM     23  O   UNL     1       2.037   3.799  17.946  0.00  0.00    +0.000 OA
ATOM     24  H   UNL     1       2.151   3.096  18.620  0.00  0.00    +0.000 HD
ENDBRANCH   5  23
BRANCH   3  25
ATOM     25  C   UNL     1       6.350   5.424  17.968  0.00  0.00    +0.000 C 
BRANCH  25  26
ATOM     26  O   UNL     1       6.548   4.562  16.850  0.00  0.00    +0.000 OA
BRANCH  26  27
ATOM     27  S   UNL     1       6.133   5.141  15.396  0.00  0.00    +0.000 S 
ATOM     28  O   UNL     1       5.433   4.093  14.693  0.00  0.00    +0.000 OA
ATOM     29  O   UNL     1       5.576   6.463  15.567  0.00  0.00    +0.000 OA
BRANCH  27  30
ATOM     30  N   UNL     1       7.607   5.326  14.640  0.00  0.00    +0.000 NA
ATOM     31  H   UNL     1       7.744   4.629  13.913  0.00  0.00    +0.000 HD
ATOM     32  H   UNL     1       8.365   5.403  15.314  0.00  0.00    +0.000 HD
ENDBRANCH  27  30
ENDBRANCH  26  27
ENDBRANCH  25  26
ENDBRANCH   3  25
TORSDOF 11
ENDMDL
MODEL 3
REMARK VINA RESULT:      -7.2      1.087      1.245
REMARK  Name = 
REMARK  13 active torsions:
REMARK  status: ('A' for Active; 'I' for Inactive)
REMARK    1  A    between atoms: C_1  and  C_2
REMARK    2  A    between atoms: C_2  and  C_3
REMARK    3  A    between atoms: C_3  and  C_4
REMARK    4  A    between atoms: C_4  and  N_5
REMARK    5  A    between atoms: N_5  and  C_6
REMARK    6  A    between atoms: N_5  and  C_7
REMARK    7  A    between atoms: N_15  and  C_16
REMARK    8  A    between atoms: C_18  and  C_19
REMARK    9  A    between atoms: C_19  and  O_20
REMARK   10  A    between atoms: O_20  and  S_21
REMARK   11  A    between atoms: S_21  and  N_22
REMARK   12  A    between atoms: C_25  and  O_26
REMARK   13  A    between atoms: C_27  and  O_28
REMARK                            x       y       z     vdW  Elec       q    Type
REMARK                         _______ _______ _______ _____ _____    ______ ____
ROOT
ATOM      1  C   UNL     1       2.898   5.956  19.602  0.00  0.00    +0.000 C 
ATOM      2  O   UNL     1       4.207   5.799  19.022  0.00  0.00    +0.000 OA
ATOM      3  C   UNL     1       4.313   4.463  18.475  0.00  0.00    +0.000 C 
ATOM      4  C   UNL     1       3.126   3.680  19.040  0.00  0.00    +0.000 C 
ATOM      5  C   UNL     1       2.053   4.742  19.224  0.00  0.00    +0.000 C 
ENDROOT
BRANCH   1  14
ATOM      6  C   UNL     1       0.738  10.326  19.712  0.00  0.00    +0.000 A 
ATOM      7  N   UNL     1       0.391  10.233  21.031  0.00  0.00    +0.000 NA
ATOM      8  C   UNL     1       0.707   9.123  21.728  0.00  0.00    +0.000 A 
ATOM      9  N   UNL     1       1.366   8.029  21.298  0.00  0.00    +0.000 NA
ATOM     10  C   UNL     1       1.677   8.137  19.996  0.00  0.00    +0.000 A 
ATOM     11  C   UNL     1       1.419   9.213  19.160  0.00  0.00    +0.000 A 
ATOM     12  N   UNL     1       1.910   8.953  17.890  0.00  0.00    +0.000 NA
ATOM     13  C   UNL     1       2.458   7.764  17.965  0.00  0.00    +0.000 A 
ATOM     14  N   UNL     1       2.336   7.228  19.214  0.00  0.00    +0.000 N 
BRANCH   6  15
ATOM     15  N   UNL     1       0.429  11.486  19.008  0.00  0.00    +0.000 N 
ATOM     16  C   UNL     1       1.355  12.599  19.105  0.00  0.00    +0.000 C 
BRANCH  15  17
ATOM     17  C   UNL     1      -0.887  11.675  18.404  0.00  0.00    +0.000 C 
BRANCH  17  18
ATOM     18  C   UNL     1      -1.701  10.376  18.397  0.00  0.00    +0.000 C 
BRANCH  18  20
ATOM     19  C   UNL     1      -2.695  10.974  16.166  0.00  0.00    +0.000 C 
ATOM     20  C   UNL     1      -1.991   9.894  16.974  0.00  0.00    +0.000 C 
ENDBRANCH  18  20
ENDBRANCH  17  18
ENDBRANCH  15  17
ENDBRANCH   6  15
ENDBRANCH   1  14
BRANCH   4  21
ATOM     21  O   UNL     1       3.429   3.135  20.340  0.00  0.00    +0.000 OA
ATOM     22  H   UNL     1       3.607   3.865  20.961  0.00  0.00    +0.000 HD
ENDBRANCH   4  21
BRANCH   5  23
ATOM     23  O   UNL     1       1.132   4.389  20.259  0.00  0.00    +0.000 OA
ATOM     24  H   UNL     1       1.368   4.937  21.036  0.00  0.00    +0.000 HD
ENDBRANCH   5  23
BRANCH   3  25
ATOM     25  C   UNL     1       4.334   4.526  16.945  0.00  0.00    +0.000 C 
BRANCH  25  26
ATOM     26  O   UNL     1       5.469   3.810  16.465  0.00  0.00    +0.000 OA
BRANCH  26  27
ATOM     27  S   UNL     1       6.460   4.601  15.457  0.00  0.00    +0.000 S 
ATOM     28  O   UNL     1       5.824   5.850  15.111  0.00  0.00    +0.000 OA
ATOM     29  O   UNL     1       7.803   4.537  15.985  0.00  0.00    +0.000 OA
BRANCH  27  30
ATOM     30  N   UNL     1       6.427   3.649  14.089  0.00  0.00    +0.000 NA
ATOM     31  H   UNL     1       7.356   3.529  13.695  0.00  0.00    +0.000 HD
ATOM     32  H   UNL     1       5.717   3.964  13.432  0.00  0.00    +0.000 HD
ENDBRANCH  27  30
ENDBRANCH  26  27
ENDBRANCH  25  26
ENDBRANCH   3  25
TORSDOF 11
ENDMDL
MODEL 4
REMARK VINA RESULT:      -7.2      0.899      1.068
REMARK  Name = 
REMARK  13 active torsions:
REMARK  status: ('A' for Active; 'I' for Inactive)
REMARK    1  A    between atoms: C_1  and  C_2
REMARK    2  A    between atoms: C_2  and  C_3
REMARK    3  A    between atoms: C_3  and  C_4
REMARK    4  A    between atoms: C_4  and  N_5
REMARK    5  A    between atoms: N_5  and  C_6
REMARK    6  A    between atoms: N_5  and  C_7
REMARK    7  A    between atoms: N_15  and  C_16
REMARK    8  A    between atoms: C_18  and  C_19
REMARK    9  A    between atoms: C_19  and  O_20
REMARK   10  A    between atoms: O_20  and  S_21
REMARK   11  A    between atoms: S_21  and  N_22
REMARK   12  A    between atoms: C_25  and  O_26
REMARK   13  A    between atoms: C_27  and  O_28
REMARK                            x       y       z     vdW  Elec       q    Type
REMARK                         _______ _______ _______ _____ _____    ______ ____
ROOT
ATOM      1  C   UNL     1       2.809   5.636  19.923  0.00  0.00    +0.000 C 
ATOM      2  O   UNL     1       4.234   5.520  19.742  0.00  0.00    +0.000 OA
ATOM      3  C   UNL     1       4.526   4.208  19.205  0.00  0.00    +0.000 C 
ATOM      4  C   UNL     1       3.247   3.387  19.377  0.00  0.00    +0.000 C 
ATOM      5  C   UNL     1       2.140   4.425  19.278  0.00  0.00    +0.000 C 
ENDROOT
BRANCH   1  14
ATOM      6  C   UNL     1       0.923  10.124  19.659  0.00  0.00    +0.000 A 
ATOM      7  N   UNL     1       0.493  10.129  20.956  0.00  0.00    +0.000 NA
ATOM      8  C   UNL     1       0.697   9.045  21.731  0.00  0.00    +0.000 A 
ATOM      9  N   UNL     1       1.311   7.891  21.404  0.00  0.00    +0.000 NA
ATOM     10  C   UNL     1       1.705   7.904  20.121  0.00  0.00    +0.000 A 
ATOM     11  C   UNL     1       1.565   8.943  19.212  0.00  0.00    +0.000 A 
ATOM     12  N   UNL     1       2.114   8.581  17.992  0.00  0.00    +0.000 NA
ATOM     13  C   UNL     1       2.582   7.368  18.166  0.00  0.00    +0.000 A 
ATOM     14  N   UNL     1       2.352   6.914  19.432  0.00  0.00    +0.000 N 
BRANCH   6  15
ATOM     15  N   UNL     1       0.729  11.258  18.874  0.00  0.00    +0.000 N 
ATOM     16  C   UNL     1       1.876  12.113  18.633  0.00  0.00    +0.000 C 
BRANCH  15  17
ATOM     17  C   UNL     1      -0.613  11.710  18.519  0.00  0.00    +0.000 C 
BRANCH  17  18
ATOM     18  C   UNL     1      -1.428  10.598  17.848  0.00  0.00    +0.000 C 
BRANCH  18  20
ATOM     19  C   UNL     1      -3.511  10.120  16.523  0.00  0.00    +0.000 C 
ATOM     20  C   UNL     1      -2.451  11.159  16.859  0.00  0.00    +0.000 C 
ENDBRANCH  18  20
ENDBRANCH  17  18
ENDBRANCH  15  17
ENDBRANCH   6  15
ENDBRANCH   1  14
BRANCH   4  21
ATOM     21  O   UNL     1       3.175   2.796  20.690  0.00  0.00    +0.000 OA
ATOM     22  H   UNL     1       3.958   2.234  20.832  0.00  0.00    +0.000 HD
ENDBRANCH   4  21
BRANCH   5  23
ATOM     23  O   UNL     1       0.969   4.019  19.990  0.00  0.00    +0.000 OA
ATOM     24  H   UNL     1       1.165   4.150  20.941  0.00  0.00    +0.000 HD
ENDBRANCH   5  23
BRANCH   3  25
ATOM     25  C   UNL     1       4.985   4.331  17.750  0.00  0.00    +0.000 C 
BRANCH  25  26
ATOM     26  O   UNL     1       5.624   5.592  17.568  0.00  0.00    +0.000 OA
BRANCH  26  27
ATOM     27  S   UNL     1       7.226   5.574  17.330  0.00  0.00    +0.000 S 
ATOM     28  O   UNL     1       7.750   4.396  17.978  0.00  0.00    +0.000 OA
ATOM     29  O   UNL     1       7.490   5.874  15.942  0.00  0.00    +0.000 OA
BRANCH  27  30
ATOM     30  N   UNL     1       7.745   6.884  18.221  0.00  0.00    +0.000 NA
ATOM     31  H   UNL     1       7.897   7.699  17.633  0.00  0.00    +0.000 HD
ATOM     32  H   UNL     1       8.522   6.638  18.829  0.00  0.00    +0.000 HD
ENDBRANCH  27  30
ENDBRANCH  26  27
ENDBRANCH  25  26
ENDBRANCH   3  25
TORSDOF 11
ENDMDL
MODEL 5
REMARK VINA RESULT:      -7.1      1.005      1.166
REMARK  Name = 
REMARK  13 active torsions:
REMARK  status: ('A' for Active; 'I' for Inactive)
REMARK    1  A    between atoms: C_1  and  C_2
REMARK    2  A    between atoms: C_2  and  C_3
REMARK    3  A    between atoms: C_3  and  C_4
REMARK    4  A    between atoms: C_4  and  N_5
REMARK    5  A    between atoms: N_5  and  C_6
REMARK    6  A    between atoms: N_5  and  C_7
REMARK    7  A    between atoms: N_15  and  C_16
REMARK    8  A    between atoms: C_18  and  C_19
REMARK    9  A    between atoms: C_19  and  O_20
REMARK   10  A    between atoms: O_20  and  S_21
REMARK   11  A    between atoms: S_21  and  N_22
REMARK   12  A    between atoms: C_25  and  O_26
REMARK   13  A    between atoms: C_27  and  O_28
REMARK                            x       y       z     vdW  Elec       q    Type
REMARK                         _______ _______ _______ _____ _____    ______ ____
ROOT
ATOM      1  C   UNL     1       2.992   6.179  19.432  0.00  0.00    +0.000 C 
ATOM      2  O   UNL     1       4.318   6.198  18.868  0.00  0.00    +0.000 OA
ATOM      3  C   UNL     1       4.550   4.939  18.193  0.00  0.00    +0.000 C 
ATOM      4  C   UNL     1       3.431   4.001  18.651  0.00  0.00    +0.000 C 
ATOM      5  C   UNL     1       2.265   4.940  18.917  0.00  0.00    +0.000 C 
ENDROOT
BRANCH   1  14
ATOM      6  C   UNL     1       0.407  10.285  19.921  0.00  0.00    +0.000 A 
ATOM      7  N   UNL     1       0.016  10.005  21.201  0.00  0.00    +0.000 NA
ATOM      8  C   UNL     1       0.411   8.856  21.784  0.00  0.00    +0.000 A 
ATOM      9  N   UNL     1       1.193   7.886  21.269  0.00  0.00    +0.000 NA
ATOM     10  C   UNL     1       1.546   8.175  20.005  0.00  0.00    +0.000 A 
ATOM     11  C   UNL     1       1.217   9.313  19.283  0.00  0.00    +0.000 A 
ATOM     12  N   UNL     1       1.784   9.251  18.020  0.00  0.00    +0.000 NA
ATOM     13  C   UNL     1       2.444   8.118  17.989  0.00  0.00    +0.000 A 
ATOM     14  N   UNL     1       2.323   7.430  19.162  0.00  0.00    +0.000 N 
BRANCH   6  15
ATOM     15  N   UNL     1       0.014  11.486  19.337  0.00  0.00    +0.000 N 
ATOM     16  C   UNL     1       0.301  12.710  20.059  0.00  0.00    +0.000 C 
BRANCH  15  17
ATOM     17  C   UNL     1      -0.872  11.507  18.176  0.00  0.00    +0.000 C 
BRANCH  17  18
ATOM     18  C   UNL     1      -1.926  10.396  18.246  0.00  0.00    +0.000 C 
BRANCH  18  20
ATOM     19  C   UNL     1      -2.851   9.814  15.981  0.00  0.00    +0.000 C 
ATOM     20  C   UNL     1      -3.064  10.628  17.250  0.00  0.00    +0.000 C 
ENDBRANCH  18  20
ENDBRANCH  17  18
ENDBRANCH  15  17
ENDBRANCH   6  15
ENDBRANCH   1  14
BRANCH   4  21
ATOM     21  O   UNL     1       3.764   3.355  19.896  0.00  0.00    +0.000 OA
ATOM     22  H   UNL     1       3.229   3.744  20.612  0.00  0.00    +0.000 HD
ENDBRANCH   4  21
BRANCH   5  23
ATOM     23  O   UNL     1       1.366   4.404  19.890  0.00  0.00    +0.000 OA
ATOM     24  H   UNL     1       1.757   3.557  20.190  0.00  0.00    +0.000 HD
ENDBRANCH   5  23
BRANCH   3  25
ATOM     25  C   UNL     1       4.585   5.159  16.678  0.00  0.00    +0.000 C 
BRANCH  25  26
ATOM     26  O   UNL     1       5.848   5.711  16.317  0.00  0.00    +0.000 OA
BRANCH  26  27
ATOM     27  S   UNL     1       6.905   4.715  15.600  0.00  0.00    +0.000 S 
ATOM     28  O   UNL     1       6.169   3.566  15.128  0.00  0.00    +0.000 OA
ATOM     29  O   UNL     1       7.761   5.494  14.736  0.00  0.00    +0.000 OA
BRANCH  27  30
ATOM     30  N   UNL     1       7.842   4.194  16.876  0.00  0.00    +0.000 NA
ATOM     31  H   UNL     1       8.714   4.712  16.936  0.00  0.00    +0.000 HD
ATOM     32  H   UNL     1       7.940   3.181  16.879  0.00  0.00    +0.000 HD
ENDBRANCH  27  30
ENDBRANCH  26  27
ENDBRANCH  25  26
ENDBRANCH   3  25
TORSDOF 11
ENDMDL
MODEL 6
REMARK VINA RESULT:      -7.1      0.909      1.135
REMARK  Name = 
REMARK  13 active torsions:
REMARK  status: ('A' for Active; 'I' for Inactive)
REMARK    1  A    between atoms: C_1  and  C_2
REMARK    2  A    between atoms: C_2  and  C_3
REMARK    3  A    between atoms: C_3  and  C_4
REMARK    4  A    between atoms: C_4  and  N_5
REMARK    5  A    between atoms: N_5  and  C_6
REMARK    6  A    between atoms: N_5  and  C_7
REMARK    7  A    between atoms: N_15  and  C_16
REMARK    8  A    between atoms: C_18  and  C_19
REMARK    9  A    between atoms: C_19  and  O_20
REMARK   10  A    between atoms: O_20  and  S_21
REMARK   11  A    between atoms: S_21  and  N_22
REMARK   12  A    between atoms: C_25  and  O_26
REMARK   13  A    between atoms: C_27  and  O_28
REMARK                            x       y       z     vdW  Elec       q    Type
REMARK                         _______ _______ _______ _____ _____    ______ ____
ROOT
ATOM      1  C   UNL     1       3.218   5.725  19.546  0.00  0.00    +0.000 C 
ATOM      2  O   UNL     1       4.561   5.669  19.027  0.00  0.00    +0.000 OA
ATOM      3  C   UNL     1       4.769   4.370  18.424  0.00  0.00    +0.000 C 
ATOM      4  C   UNL     1       3.603   3.496  18.891  0.00  0.00    +0.000 C 
ATOM      5  C   UNL     1       2.464   4.487  19.070  0.00  0.00    +0.000 C 
ENDROOT
BRANCH   1  14
ATOM      6  C   UNL     1       0.751   9.927  19.736  0.00  0.00    +0.000 A 
ATOM      7  N   UNL     1       0.296   9.719  21.008  0.00  0.00    +0.000 NA
ATOM      8  C   UNL     1       0.628   8.585  21.659  0.00  0.00    +0.000 A 
ATOM      9  N   UNL     1       1.398   7.569  21.223  0.00  0.00    +0.000 NA
ATOM     10  C   UNL     1       1.814   7.789  19.965  0.00  0.00    +0.000 A 
ATOM     11  C   UNL     1       1.555   8.902  19.179  0.00  0.00    +0.000 A 
ATOM     12  N   UNL     1       2.174   8.765  17.946  0.00  0.00    +0.000 NA
ATOM     13  C   UNL     1       2.797   7.612  17.996  0.00  0.00    +0.000 A 
ATOM     14  N   UNL     1       2.603   6.982  19.191  0.00  0.00    +0.000 N 
BRANCH   6  15
ATOM     15  N   UNL     1       0.423  11.111  19.082  0.00  0.00    +0.000 N 
ATOM     16  C   UNL     1       1.511  11.994  18.704  0.00  0.00    +0.000 C 
BRANCH  15  17
ATOM     17  C   UNL     1      -0.960  11.573  19.005  0.00  0.00    +0.000 C 
BRANCH  17  18
ATOM     18  C   UNL     1      -1.502  11.505  17.572  0.00  0.00    +0.000 C 
BRANCH  18  20
ATOM     19  C   UNL     1      -3.220   9.669  17.620  0.00  0.00    +0.000 C 
ATOM     20  C   UNL     1      -1.827  10.069  17.155  0.00  0.00    +0.000 C 
ENDBRANCH  18  20
ENDBRANCH  17  18
ENDBRANCH  15  17
ENDBRANCH   6  15
ENDBRANCH   1  14
BRANCH   4  21
ATOM     21  O   UNL     1       3.874   2.904  20.178  0.00  0.00    +0.000 OA
ATOM     22  H   UNL     1       4.100   3.608  20.813  0.00  0.00    +0.000 HD
ENDBRANCH   4  21
BRANCH   5  23
ATOM     23  O   UNL     1       1.515   4.033  20.039  0.00  0.00    +0.000 OA
ATOM     24  H   UNL     1       1.486   4.719  20.738  0.00  0.00    +0.000 HD
ENDBRANCH   5  23
BRANCH   3  25
ATOM     25  C   UNL     1       4.859   4.510  16.902  0.00  0.00    +0.000 C 
BRANCH  25  26
ATOM     26  O   UNL     1       5.535   5.725  16.586  0.00  0.00    +0.000 OA
BRANCH  26  27
ATOM     27  S   UNL     1       7.139   5.638  16.380  0.00  0.00    +0.000 S 
ATOM     28  O   UNL     1       7.681   6.953  16.626  0.00  0.00    +0.000 OA
ATOM     29  O   UNL     1       7.628   4.461  17.058  0.00  0.00    +0.000 OA
BRANCH  27  30
ATOM     30  N   UNL     1       7.284   5.357  14.743  0.00  0.00    +0.000 NA
ATOM     31  H   UNL     1       8.229   5.539  14.415  0.00  0.00    +0.000 HD
ATOM     32  H   UNL     1       6.547   5.820  14.218  0.00  0.00    +0.000 HD
ENDBRANCH  27  30
ENDBRANCH  26  27
ENDBRANCH  25  26
ENDBRANCH   3  25
TORSDOF 11
ENDMDL
MODEL 7
REMARK VINA RESULT:      -7.1      1.332      1.672
REMARK  Name = 
REMARK  13 active torsions:
REMARK  status: ('A' for Active; 'I' for Inactive)
REMARK    1  A    between atoms: C_1  and  C_2
REMARK    2  A    between atoms: C_2  and  C_3
REMARK    3  A    between atoms: C_3  and  C_4
REMARK    4  A    between atoms: C_4  and  N_5
REMARK    5  A    between atoms: N_5  and  C_6
REMARK    6  A    between atoms: N_5  and  C_7
REMARK    7  A    between atoms: N_15  and  C_16
REMARK    8  A    between atoms: C_18  and  C_19
REMARK    9  A    between atoms: C_19  and  O_20
REMARK   10  A    between atoms: O_20  and  S_21
REMARK   11  A    between atoms: S_21  and  N_22
REMARK   12  A    between atoms: C_25  and  O_26
REMARK   13  A    between atoms: C_27  and  O_28
REMARK                            x       y       z     vdW  Elec       q    Type
REMARK                         _______ _______ _______ _____ _____    ______ ____
ROOT
ATOM      1  C   UNL     1       2.892   5.539  19.894  0.00  0.00    +0.000 C 
ATOM      2  O   UNL     1       4.289   5.353  19.596  0.00  0.00    +0.000 OA
ATOM      3  C   UNL     1       4.480   4.008  19.099  0.00  0.00    +0.000 C 
ATOM      4  C   UNL     1       3.190   3.251  19.419  0.00  0.00    +0.000 C 
ATOM      5  C   UNL     1       2.121   4.331  19.367  0.00  0.00    +0.000 C 
ENDROOT
BRANCH   1  14
ATOM      6  C   UNL     1       0.998  10.019  19.555  0.00  0.00    +0.000 A 
ATOM      7  N   UNL     1       0.531  10.028  20.840  0.00  0.00    +0.000 NA
ATOM      8  C   UNL     1       0.717   8.948  21.626  0.00  0.00    +0.000 A 
ATOM      9  N   UNL     1       1.344   7.795  21.322  0.00  0.00    +0.000 NA
ATOM     10  C   UNL     1       1.774   7.804  20.049  0.00  0.00    +0.000 A 
ATOM     11  C   UNL     1       1.656   8.838  19.132  0.00  0.00    +0.000 A 
ATOM     12  N   UNL     1       2.241   8.472  17.930  0.00  0.00    +0.000 NA
ATOM     13  C   UNL     1       2.707   7.262  18.123  0.00  0.00    +0.000 A 
ATOM     14  N   UNL     1       2.444   6.812  19.384  0.00  0.00    +0.000 N 
BRANCH   6  15
ATOM     15  N   UNL     1       0.822  11.148  18.760  0.00  0.00    +0.000 N 
ATOM     16  C   UNL     1       1.981  11.984  18.514  0.00  0.00    +0.000 C 
BRANCH  15  17
ATOM     17  C   UNL     1      -0.513  11.616  18.397  0.00  0.00    +0.000 C 
BRANCH  17  18
ATOM     18  C   UNL     1      -0.717  13.090  18.764  0.00  0.00    +0.000 C 
BRANCH  18  20
ATOM     19  C   UNL     1      -2.817  12.525  20.027  0.00  0.00    +0.000 C 
ATOM     20  C   UNL     1      -1.479  13.249  20.081  0.00  0.00    +0.000 C 
ENDBRANCH  18  20
ENDBRANCH  17  18
ENDBRANCH  15  17
ENDBRANCH   6  15
ENDBRANCH   1  14
BRANCH   4  21
ATOM     21  O   UNL     1       3.210   2.722  20.761  0.00  0.00    +0.000 OA
ATOM     22  H   UNL     1       2.318   2.793  21.147  0.00  0.00    +0.000 HD
ENDBRANCH   4  21
BRANCH   5  23
ATOM     23  O   UNL     1       1.001   4.008  20.196  0.00  0.00    +0.000 OA
ATOM     24  H   UNL     1       0.285   4.627  19.944  0.00  0.00    +0.000 HD
ENDBRANCH   5  23
BRANCH   3  25
ATOM     25  C   UNL     1       4.814   4.046  17.606  0.00  0.00    +0.000 C 
BRANCH  25  26
ATOM     26  O   UNL     1       5.599   5.205  17.334  0.00  0.00    +0.000 OA
BRANCH  26  27
ATOM     27  S   UNL     1       6.956   4.986  16.476  0.00  0.00    +0.000 S 
ATOM     28  O   UNL     1       6.652   4.064  15.408  0.00  0.00    +0.000 OA
ATOM     29  O   UNL     1       7.563   6.274  16.236  0.00  0.00    +0.000 OA
BRANCH  27  30
ATOM     30  N   UNL     1       7.940   4.172  17.548  0.00  0.00    +0.000 NA
ATOM     31  H   UNL     1       8.845   4.625  17.641  0.00  0.00    +0.000 HD
ATOM     32  H   UNL     1       7.973   3.177  17.343  0.00  0.00    +0.000 HD
ENDBRANCH  27  30
ENDBRANCH  26  27
ENDBRANCH  25  26
ENDBRANCH   3  25
TORSDOF 11
ENDMDL
MODEL 8
REMARK VINA RESULT:      -7.1      1.301      1.452
REMARK  Name = 
REMARK  13 active torsions:
REMARK  status: ('A' for Active; 'I' for Inactive)
REMARK    1  A    between atoms: C_1  and  C_2
REMARK    2  A    between atoms: C_2  and  C_3
REMARK    3  A    between atoms: C_3  and  C_4
REMARK    4  A    between atoms: C_4  and  N_5
REMARK    5  A    between atoms: N_5  and  C_6
REMARK    6  A    between atoms: N_5  and  C_7
REMARK    7  A    between atoms: N_15  and  C_16
REMARK    8  A    between atoms: C_18  and  C_19
REMARK    9  A    between atoms: C_19  and  O_20
REMARK   10  A    between atoms: O_20  and  S_21
REMARK   11  A    between atoms: S_21  and  N_22
REMARK   12  A    between atoms: C_25  and  O_26
REMARK   13  A    between atoms: C_27  and  O_28
REMARK                            x       y       z     vdW  Elec       q    Type
REMARK                         _______ _______ _______ _____ _____    ______ ____
ROOT
ATOM      1  C   UNL     1       3.016   6.087  18.970  0.00  0.00    +0.000 C 
ATOM      2  O   UNL     1       4.395   6.251  19.354  0.00  0.00    +0.000 OA
ATOM      3  C   UNL     1       5.199   5.314  18.600  0.00  0.00    +0.000 C 
ATOM      4  C   UNL     1       4.216   4.323  17.973  0.00  0.00    +0.000 C 
ATOM      5  C   UNL     1       2.958   5.150  17.766  0.00  0.00    +0.000 C 
ENDROOT
BRANCH   1  14
ATOM      6  C   UNL     1       0.694  10.313  19.689  0.00  0.00    +0.000 A 
ATOM      7  N   UNL     1       0.360  10.026  20.983  0.00  0.00    +0.000 NA
ATOM      8  C   UNL     1       0.723   8.843  21.519  0.00  0.00    +0.000 A 
ATOM      9  N   UNL     1       1.419   7.845  20.941  0.00  0.00    +0.000 NA
ATOM     10  C   UNL     1       1.717   8.144  19.665  0.00  0.00    +0.000 A 
ATOM     11  C   UNL     1       1.412   9.314  18.986  0.00  0.00    +0.000 A 
ATOM     12  N   UNL     1       1.904   9.251  17.692  0.00  0.00    +0.000 NA
ATOM     13  C   UNL     1       2.497   8.085  17.601  0.00  0.00    +0.000 A 
ATOM     14  N   UNL     1       2.404   7.377  18.764  0.00  0.00    +0.000 N 
BRANCH   6  15
ATOM     15  N   UNL     1       0.336  11.547  19.152  0.00  0.00    +0.000 N 
ATOM     16  C   UNL     1       1.277  12.641  19.296  0.00  0.00    +0.000 C 
BRANCH  15  17
ATOM     17  C   UNL     1      -1.025  11.804  18.691  0.00  0.00    +0.000 C 
BRANCH  17  18
ATOM     18  C   UNL     1      -1.536  10.685  17.776  0.00  0.00    +0.000 C 
BRANCH  18  20
ATOM     19  C   UNL     1      -2.814  10.289  15.647  0.00  0.00    +0.000 C 
ATOM     20  C   UNL     1      -2.692  11.156  16.892  0.00  0.00    +0.000 C 
ENDBRANCH  18  20
ENDBRANCH  17  18
ENDBRANCH  15  17
ENDBRANCH   6  15
ENDBRANCH   1  14
BRANCH   4  21
ATOM     21  O   UNL     1       3.892   3.256  18.888  0.00  0.00    +0.000 OA
ATOM     22  H   UNL     1       3.433   3.627  19.663  0.00  0.00    +0.000 HD
ENDBRANCH   4  21
BRANCH   5  23
ATOM     23  O   UNL     1       1.782   4.337  17.778  0.00  0.00    +0.000 OA
ATOM     24  H   UNL     1       1.091   4.858  18.238  0.00  0.00    +0.000 HD
ENDBRANCH   5  23
BRANCH   3  25
ATOM     25  C   UNL     1       6.050   6.065  17.573  0.00  0.00    +0.000 C 
BRANCH  25  26
ATOM     26  O   UNL     1       5.832   5.499  16.283  0.00  0.00    +0.000 OA
BRANCH  26  27
ATOM     27  S   UNL     1       7.091   4.750  15.590  0.00  0.00    +0.000 S 
ATOM     28  O   UNL     1       7.635   5.643  14.595  0.00  0.00    +0.000 OA
ATOM     29  O   UNL     1       7.904   4.159  16.627  0.00  0.00    +0.000 OA
BRANCH  27  30
ATOM     30  N   UNL     1       6.364   3.497  14.765  0.00  0.00    +0.000 NA
ATOM     31  H   UNL     1       6.014   3.799  13.860  0.00  0.00    +0.000 HD
ATOM     32  H   UNL     1       5.689   3.008  15.348  0.00  0.00    +0.000 HD
ENDBRANCH  27  30
ENDBRANCH  26  27
ENDBRANCH  25  26
ENDBRANCH   3  25
TORSDOF 11
ENDMDL
MODEL 9
REMARK VINA RESULT:      -7.1      1.161      1.244
REMARK  Name = 
REMARK  13 active torsions:
REMARK  status: ('A' for Active; 'I' for Inactive)
REMARK    1  A    between atoms: C_1  and  C_2
REMARK    2  A    between atoms: C_2  and  C_3
REMARK    3  A    between atoms: C_3  and  C_4
REMARK    4  A    between atoms: C_4  and  N_5
REMARK    5  A    between atoms: N_5  and  C_6
REMARK    6  A    between atoms: N_5  and  C_7
REMARK    7  A    between atoms: N_15  and  C_16
REMARK    8  A    between atoms: C_18  and  C_19
REMARK    9  A    between atoms: C_19  and  O_20
REMARK   10  A    between atoms: O_20  and  S_21
REMARK   11  A    between atoms: S_21  and  N_22
REMARK   12  A    between atoms: C_25  and  O_26
REMARK   13  A    between atoms: C_27  and  O_28
REMARK                            x       y       z     vdW  Elec       q    Type
REMARK                         _______ _______ _______ _____ _____    ______ ____
ROOT
ATOM      1  C   UNL     1       2.767   5.880  19.115  0.00  0.00    +0.000 C 
ATOM      2  O   UNL     1       4.121   5.917  19.606  0.00  0.00    +0.000 OA
ATOM      3  C   UNL     1       4.906   4.951  18.868  0.00  0.00    +0.000 C 
ATOM      4  C   UNL     1       3.902   4.070  18.123  0.00  0.00    +0.000 C 
ATOM      5  C   UNL     1       2.730   5.004  17.865  0.00  0.00    +0.000 C 
ENDROOT
BRANCH   1  14
ATOM      6  C   UNL     1       0.888  10.309  19.907  0.00  0.00    +0.000 A 
ATOM      7  N   UNL     1       0.576  10.054  21.213  0.00  0.00    +0.000 NA
ATOM      8  C   UNL     1       0.843   8.841  21.738  0.00  0.00    +0.000 A 
ATOM      9  N   UNL     1       1.420   7.781  21.138  0.00  0.00    +0.000 NA
ATOM     10  C   UNL     1       1.697   8.051  19.852  0.00  0.00    +0.000 A 
ATOM     11  C   UNL     1       1.481   9.246  19.181  0.00  0.00    +0.000 A 
ATOM     12  N   UNL     1       1.916   9.138  17.869  0.00  0.00    +0.000 NA
ATOM     13  C   UNL     1       2.391   7.920  17.760  0.00  0.00    +0.000 A 
ATOM     14  N   UNL     1       2.274   7.223  18.927  0.00  0.00    +0.000 N 
BRANCH   6  15
ATOM     15  N   UNL     1       0.630  11.572  19.380  0.00  0.00    +0.000 N 
ATOM     16  C   UNL     1       1.767  12.426  19.093  0.00  0.00    +0.000 C 
BRANCH  15  17
ATOM     17  C   UNL     1      -0.724  12.117  19.354  0.00  0.00    +0.000 C 
BRANCH  17  18
ATOM     18  C   UNL     1      -1.428  11.827  18.024  0.00  0.00    +0.000 C 
BRANCH  18  20
ATOM     19  C   UNL     1      -2.287   9.881  16.681  0.00  0.00    +0.000 C 
ATOM     20  C   UNL     1      -2.203  10.508  18.066  0.00  0.00    +0.000 C 
ENDBRANCH  18  20
ENDBRANCH  17  18
ENDBRANCH  15  17
ENDBRANCH   6  15
ENDBRANCH   1  14
BRANCH   4  21
ATOM     21  O   UNL     1       3.426   2.994  18.958  0.00  0.00    +0.000 OA
ATOM     22  H   UNL     1       2.708   2.524  18.496  0.00  0.00    +0.000 HD
ENDBRANCH   4  21
BRANCH   5  23
ATOM     23  O   UNL     1       1.498   4.288  17.750  0.00  0.00    +0.000 OA
ATOM     24  H   UNL     1       0.946   4.567  18.511  0.00  0.00    +0.000 HD
ENDBRANCH   5  23
BRANCH   3  25
ATOM     25  C   UNL     1       5.890   5.675  17.944  0.00  0.00    +0.000 C 
BRANCH  25  26
ATOM     26  O   UNL     1       6.430   4.740  17.014  0.00  0.00    +0.000 OA
BRANCH  26  27
ATOM     27  S   UNL     1       6.307   5.116  15.443  0.00  0.00    +0.000 S 
ATOM     28  O   UNL     1       7.620   5.500  14.983  0.00  0.00    +0.000 OA
ATOM     29  O   UNL     1       5.525   4.096  14.784  0.00  0.00    +0.000 OA
BRANCH  27  30
ATOM     30  N   UNL     1       5.382   6.502  15.469  0.00  0.00    +0.000 NA
ATOM     31  H   UNL     1       4.527   6.391  14.931  0.00  0.00    +0.000 HD
ATOM     32  H   UNL     1       5.934   7.324  15.237  0.00  0.00    +0.000 HD
ENDBRANCH  27  30
ENDBRANCH  26  27
ENDBRANCH  25  26
ENDBRANCH   3  25
TORSDOF 11
ENDMDL
