MODEL 1
REMARK VINA RESULT:      -6.5      0.000      0.000
REMARK  Name = 
REMARK  5 active torsions:
REMARK  status: ('A' for Active; 'I' for Inactive)
REMARK    1  A    between atoms: C_1  and  N_2
REMARK    2  A    between atoms: N_2  and  C_3
REMARK    3  A    between atoms: N_2  and  C_4
REMARK    4  A    between atoms: N_2  and  C_5
REMARK    5  A    between atoms: C_5  and  C_6
REMARK                            x       y       z     vdW  Elec       q    Type
REMARK                         _______ _______ _______ _____ _____    ______ ____
ROOT
ATOM      1  C   UNL     1       2.561   4.895  19.237  0.00  0.00    +0.000 C 
ATOM      2  C   UNL     1       1.549   4.164  18.278  0.00  0.00    +0.000 C 
ATOM      3  C   UNL     1       1.234   2.690  18.514  0.00  0.00    +0.000 C 
ATOM      4  C   UNL     1       0.892   2.393  19.959  0.00  0.00    +0.000 C 
ATOM      5  C   UNL     1       1.944   2.928  20.915  0.00  0.00    +0.000 C 
ATOM      6  C   UNL     1       2.252   4.409  20.700  0.00  0.00    +0.000 C 
ENDROOT
BRANCH   1   7
ATOM      7  C   UNL     1       2.319   6.446  19.123  0.00  0.00    +0.000 A 
ATOM      8  C   UNL     1       1.911   7.215  20.237  0.00  0.00    +0.000 A 
ATOM      9  C   UNL     1       1.601   8.573  20.121  0.00  0.00    +0.000 A 
ATOM     10  C   UNL     1       1.685   9.205  18.888  0.00  0.00    +0.000 A 
ATOM     11  C   UNL     1       2.110   8.486  17.776  0.00  0.00    +0.000 A 
ATOM     12  C   UNL     1       2.435   7.129  17.893  0.00  0.00    +0.000 A 
ENDBRANCH   1   7
BRANCH   1  14
ATOM     13  C   UNL     1       5.146   5.623  19.256  0.00  0.00    +0.000 C 
ATOM     14  N   UNL     1       4.128   4.575  18.834  0.00  0.00    +0.000 N 
ATOM     15  C   UNL     1       4.298   4.430  17.307  0.00  0.00    +0.000 C 
ATOM     16  C   UNL     1       4.589   3.235  19.433  0.00  0.00    +0.000 C 
ENDBRANCH   1  14
TORSDOF 2
ENDMDL
MODEL 2
REMARK VINA RESULT:      -6.5      0.076      1.066
REMARK  Name = 
REMARK  5 active torsions:
REMARK  status: ('A' for Active; 'I' for Inactive)
REMARK    1  A    between atoms: C_1  and  N_2
REMARK    2  A    between atoms: N_2  and  C_3
REMARK    3  A    between atoms: N_2  and  C_4
REMARK    4  A    between atoms: N_2  and  C_5
REMARK    5  A    between atoms: C_5  and  C_6
REMARK                            x       y       z     vdW  Elec       q    Type
REMARK                         _______ _______ _______ _____ _____    ______ ____
ROOT
ATOM      1  C   UNL     1       2.564   4.833  19.244  0.00  0.00    +0.000 C 
ATOM      2  C   UNL     1       1.514   4.105  18.325  0.00  0.00    +0.000 C 
ATOM      3  C   UNL     1       1.198   2.633  18.579  0.00  0.00    +0.000 C 
ATOM      4  C   UNL     1       0.904   2.346  20.037  0.00  0.00    +0.000 C 
ATOM      5  C   UNL     1       1.993   2.878  20.952  0.00  0.00    +0.000 C 
ATOM      6  C   UNL     1       2.304   4.355  20.719  0.00  0.00    +0.000 C 
ENDROOT
BRANCH   1   7
ATOM      7  C   UNL     1       2.329   6.384  19.131  0.00  0.00    +0.000 A 
ATOM      8  C   UNL     1       1.933   7.156  20.248  0.00  0.00    +0.000 A 
ATOM      9  C   UNL     1       1.629   8.516  20.134  0.00  0.00    +0.000 A 
ATOM     10  C   UNL     1       1.707   9.147  18.900  0.00  0.00    +0.000 A 
ATOM     11  C   UNL     1       2.120   8.425  17.785  0.00  0.00    +0.000 A 
ATOM     12  C   UNL     1       2.440   7.067  17.900  0.00  0.00    +0.000 A 
ENDBRANCH   1   7
BRANCH   1  14
ATOM     13  C   UNL     1       4.343   4.339  17.293  0.00  0.00    +0.000 C 
ATOM     14  N   UNL     1       4.114   4.500  18.788  0.00  0.00    +0.000 N 
ATOM     15  C   UNL     1       4.619   3.187  19.424  0.00  0.00    +0.000 C 
ATOM     16  C   UNL     1       5.080   5.595  19.273  0.00  0.00    +0.000 C 
ENDBRANCH   1  14
TORSDOF 2
ENDMDL
MODEL 3
REMARK VINA RESULT:      -6.5      0.056      1.069
REMARK  Name = 
REMARK  5 active torsions:
REMARK  status: ('A' for Active; 'I' for Inactive)
REMARK    1  A    between atoms: C_1  and  N_2
REMARK    2  A    between atoms: N_2  and  C_3
REMARK    3  A    between atoms: N_2  and  C_4
REMARK    4  A    between atoms: N_2  and  C_5
REMARK    5  A    between atoms: C_5  and  C_6
REMARK                            x       y       z     vdW  Elec       q    Type
REMARK                         _______ _______ _______ _____ _____    ______ ____
ROOT
ATOM      1  C   UNL     1       2.554   4.906  19.241  0.00  0.00    +0.000 C 
ATOM      2  C   UNL     1       1.529   4.174  18.297  0.00  0.00    +0.000 C 
ATOM      3  C   UNL     1       1.214   2.700  18.543  0.00  0.00    +0.000 C 
ATOM      4  C   UNL     1       0.891   2.409  19.993  0.00  0.00    +0.000 C 
ATOM      5  C   UNL     1       1.956   2.945  20.933  0.00  0.00    +0.000 C 
ATOM      6  C   UNL     1       2.263   4.425  20.709  0.00  0.00    +0.000 C 
ENDROOT
BRANCH   1   7
ATOM      7  C   UNL     1       2.313   6.456  19.125  0.00  0.00    +0.000 A 
ATOM      8  C   UNL     1       1.914   7.229  20.240  0.00  0.00    +0.000 A 
ATOM      9  C   UNL     1       1.605   8.587  20.123  0.00  0.00    +0.000 A 
ATOM     10  C   UNL     1       1.682   9.216  18.888  0.00  0.00    +0.000 A 
ATOM     11  C   UNL     1       2.098   8.494  17.775  0.00  0.00    +0.000 A 
ATOM     12  C   UNL     1       2.422   7.137  17.892  0.00  0.00    +0.000 A 
ENDBRANCH   1   7
BRANCH   1  14
ATOM     13  C   UNL     1       4.690   3.282  19.360  0.00  0.00    +0.000 C 
ATOM     14  N   UNL     1       4.115   4.582  18.819  0.00  0.00    +0.000 N 
ATOM     15  C   UNL     1       5.073   5.689  19.308  0.00  0.00    +0.000 C 
ATOM     16  C   UNL     1       4.276   4.539  17.289  0.00  0.00    +0.000 C 
ENDBRANCH   1  14
TORSDOF 2
ENDMDL
MODEL 4
REMARK VINA RESULT:      -6.2      1.269      3.614
REMARK  Name = 
REMARK  5 active torsions:
REMARK  status: ('A' for Active; 'I' for Inactive)
REMARK    1  A    between atoms: C_1  and  N_2
REMARK    2  A    between atoms: N_2  and  C_3
REMARK    3  A    between atoms: N_2  and  C_4
REMARK    4  A    between atoms: N_2  and  C_5
REMARK    5  A    between atoms: C_5  and  C_6
REMARK                            x       y       z     vdW  Elec       q    Type
REMARK                         _______ _______ _______ _____ _____    ______ ____
ROOT
ATOM      1  C   UNL     1       3.875   5.602  18.248  0.00  0.00    +0.000 C 
ATOM      2  C   UNL     1       5.050   5.587  19.295  0.00  0.00    +0.000 C 
ATOM      3  C   UNL     1       6.348   4.865  18.946  0.00  0.00    +0.000 C 
ATOM      4  C   UNL     1       6.873   5.243  17.577  0.00  0.00    +0.000 C 
ATOM      5  C   UNL     1       5.813   5.097  16.500  0.00  0.00    +0.000 C 
ATOM      6  C   UNL     1       4.516   5.833  16.831  0.00  0.00    +0.000 C 
ENDROOT
BRANCH   1   7
ATOM      7  C   UNL     1       2.910   6.793  18.602  0.00  0.00    +0.000 A 
ATOM      8  C   UNL     1       2.588   7.792  17.655  0.00  0.00    +0.000 A 
ATOM      9  C   UNL     1       1.811   8.904  17.992  0.00  0.00    +0.000 A 
ATOM     10  C   UNL     1       1.332   9.054  19.286  0.00  0.00    +0.000 A 
ATOM     11  C   UNL     1       1.605   8.077  20.237  0.00  0.00    +0.000 A 
ATOM     12  C   UNL     1       2.372   6.955  19.898  0.00  0.00    +0.000 A 
ENDBRANCH   1   7
BRANCH   1  14
ATOM     13  C   UNL     1       3.603   3.041  17.484  0.00  0.00    +0.000 C 
ATOM     14  N   UNL     1       3.011   4.197  18.276  0.00  0.00    +0.000 N 
ATOM     15  C   UNL     1       1.590   4.398  17.707  0.00  0.00    +0.000 C 
ATOM     16  C   UNL     1       2.814   3.698  19.718  0.00  0.00    +0.000 C 
ENDBRANCH   1  14
TORSDOF 2
ENDMDL
MODEL 5
REMARK VINA RESULT:      -6.2      1.264      3.661
REMARK  Name = 
REMARK  5 active torsions:
REMARK  status: ('A' for Active; 'I' for Inactive)
REMARK    1  A    between atoms: C_1  and  N_2
REMARK    2  A    between atoms: N_2  and  C_3
REMARK    3  A    between atoms: N_2  and  C_4
REMARK    4  A    between atoms: N_2  and  C_5
REMARK    5  A    between atoms: C_5  and  C_6
REMARK                            x       y       z     vdW  Elec       q    Type
REMARK                         _______ _______ _______ _____ _____    ______ ____
ROOT
ATOM      1  C   UNL     1       3.885   5.553  18.235  0.00  0.00    +0.000 C 
ATOM      2  C   UNL     1       5.043   5.513  19.299  0.00  0.00    +0.000 C 
ATOM      3  C   UNL     1       6.332   4.766  18.968  0.00  0.00    +0.000 C 
ATOM      4  C   UNL     1       6.885   5.135  17.608  0.00  0.00    +0.000 C 
ATOM      5  C   UNL     1       5.838   5.011  16.515  0.00  0.00    +0.000 C 
ATOM      6  C   UNL     1       4.551   5.773  16.828  0.00  0.00    +0.000 C 
ENDROOT
BRANCH   1   7
ATOM      7  C   UNL     1       2.939   6.762  18.577  0.00  0.00    +0.000 A 
ATOM      8  C   UNL     1       2.673   7.784  17.636  0.00  0.00    +0.000 A 
ATOM      9  C   UNL     1       1.912   8.909  17.966  0.00  0.00    +0.000 A 
ATOM     10  C   UNL     1       1.395   9.052  19.246  0.00  0.00    +0.000 A 
ATOM     11  C   UNL     1       1.613   8.054  20.189  0.00  0.00    +0.000 A 
ATOM     12  C   UNL     1       2.363   6.918  19.857  0.00  0.00    +0.000 A 
ENDBRANCH   1   7
BRANCH   1  14
ATOM     13  C   UNL     1       1.558   4.297  17.761  0.00  0.00    +0.000 C 
ATOM     14  N   UNL     1       2.993   4.166  18.248  0.00  0.00    +0.000 N 
ATOM     15  C   UNL     1       2.891   3.574  19.670  0.00  0.00    +0.000 C 
ATOM     16  C   UNL     1       3.657   3.073  17.392  0.00  0.00    +0.000 C 
ENDBRANCH   1  14
TORSDOF 2
ENDMDL
MODEL 6
REMARK VINA RESULT:      -6.2      1.248      3.618
REMARK  Name = 
REMARK  5 active torsions:
REMARK  status: ('A' for Active; 'I' for Inactive)
REMARK    1  A    between atoms: C_1  and  N_2
REMARK    2  A    between atoms: N_2  and  C_3
REMARK    3  A    between atoms: N_2  and  C_4
REMARK    4  A    between atoms: N_2  and  C_5
REMARK    5  A    between atoms: C_5  and  C_6
REMARK                            x       y       z     vdW  Elec       q    Type
REMARK                         _______ _______ _______ _____ _____    ______ ____
ROOT
ATOM      1  C   UNL     1       3.892   5.526  18.254  0.00  0.00    +0.000 C 
ATOM      2  C   UNL     1       5.086   5.526  19.279  0.00  0.00    +0.000 C 
ATOM      3  C   UNL     1       6.368   4.776  18.927  0.00  0.00    +0.000 C 
ATOM      4  C   UNL     1       6.872   5.106  17.538  0.00  0.00    +0.000 C 
ATOM      5  C   UNL     1       5.789   4.942  16.486  0.00  0.00    +0.000 C 
ATOM      6  C   UNL     1       4.509   5.706  16.819  0.00  0.00    +0.000 C 
ENDROOT
BRANCH   1   7
ATOM      7  C   UNL     1       2.950   6.740  18.591  0.00  0.00    +0.000 A 
ATOM      8  C   UNL     1       2.686   7.757  17.644  0.00  0.00    +0.000 A 
ATOM      9  C   UNL     1       1.930   8.887  17.968  0.00  0.00    +0.000 A 
ATOM     10  C   UNL     1       1.415   9.039  19.248  0.00  0.00    +0.000 A 
ATOM     11  C   UNL     1       1.631   8.045  20.197  0.00  0.00    +0.000 A 
ATOM     12  C   UNL     1       2.376   6.905  19.870  0.00  0.00    +0.000 A 
ENDBRANCH   1   7
BRANCH   1  14
ATOM     13  C   UNL     1       2.819   3.558  19.734  0.00  0.00    +0.000 C 
ATOM     14  N   UNL     1       3.010   4.135  18.340  0.00  0.00    +0.000 N 
ATOM     15  C   UNL     1       3.659   3.004  17.514  0.00  0.00    +0.000 C 
ATOM     16  C   UNL     1       1.606   4.333  17.741  0.00  0.00    +0.000 C 
ENDBRANCH   1  14
TORSDOF 2
ENDMDL
MODEL 7
REMARK VINA RESULT:      -6.1      1.801      4.060
REMARK  Name = 
REMARK  5 active torsions:
REMARK  status: ('A' for Active; 'I' for Inactive)
REMARK    1  A    between atoms: C_1  and  N_2
REMARK    2  A    between atoms: N_2  and  C_3
REMARK    3  A    between atoms: N_2  and  C_4
REMARK    4  A    between atoms: N_2  and  C_5
REMARK    5  A    between atoms: C_5  and  C_6
REMARK                            x       y       z     vdW  Elec       q    Type
REMARK                         _______ _______ _______ _____ _____    ______ ____
ROOT
ATOM      1  C   UNL     1       4.083   4.352  18.574  0.00  0.00    +0.000 C 
ATOM      2  C   UNL     1       4.536   3.343  19.694  0.00  0.00    +0.000 C 
ATOM      3  C   UNL     1       3.791   2.020  19.848  0.00  0.00    +0.000 C 
ATOM      4  C   UNL     1       3.618   1.294  18.530  0.00  0.00    +0.000 C 
ATOM      5  C   UNL     1       3.011   2.188  17.463  0.00  0.00    +0.000 C 
ATOM      6  C   UNL     1       3.762   3.507  17.287  0.00  0.00    +0.000 C 
ENDROOT
BRANCH   1   7
ATOM      7  C   UNL     1       5.275   5.338  18.285  0.00  0.00    +0.000 A 
ATOM      8  C   UNL     1       5.268   6.199  17.164  0.00  0.00    +0.000 A 
ATOM      9  C   UNL     1       6.364   7.007  16.848  0.00  0.00    +0.000 A 
ATOM     10  C   UNL     1       7.503   6.979  17.641  0.00  0.00    +0.000 A 
ATOM     11  C   UNL     1       7.534   6.164  18.767  0.00  0.00    +0.000 A 
ATOM     12  C   UNL     1       6.432   5.365  19.094  0.00  0.00    +0.000 A 
ENDBRANCH   1   7
BRANCH   1  14
ATOM     13  C   UNL     1       3.035   6.696  19.361  0.00  0.00    +0.000 C 
ATOM     14  N   UNL     1       2.769   5.233  19.037  0.00  0.00    +0.000 N 
ATOM     15  C   UNL     1       2.113   4.645  20.304  0.00  0.00    +0.000 C 
ATOM     16  C   UNL     1       1.677   5.207  17.954  0.00  0.00    +0.000 C 
ENDBRANCH   1  14
TORSDOF 2
ENDMDL
MODEL 8
REMARK VINA RESULT:      -6.1      0.112      1.206
REMARK  Name = 
REMARK  5 active torsions:
REMARK  status: ('A' for Active; 'I' for Inactive)
REMARK    1  A    between atoms: C_1  and  N_2
REMARK    2  A    between atoms: N_2  and  C_3
REMARK    3  A    between atoms: N_2  and  C_4
REMARK    4  A    between atoms: N_2  and  C_5
REMARK    5  A    between atoms: C_5  and  C_6
REMARK                            x       y       z     vdW  Elec       q    Type
REMARK                         _______ _______ _______ _____ _____    ______ ____
ROOT
ATOM      1  C   UNL     1       2.540   4.828  19.241  0.00  0.00    +0.000 C 
ATOM      2  C   UNL     1       1.543   4.038  18.315  0.00  0.00    +0.000 C 
ATOM      3  C   UNL     1       1.297   2.555  18.583  0.00  0.00    +0.000 C 
ATOM      4  C   UNL     1       0.994   2.270  20.039  0.00  0.00    +0.000 C 
ATOM      5  C   UNL     1       2.040   2.867  20.965  0.00  0.00    +0.000 C 
ATOM      6  C   UNL     1       2.279   4.356  20.718  0.00  0.00    +0.000 C 
ENDROOT
BRANCH   1   7
ATOM      7  C   UNL     1       2.228   6.365  19.106  0.00  0.00    +0.000 A 
ATOM      8  C   UNL     1       2.385   7.046  17.877  0.00  0.00    +0.000 A 
ATOM      9  C   UNL     1       2.204   8.429  17.772  0.00  0.00    +0.000 A 
ATOM     10  C   UNL     1       1.863   9.174  18.892  0.00  0.00    +0.000 A 
ATOM     11  C   UNL     1       1.673   8.533  20.111  0.00  0.00    +0.000 A 
ATOM     12  C   UNL     1       1.840   7.146  20.216  0.00  0.00    +0.000 A 
ENDBRANCH   1   7
BRANCH   1  14
ATOM     13  C   UNL     1       5.092   5.664  19.203  0.00  0.00    +0.000 C 
ATOM     14  N   UNL     1       4.111   4.569  18.814  0.00  0.00    +0.000 N 
ATOM     15  C   UNL     1       4.260   4.409  17.286  0.00  0.00    +0.000 C 
ATOM     16  C   UNL     1       4.640   3.258  19.422  0.00  0.00    +0.000 C 
ENDBRANCH   1  14
TORSDOF 2
ENDMDL
MODEL 9
REMARK VINA RESULT:      -6.1      2.136      3.649
REMARK  Name = 
REMARK  5 active torsions:
REMARK  status: ('A' for Active; 'I' for Inactive)
REMARK    1  A    between atoms: C_1  and  N_2
REMARK    2  A    between atoms: N_2  and  C_3
REMARK    3  A    between atoms: N_2  and  C_4
REMARK    4  A    between atoms: N_2  and  C_5
REMARK    5  A    between atoms: C_5  and  C_6
REMARK                            x       y       z     vdW  Elec       q    Type
REMARK                         _______ _______ _______ _____ _____    ______ ____
ROOT
ATOM      1  C   UNL     1       3.694   4.297  19.110  0.00  0.00    +0.000 C 
ATOM      2  C   UNL     1       2.637   5.222  19.820  0.00  0.00    +0.000 C 
ATOM      3  C   UNL     1       1.586   4.589  20.729  0.00  0.00    +0.000 C 
ATOM      4  C   UNL     1       2.189   3.624  21.727  0.00  0.00    +0.000 C 
ATOM      5  C   UNL     1       3.081   2.594  21.056  0.00  0.00    +0.000 C 
ATOM      6  C   UNL     1       4.148   3.218  20.160  0.00  0.00    +0.000 C 
ENDROOT
BRANCH   1   7
ATOM      7  C   UNL     1       4.922   5.185  18.686  0.00  0.00    +0.000 A 
ATOM      8  C   UNL     1       4.781   6.259  17.777  0.00  0.00    +0.000 A 
ATOM      9  C   UNL     1       5.882   6.989  17.321  0.00  0.00    +0.000 A 
ATOM     10  C   UNL     1       7.160   6.668  17.757  0.00  0.00    +0.000 A 
ATOM     11  C   UNL     1       7.334   5.635  18.673  0.00  0.00    +0.000 A 
ATOM     12  C   UNL     1       6.231   4.912  19.142  0.00  0.00    +0.000 A 
ENDBRANCH   1   7
BRANCH   1  14
ATOM     13  C   UNL     1       2.808   2.083  17.875  0.00  0.00    +0.000 C 
ATOM     14  N   UNL     1       3.073   3.577  17.763  0.00  0.00    +0.000 N 
ATOM     15  C   UNL     1       4.018   3.737  16.553  0.00  0.00    +0.000 C 
ATOM     16  C   UNL     1       1.747   4.236  17.345  0.00  0.00    +0.000 C 
ENDBRANCH   1  14
TORSDOF 2
ENDMDL
