MODEL 1
REMARK VINA RESULT:      -8.6      0.000      0.000
REMARK  Name = 
REMARK  8 active torsions:
REMARK  status: ('A' for Active; 'I' for Inactive)
REMARK    1  A    between atoms: C_1  and  O_2
REMARK    2  A    between atoms: O_2  and  C_3
REMARK    3  A    between atoms: C_3  and  C_5
REMARK    4  A    between atoms: C_5  and  C_6
REMARK    5  A    between atoms: C_9  and  N_10
REMARK    6  A    between atoms: C_11  and  C_13
REMARK    7  A    between atoms: N_21  and  C_22
REMARK    8  A    between atoms: C_22  and  C_23
REMARK                            x       y       z     vdW  Elec       q    Type
REMARK                         _______ _______ _______ _____ _____    ______ ____
ROOT
ATOM      1  C   UNL     1       7.940   7.581  18.227  0.00  0.00    +0.000 A 
ATOM      2  C   UNL     1       8.341   6.647  19.211  0.00  0.00    +0.000 A 
ATOM      3  C   UNL     1       7.650   5.430  19.361  0.00  0.00    +0.000 A 
ATOM      4  C   UNL     1       6.611   5.179  18.485  0.00  0.00    +0.000 A 
ATOM      5  C   UNL     1       6.402   5.992  17.393  0.00  0.00    +0.000 A 
ATOM      6  C   UNL     1       7.010   7.215  17.252  0.00  0.00    +0.000 A 
ATOM      7  C   UNL     1       5.272   5.471  16.654  0.00  0.00    +0.000 C 
ATOM      8  O   UNL     1       5.022   5.751  15.500  0.00  0.00    +0.000 OA
ATOM      9  N   UNL     1       4.618   4.654  17.516  0.00  0.00    +0.000 N 
ATOM     10  C   UNL     1       5.429   4.299  18.566  0.00  0.00    +0.000 C 
ATOM     11  O   UNL     1       5.250   3.484  19.450  0.00  0.00    +0.000 OA
ENDROOT
BRANCH   1  13
ATOM     12  N   UNL     1       9.288   9.404  19.151  0.00  0.00    +0.000 N 
ATOM     13  C   UNL     1       8.338   9.020  18.220  0.00  0.00    +0.000 C 
ATOM     14  O   UNL     1       7.736   9.757  17.451  0.00  0.00    +0.000 OA
ATOM     15  H   UNL     1       9.691   8.700  19.752  0.00  0.00    +0.000 HD
BRANCH  12  19
ATOM     16  C   UNL     1      10.609  13.370  19.810  0.00  0.00    +0.000 A 
ATOM     17  C   UNL     1      10.038  12.652  20.859  0.00  0.00    +0.000 A 
ATOM     18  C   UNL     1       9.590  11.344  20.659  0.00  0.00    +0.000 A 
ATOM     19  C   UNL     1       9.702  10.731  19.410  0.00  0.00    +0.000 A 
ATOM     20  C   UNL     1      10.277  11.453  18.357  0.00  0.00    +0.000 A 
ATOM     21  C   UNL     1      10.718  12.768  18.553  0.00  0.00    +0.000 A 
BRANCH  16  22
ATOM     22  C   UNL     1      11.184  14.744  20.066  0.00  0.00    +0.000 C 
BRANCH  22  23
ATOM     23  C   UNL     1      10.500  15.813  19.235  0.00  0.00    +0.000 C 
ATOM     24  O   UNL     1       9.311  16.092  19.251  0.00  0.00    +0.000 OA
BRANCH  23  26
ATOM     25  C   UNL     1      11.109  16.376  17.058  0.00  0.00    +0.000 C 
ATOM     26  O   UNL     1      11.422  16.447  18.455  0.00  0.00    +0.000 OA
ENDBRANCH  23  26
ENDBRANCH  22  23
ENDBRANCH  16  22
ENDBRANCH  12  19
ENDBRANCH   1  13
BRANCH   9  27
ATOM     27  C   UNL     1       3.216   4.317  17.317  0.00  0.00    +0.000 C 
BRANCH  27  28
ATOM     28  C   UNL     1       2.251   4.997  18.334  0.00  0.00    +0.000 C 
ATOM     29  C   UNL     1       2.663   6.322  18.976  0.00  0.00    +0.000 C 
ATOM     30  C   UNL     1       1.914   6.320  20.286  0.00  0.00    +0.000 C 
ATOM     31  C   UNL     1       1.885   4.852  20.644  0.00  0.00    +0.000 C 
ATOM     32  O   UNL     1       1.952   4.102  19.424  0.00  0.00    +0.000 OA
ENDBRANCH  27  28
ENDBRANCH   9  27
TORSDOF 7
ENDMDL
MODEL 2
REMARK VINA RESULT:      -8.5      0.516      1.220
REMARK  Name = 
REMARK  8 active torsions:
REMARK  status: ('A' for Active; 'I' for Inactive)
REMARK    1  A    between atoms: C_1  and  O_2
REMARK    2  A    between atoms: O_2  and  C_3
REMARK    3  A    between atoms: C_3  and  C_5
REMARK    4  A    between atoms: C_5  and  C_6
REMARK    5  A    between atoms: C_9  and  N_10
REMARK    6  A    between atoms: C_11  and  C_13
REMARK    7  A    between atoms: N_21  and  C_22
REMARK    8  A    between atoms: C_22  and  C_23
REMARK                            x       y       z     vdW  Elec       q    Type
REMARK                         _______ _______ _______ _____ _____    ______ ____
ROOT
ATOM      1  C   UNL     1       7.849   7.446  18.222  0.00  0.00    +0.000 A 
ATOM      2  C   UNL     1       8.235   6.509  19.210  0.00  0.00    +0.000 A 
ATOM      3  C   UNL     1       7.538   5.294  19.350  0.00  0.00    +0.000 A 
ATOM      4  C   UNL     1       6.508   5.049  18.461  0.00  0.00    +0.000 A 
ATOM      5  C   UNL     1       6.314   5.864  17.368  0.00  0.00    +0.000 A 
ATOM      6  C   UNL     1       6.928   7.085  17.236  0.00  0.00    +0.000 A 
ATOM      7  C   UNL     1       5.192   5.348  16.616  0.00  0.00    +0.000 C 
ATOM      8  O   UNL     1       4.955   5.631  15.460  0.00  0.00    +0.000 OA
ATOM      9  N   UNL     1       4.524   4.531  17.469  0.00  0.00    +0.000 N 
ATOM     10  C   UNL     1       5.322   4.173  18.528  0.00  0.00    +0.000 C 
ATOM     11  O   UNL     1       5.130   3.356  19.408  0.00  0.00    +0.000 OA
ENDROOT
BRANCH   1  13
ATOM     12  N   UNL     1       9.227   9.254  19.132  0.00  0.00    +0.000 N 
ATOM     13  C   UNL     1       8.251   8.884  18.222  0.00  0.00    +0.000 C 
ATOM     14  O   UNL     1       7.632   9.631  17.477  0.00  0.00    +0.000 OA
ATOM     15  H   UNL     1       9.643   8.541  19.714  0.00  0.00    +0.000 HD
BRANCH  12  19
ATOM     16  C   UNL     1      10.407  13.218  20.026  0.00  0.00    +0.000 A 
ATOM     17  C   UNL     1      10.732  12.666  18.788  0.00  0.00    +0.000 A 
ATOM     18  C   UNL     1      10.357  11.357  18.478  0.00  0.00    +0.000 A 
ATOM     19  C   UNL     1       9.653  10.576  19.396  0.00  0.00    +0.000 A 
ATOM     20  C   UNL     1       9.325  11.132  20.639  0.00  0.00    +0.000 A 
ATOM     21  C   UNL     1       9.708  12.441  20.955  0.00  0.00    +0.000 A 
BRANCH  16  22
ATOM     22  C   UNL     1      10.725  14.668  20.308  0.00  0.00    +0.000 C 
BRANCH  22  23
ATOM     23  C   UNL     1      10.265  15.582  19.188  0.00  0.00    +0.000 C 
ATOM     24  O   UNL     1      10.982  16.180  18.400  0.00  0.00    +0.000 OA
BRANCH  23  26
ATOM     25  C   UNL     1       8.403  16.913  18.752  0.00  0.00    +0.000 C 
ATOM     26  O   UNL     1       8.902  15.637  19.173  0.00  0.00    +0.000 OA
ENDBRANCH  23  26
ENDBRANCH  22  23
ENDBRANCH  16  22
ENDBRANCH  12  19
ENDBRANCH   1  13
BRANCH   9  27
ATOM     27  C   UNL     1       3.123   4.200  17.253  0.00  0.00    +0.000 C 
BRANCH  27  28
ATOM     28  C   UNL     1       2.158   4.815  18.311  0.00  0.00    +0.000 C 
ATOM     29  C   UNL     1       2.573   6.092  19.041  0.00  0.00    +0.000 C 
ATOM     30  C   UNL     1       1.819   6.005  20.346  0.00  0.00    +0.000 C 
ATOM     31  C   UNL     1       1.782   4.517  20.605  0.00  0.00    +0.000 C 
ATOM     32  O   UNL     1       1.851   3.850  19.337  0.00  0.00    +0.000 OA
ENDBRANCH  27  28
ENDBRANCH   9  27
TORSDOF 7
ENDMDL
MODEL 3
REMARK VINA RESULT:      -8.1      0.794      1.312
REMARK  Name = 
REMARK  8 active torsions:
REMARK  status: ('A' for Active; 'I' for Inactive)
REMARK    1  A    between atoms: C_1  and  O_2
REMARK    2  A    between atoms: O_2  and  C_3
REMARK    3  A    between atoms: C_3  and  C_5
REMARK    4  A    between atoms: C_5  and  C_6
REMARK    5  A    between atoms: C_9  and  N_10
REMARK    6  A    between atoms: C_11  and  C_13
REMARK    7  A    between atoms: N_21  and  C_22
REMARK    8  A    between atoms: C_22  and  C_23
REMARK                            x       y       z     vdW  Elec       q    Type
REMARK                         _______ _______ _______ _____ _____    ______ ____
ROOT
ATOM      1  C   UNL     1       7.999   7.718  18.246  0.00  0.00    +0.000 A 
ATOM      2  C   UNL     1       8.469   6.742  19.157  0.00  0.00    +0.000 A 
ATOM      3  C   UNL     1       7.800   5.510  19.287  0.00  0.00    +0.000 A 
ATOM      4  C   UNL     1       6.713   5.289  18.463  0.00  0.00    +0.000 A 
ATOM      5  C   UNL     1       6.430   6.151  17.427  0.00  0.00    +0.000 A 
ATOM      6  C   UNL     1       7.016   7.387  17.311  0.00  0.00    +0.000 A 
ATOM      7  C   UNL     1       5.264   5.652  16.732  0.00  0.00    +0.000 C 
ATOM      8  O   UNL     1       4.941   5.985  15.610  0.00  0.00    +0.000 OA
ATOM      9  N   UNL     1       4.671   4.784  17.590  0.00  0.00    +0.000 N 
ATOM     10  C   UNL     1       5.548   4.390  18.570  0.00  0.00    +0.000 C 
ATOM     11  O   UNL     1       5.430   3.530  19.422  0.00  0.00    +0.000 OA
ENDROOT
BRANCH   1  13
ATOM     12  N   UNL     1       9.353   9.518  19.205  0.00  0.00    +0.000 N 
ATOM     13  C   UNL     1       8.381   9.161  18.287  0.00  0.00    +0.000 C 
ATOM     14  O   UNL     1       7.748   9.920  17.566  0.00  0.00    +0.000 OA
ATOM     15  H   UNL     1       9.782   8.795  19.765  0.00  0.00    +0.000 HD
BRANCH  12  19
ATOM     16  C   UNL     1      10.662  13.463  19.998  0.00  0.00    +0.000 A 
ATOM     17  C   UNL     1       9.996  12.747  20.990  0.00  0.00    +0.000 A 
ATOM     18  C   UNL     1       9.551  11.446  20.745  0.00  0.00    +0.000 A 
ATOM     19  C   UNL     1       9.761  10.838  19.506  0.00  0.00    +0.000 A 
ATOM     20  C   UNL     1      10.432  11.558  18.510  0.00  0.00    +0.000 A 
ATOM     21  C   UNL     1      10.871  12.866  18.751  0.00  0.00    +0.000 A 
BRANCH  16  22
ATOM     22  C   UNL     1      11.231  14.828  20.310  0.00  0.00    +0.000 C 
BRANCH  22  23
ATOM     23  C   UNL     1      11.005  15.813  19.178  0.00  0.00    +0.000 C 
ATOM     24  O   UNL     1      11.849  16.225  18.397  0.00  0.00    +0.000 OA
BRANCH  23  26
ATOM     25  C   UNL     1       9.311  16.992  20.260  0.00  0.00    +0.000 C 
ATOM     26  O   UNL     1       9.690  16.176  19.144  0.00  0.00    +0.000 OA
ENDBRANCH  23  26
ENDBRANCH  22  23
ENDBRANCH  16  22
ENDBRANCH  12  19
ENDBRANCH   1  13
BRANCH   9  27
ATOM     27  C   UNL     1       3.263   4.439  17.458  0.00  0.00    +0.000 C 
BRANCH  27  28
ATOM     28  C   UNL     1       2.645   3.802  18.739  0.00  0.00    +0.000 C 
ATOM     29  C   UNL     1       1.345   3.008  18.620  0.00  0.00    +0.000 C 
ATOM     30  C   UNL     1       0.732   3.138  19.993  0.00  0.00    +0.000 C 
ATOM     31  C   UNL     1       1.179   4.516  20.422  0.00  0.00    +0.000 C 
ATOM     32  O   UNL     1       2.407   4.810  19.741  0.00  0.00    +0.000 OA
ENDBRANCH  27  28
ENDBRANCH   9  27
TORSDOF 7
ENDMDL
MODEL 4
REMARK VINA RESULT:      -8.1      0.866      1.392
REMARK  Name = 
REMARK  8 active torsions:
REMARK  status: ('A' for Active; 'I' for Inactive)
REMARK    1  A    between atoms: C_1  and  O_2
REMARK    2  A    between atoms: O_2  and  C_3
REMARK    3  A    between atoms: C_3  and  C_5
REMARK    4  A    between atoms: C_5  and  C_6
REMARK    5  A    between atoms: C_9  and  N_10
REMARK    6  A    between atoms: C_11  and  C_13
REMARK    7  A    between atoms: N_21  and  C_22
REMARK    8  A    between atoms: C_22  and  C_23
REMARK                            x       y       z     vdW  Elec       q    Type
REMARK                         _______ _______ _______ _____ _____    ______ ____
ROOT
ATOM      1  C   UNL     1       8.041   7.783  18.224  0.00  0.00    +0.000 A 
ATOM      2  C   UNL     1       8.521   6.756  19.072  0.00  0.00    +0.000 A 
ATOM      3  C   UNL     1       7.826   5.537  19.176  0.00  0.00    +0.000 A 
ATOM      4  C   UNL     1       6.700   5.380  18.389  0.00  0.00    +0.000 A 
ATOM      5  C   UNL     1       6.399   6.293  17.404  0.00  0.00    +0.000 A 
ATOM      6  C   UNL     1       7.012   7.519  17.317  0.00  0.00    +0.000 A 
ATOM      7  C   UNL     1       5.192   5.855  16.738  0.00  0.00    +0.000 C 
ATOM      8  O   UNL     1       4.833   6.245  15.646  0.00  0.00    +0.000 OA
ATOM      9  N   UNL     1       4.611   4.965  17.581  0.00  0.00    +0.000 N 
ATOM     10  C   UNL     1       5.516   4.506  18.507  0.00  0.00    +0.000 C 
ATOM     11  O   UNL     1       5.411   3.612  19.325  0.00  0.00    +0.000 OA
ENDROOT
BRANCH   1  13
ATOM     12  N   UNL     1       9.349   9.536  19.324  0.00  0.00    +0.000 N 
ATOM     13  C   UNL     1       8.463   9.213  18.311  0.00  0.00    +0.000 C 
ATOM     14  O   UNL     1       7.931   9.994  17.534  0.00  0.00    +0.000 OA
ATOM     15  H   UNL     1       9.695   8.798  19.920  0.00  0.00    +0.000 HD
BRANCH  12  19
ATOM     16  C   UNL     1      10.478  13.458  20.442  0.00  0.00    +0.000 A 
ATOM     17  C   UNL     1      11.074  12.861  19.333  0.00  0.00    +0.000 A 
ATOM     18  C   UNL     1      10.719  11.564  18.953  0.00  0.00    +0.000 A 
ATOM     19  C   UNL     1       9.765  10.842  19.672  0.00  0.00    +0.000 A 
ATOM     20  C   UNL     1       9.167  11.444  20.786  0.00  0.00    +0.000 A 
ATOM     21  C   UNL     1       9.527  12.740  21.174  0.00  0.00    +0.000 A 
BRANCH  16  22
ATOM     22  C   UNL     1      10.794  14.897  20.780  0.00  0.00    +0.000 C 
BRANCH  22  23
ATOM     23  C   UNL     1      10.380  15.847  19.672  0.00  0.00    +0.000 C 
ATOM     24  O   UNL     1       9.238  16.070  19.298  0.00  0.00    +0.000 OA
BRANCH  23  26
ATOM     25  C   UNL     1      11.264  17.817  18.797  0.00  0.00    +0.000 C 
ATOM     26  O   UNL     1      11.487  16.444  19.144  0.00  0.00    +0.000 OA
ENDBRANCH  23  26
ENDBRANCH  22  23
ENDBRANCH  16  22
ENDBRANCH  12  19
ENDBRANCH   1  13
BRANCH   9  27
ATOM     27  C   UNL     1       3.191   4.662  17.493  0.00  0.00    +0.000 C 
BRANCH  27  28
ATOM     28  C   UNL     1       2.629   3.902  18.732  0.00  0.00    +0.000 C 
ATOM     29  C   UNL     1       1.413   2.993  18.557  0.00  0.00    +0.000 C 
ATOM     30  C   UNL     1       0.780   2.991  19.927  0.00  0.00    +0.000 C 
ATOM     31  C   UNL     1       1.087   4.382  20.431  0.00  0.00    +0.000 C 
ATOM     32  O   UNL     1       2.286   4.829  19.782  0.00  0.00    +0.000 OA
ENDBRANCH  27  28
ENDBRANCH   9  27
TORSDOF 7
ENDMDL
MODEL 5
REMARK VINA RESULT:      -8.0      1.157      1.697
REMARK  Name = 
REMARK  8 active torsions:
REMARK  status: ('A' for Active; 'I' for Inactive)
REMARK    1  A    between atoms: C_1  and  O_2
REMARK    2  A    between atoms: O_2  and  C_3
REMARK    3  A    between atoms: C_3  and  C_5
REMARK    4  A    between atoms: C_5  and  C_6
REMARK    5  A    between atoms: C_9  and  N_10
REMARK    6  A    between atoms: C_11  and  C_13
REMARK    7  A    between atoms: N_21  and  C_22
REMARK    8  A    between atoms: C_22  and  C_23
REMARK                            x       y       z     vdW  Elec       q    Type
REMARK                         _______ _______ _______ _____ _____    ______ ____
ROOT
ATOM      1  C   UNL     1       8.006   7.700  18.264  0.00  0.00    +0.000 A 
ATOM      2  C   UNL     1       8.462   6.712  19.168  0.00  0.00    +0.000 A 
ATOM      3  C   UNL     1       7.781   5.485  19.285  0.00  0.00    +0.000 A 
ATOM      4  C   UNL     1       6.695   5.282  18.455  0.00  0.00    +0.000 A 
ATOM      5  C   UNL     1       6.425   6.156  17.425  0.00  0.00    +0.000 A 
ATOM      6  C   UNL     1       7.023   7.388  17.322  0.00  0.00    +0.000 A 
ATOM      7  C   UNL     1       5.256   5.675  16.722  0.00  0.00    +0.000 C 
ATOM      8  O   UNL     1       4.941   6.021  15.602  0.00  0.00    +0.000 OA
ATOM      9  N   UNL     1       4.651   4.806  17.570  0.00  0.00    +0.000 N 
ATOM     10  C   UNL     1       5.520   4.394  18.550  0.00  0.00    +0.000 C 
ATOM     11  O   UNL     1       5.391   3.528  19.394  0.00  0.00    +0.000 OA
ENDROOT
BRANCH   1  13
ATOM     12  N   UNL     1       9.357   9.483  19.261  0.00  0.00    +0.000 N 
ATOM     13  C   UNL     1       8.402   9.139  18.319  0.00  0.00    +0.000 C 
ATOM     14  O   UNL     1       7.795   9.908  17.586  0.00  0.00    +0.000 OA
ATOM     15  H   UNL     1       9.764   8.753  19.828  0.00  0.00    +0.000 HD
BRANCH  12  19
ATOM     16  C   UNL     1      10.495  13.422  20.303  0.00  0.00    +0.000 A 
ATOM     17  C   UNL     1      10.892  12.894  19.077  0.00  0.00    +0.000 A 
ATOM     18  C   UNL     1      10.532  11.593  18.718  0.00  0.00    +0.000 A 
ATOM     19  C   UNL     1       9.771  10.797  19.576  0.00  0.00    +0.000 A 
ATOM     20  C   UNL     1       9.371  11.330  20.808  0.00  0.00    +0.000 A 
ATOM     21  C   UNL     1       9.739  12.631  21.173  0.00  0.00    +0.000 A 
BRANCH  16  22
ATOM     22  C   UNL     1      10.801  14.865  20.633  0.00  0.00    +0.000 C 
BRANCH  22  23
ATOM     23  C   UNL     1       9.544  15.710  20.720  0.00  0.00    +0.000 C 
ATOM     24  O   UNL     1       9.052  16.174  21.738  0.00  0.00    +0.000 OA
BRANCH  23  26
ATOM     25  C   UNL     1       7.607  15.735  19.426  0.00  0.00    +0.000 C 
ATOM     26  O   UNL     1       9.031  15.897  19.470  0.00  0.00    +0.000 OA
ENDBRANCH  23  26
ENDBRANCH  22  23
ENDBRANCH  16  22
ENDBRANCH  12  19
ENDBRANCH   1  13
BRANCH   9  27
ATOM     27  C   UNL     1       3.240   4.476  17.429  0.00  0.00    +0.000 C 
BRANCH  27  28
ATOM     28  C   UNL     1       2.630   3.768  18.676  0.00  0.00    +0.000 C 
ATOM     29  C   UNL     1       1.389   2.893  18.499  0.00  0.00    +0.000 C 
ATOM     30  C   UNL     1       0.729   2.949  19.855  0.00  0.00    +0.000 C 
ATOM     31  C   UNL     1       1.071   4.342  20.329  0.00  0.00    +0.000 C 
ATOM     32  O   UNL     1       2.296   4.733  19.693  0.00  0.00    +0.000 OA
ENDBRANCH  27  28
ENDBRANCH   9  27
TORSDOF 7
ENDMDL
MODEL 6
REMARK VINA RESULT:      -7.9      6.007      9.990
REMARK  Name = 
REMARK  8 active torsions:
REMARK  status: ('A' for Active; 'I' for Inactive)
REMARK    1  A    between atoms: C_1  and  O_2
REMARK    2  A    between atoms: O_2  and  C_3
REMARK    3  A    between atoms: C_3  and  C_5
REMARK    4  A    between atoms: C_5  and  C_6
REMARK    5  A    between atoms: C_9  and  N_10
REMARK    6  A    between atoms: C_11  and  C_13
REMARK    7  A    between atoms: N_21  and  C_22
REMARK    8  A    between atoms: C_22  and  C_23
REMARK                            x       y       z     vdW  Elec       q    Type
REMARK                         _______ _______ _______ _____ _____    ______ ____
ROOT
ATOM      1  C   UNL     1       0.864   9.245  19.619  0.00  0.00    +0.000 A 
ATOM      2  C   UNL     1       1.137   9.159  21.005  0.00  0.00    +0.000 A 
ATOM      3  C   UNL     1       0.578  10.092  21.899  0.00  0.00    +0.000 A 
ATOM      4  C   UNL     1      -0.269  11.047  21.370  0.00  0.00    +0.000 A 
ATOM      5  C   UNL     1      -0.703  10.957  20.066  0.00  0.00    +0.000 A 
ATOM      6  C   UNL     1      -0.133  10.105  19.153  0.00  0.00    +0.000 A 
ATOM      7  C   UNL     1      -1.589  12.071  19.809  0.00  0.00    +0.000 C 
ATOM      8  O   UNL     1      -2.376  12.120  18.886  0.00  0.00    +0.000 OA
ATOM      9  N   UNL     1      -1.335  12.974  20.789  0.00  0.00    +0.000 N 
ATOM     10  C   UNL     1      -0.685  12.382  21.844  0.00  0.00    +0.000 C 
ATOM     11  O   UNL     1      -0.419  12.825  22.944  0.00  0.00    +0.000 OA
ENDROOT
BRANCH   1  13
ATOM     12  N   UNL     1       2.176   7.319  18.867  0.00  0.00    +0.000 N 
ATOM     13  C   UNL     1       1.670   8.570  18.558  0.00  0.00    +0.000 C 
ATOM     14  O   UNL     1       1.886   9.209  17.537  0.00  0.00    +0.000 OA
ATOM     15  H   UNL     1       1.946   6.909  19.762  0.00  0.00    +0.000 HD
BRANCH  12  19
ATOM     16  C   UNL     1       4.818   4.961  16.551  0.00  0.00    +0.000 A 
ATOM     17  C   UNL     1       5.027   6.336  16.646  0.00  0.00    +0.000 A 
ATOM     18  C   UNL     1       4.162   7.131  17.401  0.00  0.00    +0.000 A 
ATOM     19  C   UNL     1       3.073   6.570  18.071  0.00  0.00    +0.000 A 
ATOM     20  C   UNL     1       2.865   5.189  17.975  0.00  0.00    +0.000 A 
ATOM     21  C   UNL     1       3.726   4.391  17.212  0.00  0.00    +0.000 A 
BRANCH  16  22
ATOM     22  C   UNL     1       5.820   4.099  15.819  0.00  0.00    +0.000 C 
BRANCH  22  23
ATOM     23  C   UNL     1       7.244   4.585  16.017  0.00  0.00    +0.000 C 
ATOM     24  O   UNL     1       7.929   4.433  17.016  0.00  0.00    +0.000 OA
BRANCH  23  26
ATOM     25  C   UNL     1       6.968   4.801  13.714  0.00  0.00    +0.000 C 
ATOM     26  O   UNL     1       7.670   5.224  14.889  0.00  0.00    +0.000 OA
ENDBRANCH  23  26
ENDBRANCH  22  23
ENDBRANCH  16  22
ENDBRANCH  12  19
ENDBRANCH   1  13
BRANCH   9  27
ATOM     27  C   UNL     1      -1.670  14.381  20.621  0.00  0.00    +0.000 C 
BRANCH  27  28
ATOM     28  C   UNL     1      -0.500  15.247  20.063  0.00  0.00    +0.000 C 
ATOM     29  C   UNL     1       0.366  14.686  18.936  0.00  0.00    +0.000 C 
ATOM     30  C   UNL     1       1.682  15.401  19.122  0.00  0.00    +0.000 C 
ATOM     31  C   UNL     1       1.752  15.574  20.622  0.00  0.00    +0.000 C 
ATOM     32  O   UNL     1       0.408  15.612  21.121  0.00  0.00    +0.000 OA
ENDBRANCH  27  28
ENDBRANCH   9  27
TORSDOF 7
ENDMDL
MODEL 7
REMARK VINA RESULT:      -7.8      6.243      8.427
REMARK  Name = 
REMARK  8 active torsions:
REMARK  status: ('A' for Active; 'I' for Inactive)
REMARK    1  A    between atoms: C_1  and  O_2
REMARK    2  A    between atoms: O_2  and  C_3
REMARK    3  A    between atoms: C_3  and  C_5
REMARK    4  A    between atoms: C_5  and  C_6
REMARK    5  A    between atoms: C_9  and  N_10
REMARK    6  A    between atoms: C_11  and  C_13
REMARK    7  A    between atoms: N_21  and  C_22
REMARK    8  A    between atoms: C_22  and  C_23
REMARK                            x       y       z     vdW  Elec       q    Type
REMARK                         _______ _______ _______ _____ _____    ______ ____
ROOT
ATOM      1  C   UNL     1       2.320   7.927  18.010  0.00  0.00    +0.000 A 
ATOM      2  C   UNL     1       3.666   8.118  17.620  0.00  0.00    +0.000 A 
ATOM      3  C   UNL     1       4.495   7.011  17.357  0.00  0.00    +0.000 A 
ATOM      4  C   UNL     1       3.925   5.756  17.452  0.00  0.00    +0.000 A 
ATOM      5  C   UNL     1       2.563   5.612  17.596  0.00  0.00    +0.000 A 
ATOM      6  C   UNL     1       1.737   6.660  17.919  0.00  0.00    +0.000 A 
ATOM      7  C   UNL     1       2.262   4.198  17.640  0.00  0.00    +0.000 C 
ATOM      8  O   UNL     1       1.161   3.726  17.447  0.00  0.00    +0.000 OA
ATOM      9  N   UNL     1       3.436   3.584  17.932  0.00  0.00    +0.000 N 
ATOM     10  C   UNL     1       4.499   4.415  17.678  0.00  0.00    +0.000 C 
ATOM     11  O   UNL     1       5.692   4.180  17.682  0.00  0.00    +0.000 OA
ENDROOT
BRANCH   1  13
ATOM     12  N   UNL     1       1.534   9.041  20.044  0.00  0.00    +0.000 N 
ATOM     13  C   UNL     1       1.475   8.971  18.663  0.00  0.00    +0.000 C 
ATOM     14  O   UNL     1       0.740   9.623  17.933  0.00  0.00    +0.000 OA
ATOM     15  H   UNL     1       2.165   8.423  20.535  0.00  0.00    +0.000 HD
BRANCH  12  19
ATOM     16  C   UNL     1      -0.828  11.584  22.464  0.00  0.00    +0.000 A 
ATOM     17  C   UNL     1      -0.822  10.212  22.710  0.00  0.00    +0.000 A 
ATOM     18  C   UNL     1      -0.053   9.356  21.917  0.00  0.00    +0.000 A 
ATOM     19  C   UNL     1       0.720   9.853  20.867  0.00  0.00    +0.000 A 
ATOM     20  C   UNL     1       0.713  11.232  20.622  0.00  0.00    +0.000 A 
ATOM     21  C   UNL     1      -0.063  12.090  21.409  0.00  0.00    +0.000 A 
BRANCH  16  22
ATOM     22  C   UNL     1      -1.580  12.509  23.393  0.00  0.00    +0.000 C 
BRANCH  22  23
ATOM     23  C   UNL     1      -3.083  12.383  23.231  0.00  0.00    +0.000 C 
ATOM     24  O   UNL     1      -3.865  11.930  24.053  0.00  0.00    +0.000 OA
BRANCH  23  26
ATOM     25  C   UNL     1      -4.857  12.718  21.758  0.00  0.00    +0.000 C 
ATOM     26  O   UNL     1      -3.455  12.870  22.012  0.00  0.00    +0.000 OA
ENDBRANCH  23  26
ENDBRANCH  22  23
ENDBRANCH  16  22
ENDBRANCH  12  19
ENDBRANCH   1  13
BRANCH   9  27
ATOM     27  C   UNL     1       3.464   2.248  18.510  0.00  0.00    +0.000 C 
BRANCH  27  28
ATOM     28  C   UNL     1       2.956   2.185  19.982  0.00  0.00    +0.000 C 
ATOM     29  C   UNL     1       1.454   2.085  20.245  0.00  0.00    +0.000 C 
ATOM     30  C   UNL     1       1.300   2.702  21.613  0.00  0.00    +0.000 C 
ATOM     31  C   UNL     1       2.380   3.759  21.620  0.00  0.00    +0.000 C 
ATOM     32  O   UNL     1       3.416   3.332  20.724  0.00  0.00    +0.000 OA
ENDBRANCH  27  28
ENDBRANCH   9  27
TORSDOF 7
ENDMDL
MODEL 8
REMARK VINA RESULT:      -7.8      6.427      8.915
REMARK  Name = 
REMARK  8 active torsions:
REMARK  status: ('A' for Active; 'I' for Inactive)
REMARK    1  A    between atoms: C_1  and  O_2
REMARK    2  A    between atoms: O_2  and  C_3
REMARK    3  A    between atoms: C_3  and  C_5
REMARK    4  A    between atoms: C_5  and  C_6
REMARK    5  A    between atoms: C_9  and  N_10
REMARK    6  A    between atoms: C_11  and  C_13
REMARK    7  A    between atoms: N_21  and  C_22
REMARK    8  A    between atoms: C_22  and  C_23
REMARK                            x       y       z     vdW  Elec       q    Type
REMARK                         _______ _______ _______ _____ _____    ______ ____
ROOT
ATOM      1  C   UNL     1       1.108   9.249  20.101  0.00  0.00    +0.000 A 
ATOM      2  C   UNL     1       1.212   9.643  18.746  0.00  0.00    +0.000 A 
ATOM      3  C   UNL     1       1.954   8.869  17.834  0.00  0.00    +0.000 A 
ATOM      4  C   UNL     1       2.524   7.703  18.310  0.00  0.00    +0.000 A 
ATOM      5  C   UNL     1       2.206   7.226  19.562  0.00  0.00    +0.000 A 
ATOM      6  C   UNL     1       1.543   7.982  20.497  0.00  0.00    +0.000 A 
ATOM      7  C   UNL     1       2.929   5.990  19.769  0.00  0.00    +0.000 C 
ATOM      8  O   UNL     1       2.646   5.165  20.613  0.00  0.00    +0.000 OA
ATOM      9  N   UNL     1       3.927   5.993  18.850  0.00  0.00    +0.000 N 
ATOM     10  C   UNL     1       3.663   6.889  17.844  0.00  0.00    +0.000 C 
ATOM     11  O   UNL     1       4.242   7.072  16.790  0.00  0.00    +0.000 OA
ENDROOT
BRANCH   1  13
ATOM     12  N   UNL     1      -0.303  11.077  20.913  0.00  0.00    +0.000 N 
ATOM     13  C   UNL     1       0.682  10.152  21.212  0.00  0.00    +0.000 C 
ATOM     14  O   UNL     1       1.293  10.056  22.267  0.00  0.00    +0.000 OA
ATOM     15  H   UNL     1      -0.711  11.071  19.989  0.00  0.00    +0.000 HD
BRANCH  12  19
ATOM     16  C   UNL     1      -1.765  14.100  23.488  0.00  0.00    +0.000 A 
ATOM     17  C   UNL     1      -0.716  14.387  22.616  0.00  0.00    +0.000 A 
ATOM     18  C   UNL     1      -0.216  13.400  21.764  0.00  0.00    +0.000 A 
ATOM     19  C   UNL     1      -0.752  12.111  21.767  0.00  0.00    +0.000 A 
ATOM     20  C   UNL     1      -1.806  11.825  22.642  0.00  0.00    +0.000 A 
ATOM     21  C   UNL     1      -2.303  12.810  23.504  0.00  0.00    +0.000 A 
BRANCH  16  22
ATOM     22  C   UNL     1      -2.366  15.203  24.328  0.00  0.00    +0.000 C 
BRANCH  22  23
ATOM     23  C   UNL     1      -1.317  15.932  25.148  0.00  0.00    +0.000 C 
ATOM     24  O   UNL     1      -0.425  15.418  25.805  0.00  0.00    +0.000 OA
BRANCH  23  26
ATOM     25  C   UNL     1      -2.337  17.633  23.926  0.00  0.00    +0.000 C 
ATOM     26  O   UNL     1      -1.505  17.279  25.037  0.00  0.00    +0.000 OA
ENDBRANCH  23  26
ENDBRANCH  22  23
ENDBRANCH  16  22
ENDBRANCH  12  19
ENDBRANCH   1  13
BRANCH   9  27
ATOM     27  C   UNL     1       5.120   5.179  19.032  0.00  0.00    +0.000 C 
BRANCH  27  28
ATOM     28  C   UNL     1       4.948   3.695  18.586  0.00  0.00    +0.000 C 
ATOM     29  C   UNL     1       3.790   3.329  17.658  0.00  0.00    +0.000 C 
ATOM     30  C   UNL     1       3.533   1.878  17.980  0.00  0.00    +0.000 C 
ATOM     31  C   UNL     1       3.868   1.804  19.452  0.00  0.00    +0.000 C 
ATOM     32  O   UNL     1       4.827   2.833  19.735  0.00  0.00    +0.000 OA
ENDBRANCH  27  28
ENDBRANCH   9  27
TORSDOF 7
ENDMDL
MODEL 9
REMARK VINA RESULT:      -7.8      6.571      9.071
REMARK  Name = 
REMARK  8 active torsions:
REMARK  status: ('A' for Active; 'I' for Inactive)
REMARK    1  A    between atoms: C_1  and  O_2
REMARK    2  A    between atoms: O_2  and  C_3
REMARK    3  A    between atoms: C_3  and  C_5
REMARK    4  A    between atoms: C_5  and  C_6
REMARK    5  A    between atoms: C_9  and  N_10
REMARK    6  A    between atoms: C_11  and  C_13
REMARK    7  A    between atoms: N_21  and  C_22
REMARK    8  A    between atoms: C_22  and  C_23
REMARK                            x       y       z     vdW  Elec       q    Type
REMARK                         _______ _______ _______ _____ _____    ______ ____
ROOT
ATOM      1  C   UNL     1       1.113   9.197  20.146  0.00  0.00    +0.000 A 
ATOM      2  C   UNL     1       1.213   9.613  18.797  0.00  0.00    +0.000 A 
ATOM      3  C   UNL     1       1.957   8.856  17.872  0.00  0.00    +0.000 A 
ATOM      4  C   UNL     1       2.534   7.686  18.329  0.00  0.00    +0.000 A 
ATOM      5  C   UNL     1       2.221   7.188  19.574  0.00  0.00    +0.000 A 
ATOM      6  C   UNL     1       1.555   7.926  20.521  0.00  0.00    +0.000 A 
ATOM      7  C   UNL     1       2.951   5.954  19.761  0.00  0.00    +0.000 C 
ATOM      8  O   UNL     1       2.674   5.114  20.593  0.00  0.00    +0.000 OA
ATOM      9  N   UNL     1       3.947   5.975  18.841  0.00  0.00    +0.000 N 
ATOM     10  C   UNL     1       3.677   6.886  17.849  0.00  0.00    +0.000 C 
ATOM     11  O   UNL     1       4.253   7.087  16.797  0.00  0.00    +0.000 OA
ENDROOT
BRANCH   1  13
ATOM     12  N   UNL     1      -0.214  11.086  20.959  0.00  0.00    +0.000 N 
ATOM     13  C   UNL     1       0.685  10.081  21.271  0.00  0.00    +0.000 C 
ATOM     14  O   UNL     1       1.223   9.896  22.354  0.00  0.00    +0.000 OA
ATOM     15  H   UNL     1      -0.564  11.149  20.014  0.00  0.00    +0.000 HD
BRANCH  12  19
ATOM     16  C   UNL     1      -1.367  14.227  23.549  0.00  0.00    +0.000 A 
ATOM     17  C   UNL     1      -2.018  12.998  23.627  0.00  0.00    +0.000 A 
ATOM     18  C   UNL     1      -1.655  11.951  22.776  0.00  0.00    +0.000 A 
ATOM     19  C   UNL     1      -0.640  12.114  21.833  0.00  0.00    +0.000 A 
ATOM     20  C   UNL     1       0.014  13.349  21.756  0.00  0.00    +0.000 A 
ATOM     21  C   UNL     1      -0.353  14.403  22.603  0.00  0.00    +0.000 A 
BRANCH  16  22
ATOM     22  C   UNL     1      -1.696  15.315  24.545  0.00  0.00    +0.000 C 
BRANCH  22  23
ATOM     23  C   UNL     1      -2.455  16.464  23.906  0.00  0.00    +0.000 C 
ATOM     24  O   UNL     1      -2.009  17.570  23.645  0.00  0.00    +0.000 OA
BRANCH  23  26
ATOM     25  C   UNL     1      -4.667  16.535  24.633  0.00  0.00    +0.000 C 
ATOM     26  O   UNL     1      -3.737  16.076  23.644  0.00  0.00    +0.000 OA
ENDBRANCH  23  26
ENDBRANCH  22  23
ENDBRANCH  16  22
ENDBRANCH  12  19
ENDBRANCH   1  13
BRANCH   9  27
ATOM     27  C   UNL     1       5.145   5.165  19.008  0.00  0.00    +0.000 C 
BRANCH  27  28
ATOM     28  C   UNL     1       4.969   3.679  18.572  0.00  0.00    +0.000 C 
ATOM     29  C   UNL     1       3.813   3.310  17.643  0.00  0.00    +0.000 C 
ATOM     30  C   UNL     1       3.550   1.861  17.975  0.00  0.00    +0.000 C 
ATOM     31  C   UNL     1       3.881   1.797  19.448  0.00  0.00    +0.000 C 
ATOM     32  O   UNL     1       4.842   2.825  19.726  0.00  0.00    +0.000 OA
ENDBRANCH  27  28
ENDBRANCH   9  27
TORSDOF 7
ENDMDL
