MODEL 1
REMARK VINA RESULT:      -8.3      0.000      0.000
REMARK  Name = 
REMARK  9 active torsions:
REMARK  status: ('A' for Active; 'I' for Inactive)
REMARK    1  A    between atoms: C_1  and  O_2
REMARK    2  A    between atoms: O_2  and  C_3
REMARK    3  A    between atoms: C_8  and  C_9
REMARK    4  A    between atoms: C_9  and  N_10
REMARK    5  A    between atoms: C_13  and  C_14
REMARK    6  A    between atoms: C_14  and  N_15
REMARK    7  A    between atoms: C_16  and  C_18
REMARK    8  A    between atoms: C_20  and  C_21
REMARK    9  A    between atoms: C_25  and  C_26
REMARK                            x       y       z     vdW  Elec       q    Type
REMARK                         _______ _______ _______ _____ _____    ______ ____
ROOT
ATOM      1  N   UNL     1       0.228   9.434  18.714  0.00  0.00    +0.000 N 
ATOM      2  C   UNL     1       1.562   9.510  18.317  0.00  0.00    +0.000 C 
ATOM      3  O   UNL     1       2.049  10.556  17.888  0.00  0.00    +0.000 OA
ATOM      4  H   UNL     1      -0.082   8.545  19.070  0.00  0.00    +0.000 HD
ENDROOT
BRANCH   2   5
ATOM      5  C   UNL     1       2.343   8.273  18.460  0.00  0.00    +0.000 A 
ATOM      6  C   UNL     1       3.410   7.836  17.684  0.00  0.00    +0.000 A 
ATOM      7  C   UNL     1       3.963   6.577  18.115  0.00  0.00    +0.000 A 
ATOM      8  C   UNL     1       3.292   6.121  19.235  0.00  0.00    +0.000 A 
ATOM      9  S   UNL     1       2.019   7.152  19.718  0.00  0.00    +0.000 S 
BRANCH   7  10
ATOM     10  C   UNL     1       5.093   5.834  17.542  0.00  0.00    +0.000 A 
ATOM     11  C   UNL     1       6.186   5.475  18.340  0.00  0.00    +0.000 A 
ATOM     12  C   UNL     1       7.257   4.754  17.800  0.00  0.00    +0.000 A 
ATOM     13  C   UNL     1       7.252   4.381  16.456  0.00  0.00    +0.000 A 
ATOM     14  C   UNL     1       6.174   4.730  15.633  0.00  0.00    +0.000 A 
ATOM     15  C   UNL     1       5.103   5.458  16.187  0.00  0.00    +0.000 A 
BRANCH  14  16
ATOM     16  C   UNL     1       6.143   4.339  14.175  0.00  0.00    +0.000 C 
ATOM     17  F   UNL     1       7.054   5.003  13.410  0.00  0.00    +0.000 F 
ATOM     18  F   UNL     1       6.394   3.014  13.988  0.00  0.00    +0.000 F 
ATOM     19  F   UNL     1       4.931   4.574  13.599  0.00  0.00    +0.000 F 
ENDBRANCH  14  16
ENDBRANCH   7  10
ENDBRANCH   2   5
BRANCH   1  20
ATOM     20  C   UNL     1      -0.649  10.590  18.756  0.00  0.00    +0.000 C 
BRANCH  20  24
ATOM     21  N   UNL     1      -3.794  11.616  16.960  0.00  0.00    +0.000 NA
ATOM     22  C   UNL     1      -2.931  10.980  15.956  0.00  0.00    +0.000 C 
ATOM     23  C   UNL     1      -2.029   9.977  16.669  0.00  0.00    +0.000 C 
ATOM     24  C   UNL     1      -2.045  10.373  18.141  0.00  0.00    +0.000 C 
ATOM     25  C   UNL     1      -3.010  11.564  18.219  0.00  0.00    +0.000 C 
BRANCH  21  26
ATOM     26  C   UNL     1      -5.139  10.999  17.089  0.00  0.00    +0.000 C 
BRANCH  26  32
ATOM     27  C   UNL     1      -6.310  12.583  18.747  0.00  0.00    +0.000 A 
ATOM     28  C   UNL     1      -7.084  12.835  19.894  0.00  0.00    +0.000 A 
ATOM     29  C   UNL     1      -7.582  11.783  20.654  0.00  0.00    +0.000 A 
ATOM     30  C   UNL     1      -7.309  10.478  20.258  0.00  0.00    +0.000 A 
ATOM     31  C   UNL     1      -6.487  10.224  19.144  0.00  0.00    +0.000 A 
ATOM     32  C   UNL     1      -5.941  11.268  18.371  0.00  0.00    +0.000 A 
BRANCH  27  34
ATOM     33  C   UNL     1      -7.316  13.841  17.015  0.00  0.00    +0.000 C 
ATOM     34  O   UNL     1      -6.213  13.647  17.885  0.00  0.00    +0.000 OA
ENDBRANCH  27  34
ENDBRANCH  26  32
ENDBRANCH  21  26
ENDBRANCH  20  24
ENDBRANCH   1  20
TORSDOF 8
ENDMDL
MODEL 2
REMARK VINA RESULT:      -8.2      5.522     11.447
REMARK  Name = 
REMARK  9 active torsions:
REMARK  status: ('A' for Active; 'I' for Inactive)
REMARK    1  A    between atoms: C_1  and  O_2
REMARK    2  A    between atoms: O_2  and  C_3
REMARK    3  A    between atoms: C_8  and  C_9
REMARK    4  A    between atoms: C_9  and  N_10
REMARK    5  A    between atoms: C_13  and  C_14
REMARK    6  A    between atoms: C_14  and  N_15
REMARK    7  A    between atoms: C_16  and  C_18
REMARK    8  A    between atoms: C_20  and  C_21
REMARK    9  A    between atoms: C_25  and  C_26
REMARK                            x       y       z     vdW  Elec       q    Type
REMARK                         _______ _______ _______ _____ _____    ______ ____
ROOT
ATOM      1  N   UNL     1       1.359   7.538  20.393  0.00  0.00    +0.000 N 
ATOM      2  C   UNL     1       1.144   8.754  21.040  0.00  0.00    +0.000 C 
ATOM      3  O   UNL     1       1.590   8.972  22.167  0.00  0.00    +0.000 OA
ATOM      4  H   UNL     1       0.975   7.452  19.467  0.00  0.00    +0.000 HD
ENDROOT
BRANCH   2   5
ATOM      5  C   UNL     1       0.373   9.753  20.287  0.00  0.00    +0.000 A 
ATOM      6  C   UNL     1      -0.633   9.535  19.353  0.00  0.00    +0.000 A 
ATOM      7  C   UNL     1      -1.195  10.748  18.814  0.00  0.00    +0.000 A 
ATOM      8  C   UNL     1      -0.594  11.850  19.394  0.00  0.00    +0.000 A 
ATOM      9  S   UNL     1       0.629  11.434  20.511  0.00  0.00    +0.000 S 
BRANCH   7  10
ATOM     10  C   UNL     1      -2.274  10.892  17.827  0.00  0.00    +0.000 A 
ATOM     11  C   UNL     1      -2.128  10.374  16.534  0.00  0.00    +0.000 A 
ATOM     12  C   UNL     1      -3.160  10.497  15.596  0.00  0.00    +0.000 A 
ATOM     13  C   UNL     1      -4.350  11.138  15.936  0.00  0.00    +0.000 A 
ATOM     14  C   UNL     1      -4.522  11.670  17.220  0.00  0.00    +0.000 A 
ATOM     15  C   UNL     1      -3.476  11.543  18.155  0.00  0.00    +0.000 A 
BRANCH  14  16
ATOM     16  C   UNL     1      -5.801  12.369  17.614  0.00  0.00    +0.000 C 
ATOM     17  F   UNL     1      -6.889  11.550  17.637  0.00  0.00    +0.000 F 
ATOM     18  F   UNL     1      -5.727  12.925  18.855  0.00  0.00    +0.000 F 
ATOM     19  F   UNL     1      -6.119  13.388  16.768  0.00  0.00    +0.000 F 
ENDBRANCH  14  16
ENDBRANCH   7  10
ENDBRANCH   2   5
BRANCH   1  20
ATOM     20  C   UNL     1       2.202   6.490  20.940  0.00  0.00    +0.000 C 
BRANCH  20  24
ATOM     21  N   UNL     1       2.788   3.628  18.568  0.00  0.00    +0.000 NA
ATOM     22  C   UNL     1       2.302   4.750  17.754  0.00  0.00    +0.000 C 
ATOM     23  C   UNL     1       2.692   6.050  18.450  0.00  0.00    +0.000 C 
ATOM     24  C   UNL     1       2.990   5.675  19.898  0.00  0.00    +0.000 C 
ATOM     25  C   UNL     1       2.811   4.151  19.956  0.00  0.00    +0.000 C 
BRANCH  21  26
ATOM     26  C   UNL     1       4.100   3.081  18.134  0.00  0.00    +0.000 C 
BRANCH  26  32
ATOM     27  C   UNL     1       5.994   4.791  17.790  0.00  0.00    +0.000 A 
ATOM     28  C   UNL     1       6.845   5.560  16.976  0.00  0.00    +0.000 A 
ATOM     29  C   UNL     1       6.778   5.458  15.591  0.00  0.00    +0.000 A 
ATOM     30  C   UNL     1       5.862   4.579  15.024  0.00  0.00    +0.000 A 
ATOM     31  C   UNL     1       4.970   3.852  15.834  0.00  0.00    +0.000 A 
ATOM     32  C   UNL     1       4.990   3.956  17.239  0.00  0.00    +0.000 A 
BRANCH  27  34
ATOM     33  C   UNL     1       7.415   5.591  19.504  0.00  0.00    +0.000 C 
ATOM     34  O   UNL     1       6.407   4.680  19.094  0.00  0.00    +0.000 OA
ENDBRANCH  27  34
ENDBRANCH  26  32
ENDBRANCH  21  26
ENDBRANCH  20  24
ENDBRANCH   1  20
TORSDOF 8
ENDMDL
MODEL 3
REMARK VINA RESULT:      -8.2      3.804      4.647
REMARK  Name = 
REMARK  9 active torsions:
REMARK  status: ('A' for Active; 'I' for Inactive)
REMARK    1  A    between atoms: C_1  and  O_2
REMARK    2  A    between atoms: O_2  and  C_3
REMARK    3  A    between atoms: C_8  and  C_9
REMARK    4  A    between atoms: C_9  and  N_10
REMARK    5  A    between atoms: C_13  and  C_14
REMARK    6  A    between atoms: C_14  and  N_15
REMARK    7  A    between atoms: C_16  and  C_18
REMARK    8  A    between atoms: C_20  and  C_21
REMARK    9  A    between atoms: C_25  and  C_26
REMARK                            x       y       z     vdW  Elec       q    Type
REMARK                         _______ _______ _______ _____ _____    ______ ____
ROOT
ATOM      1  N   UNL     1       2.082   7.226  19.970  0.00  0.00    +0.000 N 
ATOM      2  C   UNL     1       2.201   5.842  20.089  0.00  0.00    +0.000 C 
ATOM      3  O   UNL     1       1.882   5.254  21.122  0.00  0.00    +0.000 OA
ATOM      4  H   UNL     1       2.348   7.622  19.084  0.00  0.00    +0.000 HD
ENDROOT
BRANCH   2   5
ATOM      5  C   UNL     1       2.713   5.140  18.903  0.00  0.00    +0.000 A 
ATOM      6  C   UNL     1       3.837   5.443  18.145  0.00  0.00    +0.000 A 
ATOM      7  C   UNL     1       4.062   4.530  17.051  0.00  0.00    +0.000 A 
ATOM      8  C   UNL     1       3.092   3.545  17.047  0.00  0.00    +0.000 A 
ATOM      9  S   UNL     1       1.934   3.741  18.287  0.00  0.00    +0.000 S 
BRANCH   7  10
ATOM     10  C   UNL     1       5.150   4.540  16.065  0.00  0.00    +0.000 A 
ATOM     11  C   UNL     1       6.419   5.020  16.412  0.00  0.00    +0.000 A 
ATOM     12  C   UNL     1       7.463   5.017  15.479  0.00  0.00    +0.000 A 
ATOM     13  C   UNL     1       7.254   4.534  14.187  0.00  0.00    +0.000 A 
ATOM     14  C   UNL     1       5.993   4.051  13.811  0.00  0.00    +0.000 A 
ATOM     15  C   UNL     1       4.951   4.062  14.758  0.00  0.00    +0.000 A 
BRANCH  14  16
ATOM     16  C   UNL     1       5.740   3.523  12.421  0.00  0.00    +0.000 C 
ATOM     17  F   UNL     1       4.479   3.764  11.963  0.00  0.00    +0.000 F 
ATOM     18  F   UNL     1       6.581   4.067  11.497  0.00  0.00    +0.000 F 
ATOM     19  F   UNL     1       5.915   2.175  12.335  0.00  0.00    +0.000 F 
ENDBRANCH  14  16
ENDBRANCH   7  10
ENDBRANCH   2   5
BRANCH   1  20
ATOM     20  C   UNL     1       1.479   8.057  20.997  0.00  0.00    +0.000 C 
BRANCH  20  24
ATOM     21  N   UNL     1       0.804  11.699  20.332  0.00  0.00    +0.000 NA
ATOM     22  C   UNL     1       1.338  11.141  19.083  0.00  0.00    +0.000 C 
ATOM     23  C   UNL     1       0.992   9.656  19.037  0.00  0.00    +0.000 C 
ATOM     24  C   UNL     1       0.670   9.258  20.473  0.00  0.00    +0.000 C 
ATOM     25  C   UNL     1       0.791  10.558  21.280  0.00  0.00    +0.000 C 
BRANCH  21  26
ATOM     26  C   UNL     1      -0.523  12.351  20.192  0.00  0.00    +0.000 C 
BRANCH  26  32
ATOM     27  C   UNL     1      -0.595  13.515  22.488  0.00  0.00    +0.000 A 
ATOM     28  C   UNL     1      -1.271  13.956  23.640  0.00  0.00    +0.000 A 
ATOM     29  C   UNL     1      -2.640  13.756  23.774  0.00  0.00    +0.000 A 
ATOM     30  C   UNL     1      -3.332  13.120  22.750  0.00  0.00    +0.000 A 
ATOM     31  C   UNL     1      -2.649  12.626  21.623  0.00  0.00    +0.000 A 
ATOM     32  C   UNL     1      -1.257  12.784  21.470  0.00  0.00    +0.000 A 
BRANCH  27  34
ATOM     33  C   UNL     1       0.617  15.487  22.002  0.00  0.00    +0.000 C 
ATOM     34  O   UNL     1       0.632  14.099  22.293  0.00  0.00    +0.000 OA
ENDBRANCH  27  34
ENDBRANCH  26  32
ENDBRANCH  21  26
ENDBRANCH  20  24
ENDBRANCH   1  20
TORSDOF 8
ENDMDL
MODEL 4
REMARK VINA RESULT:      -8.1      2.832      3.896
REMARK  Name = 
REMARK  9 active torsions:
REMARK  status: ('A' for Active; 'I' for Inactive)
REMARK    1  A    between atoms: C_1  and  O_2
REMARK    2  A    between atoms: O_2  and  C_3
REMARK    3  A    between atoms: C_8  and  C_9
REMARK    4  A    between atoms: C_9  and  N_10
REMARK    5  A    between atoms: C_13  and  C_14
REMARK    6  A    between atoms: C_14  and  N_15
REMARK    7  A    between atoms: C_16  and  C_18
REMARK    8  A    between atoms: C_20  and  C_21
REMARK    9  A    between atoms: C_25  and  C_26
REMARK                            x       y       z     vdW  Elec       q    Type
REMARK                         _______ _______ _______ _____ _____    ______ ____
ROOT
ATOM      1  N   UNL     1       2.220   7.132  20.124  0.00  0.00    +0.000 N 
ATOM      2  C   UNL     1       1.965   5.763  20.061  0.00  0.00    +0.000 C 
ATOM      3  O   UNL     1       1.282   5.194  20.913  0.00  0.00    +0.000 OA
ATOM      4  H   UNL     1       2.773   7.518  19.376  0.00  0.00    +0.000 HD
ENDROOT
BRANCH   2   5
ATOM      5  C   UNL     1       2.548   5.056  18.911  0.00  0.00    +0.000 A 
ATOM      6  C   UNL     1       3.682   5.391  18.182  0.00  0.00    +0.000 A 
ATOM      7  C   UNL     1       3.984   4.463  17.122  0.00  0.00    +0.000 A 
ATOM      8  C   UNL     1       3.061   3.434  17.112  0.00  0.00    +0.000 A 
ATOM      9  S   UNL     1       1.854   3.608  18.308  0.00  0.00    +0.000 S 
BRANCH   7  10
ATOM     10  C   UNL     1       5.104   4.498  16.171  0.00  0.00    +0.000 A 
ATOM     11  C   UNL     1       6.360   4.971  16.570  0.00  0.00    +0.000 A 
ATOM     12  C   UNL     1       7.433   4.991  15.671  0.00  0.00    +0.000 A 
ATOM     13  C   UNL     1       7.266   4.540  14.362  0.00  0.00    +0.000 A 
ATOM     14  C   UNL     1       6.020   4.066  13.934  0.00  0.00    +0.000 A 
ATOM     15  C   UNL     1       4.947   4.052  14.847  0.00  0.00    +0.000 A 
BRANCH  14  16
ATOM     16  C   UNL     1       5.812   3.571  12.524  0.00  0.00    +0.000 C 
ATOM     17  F   UNL     1       6.096   2.249  12.358  0.00  0.00    +0.000 F 
ATOM     18  F   UNL     1       4.527   3.732  12.101  0.00  0.00    +0.000 F 
ATOM     19  F   UNL     1       6.587   4.233  11.620  0.00  0.00    +0.000 F 
ENDBRANCH  14  16
ENDBRANCH   7  10
ENDBRANCH   2   5
BRANCH   1  20
ATOM     20  C   UNL     1       1.621   8.001  21.120  0.00  0.00    +0.000 C 
BRANCH  20  24
ATOM     21  N   UNL     1       0.023  11.394  20.797  0.00  0.00    +0.000 NA
ATOM     22  C   UNL     1       0.952  11.262  19.667  0.00  0.00    +0.000 C 
ATOM     23  C   UNL     1       1.093   9.780  19.334  0.00  0.00    +0.000 C 
ATOM     24  C   UNL     1       0.612   9.028  20.569  0.00  0.00    +0.000 C 
ATOM     25  C   UNL     1       0.159  10.121  21.547  0.00  0.00    +0.000 C 
BRANCH  21  26
ATOM     26  C   UNL     1      -1.379  11.688  20.404  0.00  0.00    +0.000 C 
BRANCH  26  32
ATOM     27  C   UNL     1      -3.561  12.905  21.027  0.00  0.00    +0.000 A 
ATOM     28  C   UNL     1      -4.385  13.599  21.931  0.00  0.00    +0.000 A 
ATOM     29  C   UNL     1      -3.965  13.827  23.237  0.00  0.00    +0.000 A 
ATOM     30  C   UNL     1      -2.722  13.352  23.637  0.00  0.00    +0.000 A 
ATOM     31  C   UNL     1      -1.871  12.709  22.719  0.00  0.00    +0.000 A 
ATOM     32  C   UNL     1      -2.253  12.490  21.380  0.00  0.00    +0.000 A 
BRANCH  27  34
ATOM     33  C   UNL     1      -5.619  12.239  20.070  0.00  0.00    +0.000 C 
ATOM     34  O   UNL     1      -4.217  12.409  19.929  0.00  0.00    +0.000 OA
ENDBRANCH  27  34
ENDBRANCH  26  32
ENDBRANCH  21  26
ENDBRANCH  20  24
ENDBRANCH   1  20
TORSDOF 8
ENDMDL
MODEL 5
REMARK VINA RESULT:      -8.1      6.336     12.210
REMARK  Name = 
REMARK  9 active torsions:
REMARK  status: ('A' for Active; 'I' for Inactive)
REMARK    1  A    between atoms: C_1  and  O_2
REMARK    2  A    between atoms: O_2  and  C_3
REMARK    3  A    between atoms: C_8  and  C_9
REMARK    4  A    between atoms: C_9  and  N_10
REMARK    5  A    between atoms: C_13  and  C_14
REMARK    6  A    between atoms: C_14  and  N_15
REMARK    7  A    between atoms: C_16  and  C_18
REMARK    8  A    between atoms: C_20  and  C_21
REMARK    9  A    between atoms: C_25  and  C_26
REMARK                            x       y       z     vdW  Elec       q    Type
REMARK                         _______ _______ _______ _____ _____    ______ ____
ROOT
ATOM      1  N   UNL     1       1.744   8.521  19.206  0.00  0.00    +0.000 N 
ATOM      2  C   UNL     1       0.935   9.655  19.233  0.00  0.00    +0.000 C 
ATOM      3  O   UNL     1       0.721  10.319  18.219  0.00  0.00    +0.000 OA
ATOM      4  H   UNL     1       1.850   8.027  20.077  0.00  0.00    +0.000 HD
ENDROOT
BRANCH   2   5
ATOM      5  C   UNL     1       0.347   9.991  20.538  0.00  0.00    +0.000 A 
ATOM      6  C   UNL     1      -0.350  11.138  20.896  0.00  0.00    +0.000 A 
ATOM      7  C   UNL     1      -0.808  11.135  22.263  0.00  0.00    +0.000 A 
ATOM      8  C   UNL     1      -0.451   9.952  22.881  0.00  0.00    +0.000 A 
ATOM      9  S   UNL     1       0.439   8.907  21.865  0.00  0.00    +0.000 S 
BRANCH   7  10
ATOM     10  C   UNL     1      -1.579  12.168  22.968  0.00  0.00    +0.000 A 
ATOM     11  C   UNL     1      -2.900  11.922  23.364  0.00  0.00    +0.000 A 
ATOM     12  C   UNL     1      -3.632  12.899  24.049  0.00  0.00    +0.000 A 
ATOM     13  C   UNL     1      -3.057  14.133  24.348  0.00  0.00    +0.000 A 
ATOM     14  C   UNL     1      -1.739  14.408  23.960  0.00  0.00    +0.000 A 
ATOM     15  C   UNL     1      -1.013  13.418  23.269  0.00  0.00    +0.000 A 
BRANCH  14  16
ATOM     16  C   UNL     1      -1.092  15.735  24.272  0.00  0.00    +0.000 C 
ATOM     17  F   UNL     1      -0.001  16.008  23.502  0.00  0.00    +0.000 F 
ATOM     18  F   UNL     1      -1.945  16.783  24.093  0.00  0.00    +0.000 F 
ATOM     19  F   UNL     1      -0.666  15.818  25.562  0.00  0.00    +0.000 F 
ENDBRANCH  14  16
ENDBRANCH   7  10
ENDBRANCH   2   5
BRANCH   1  20
ATOM     20  C   UNL     1       2.301   7.978  17.980  0.00  0.00    +0.000 C 
BRANCH  20  24
ATOM     21  N   UNL     1       3.124   4.757  19.745  0.00  0.00    +0.000 NA
ATOM     22  C   UNL     1       1.861   4.529  19.031  0.00  0.00    +0.000 C 
ATOM     23  C   UNL     1       1.825   5.452  17.817  0.00  0.00    +0.000 C 
ATOM     24  C   UNL     1       2.852   6.544  18.092  0.00  0.00    +0.000 C 
ATOM     25  C   UNL     1       3.480   6.164  19.441  0.00  0.00    +0.000 C 
BRANCH  21  26
ATOM     26  C   UNL     1       4.204   3.798  19.398  0.00  0.00    +0.000 C 
BRANCH  26  32
ATOM     27  C   UNL     1       6.324   4.876  18.412  0.00  0.00    +0.000 A 
ATOM     28  C   UNL     1       7.200   5.155  17.348  0.00  0.00    +0.000 A 
ATOM     29  C   UNL     1       6.954   4.642  16.079  0.00  0.00    +0.000 A 
ATOM     30  C   UNL     1       5.834   3.843  15.882  0.00  0.00    +0.000 A 
ATOM     31  C   UNL     1       4.925   3.611  16.931  0.00  0.00    +0.000 A 
ATOM     32  C   UNL     1       5.128   4.141  18.220  0.00  0.00    +0.000 A 
BRANCH  27  34
ATOM     33  C   UNL     1       8.176   5.624  19.681  0.00  0.00    +0.000 C 
ATOM     34  O   UNL     1       6.860   5.095  19.657  0.00  0.00    +0.000 OA
ENDBRANCH  27  34
ENDBRANCH  26  32
ENDBRANCH  21  26
ENDBRANCH  20  24
ENDBRANCH   1  20
TORSDOF 8
ENDMDL
MODEL 6
REMARK VINA RESULT:      -8.1      3.371      4.551
REMARK  Name = 
REMARK  9 active torsions:
REMARK  status: ('A' for Active; 'I' for Inactive)
REMARK    1  A    between atoms: C_1  and  O_2
REMARK    2  A    between atoms: O_2  and  C_3
REMARK    3  A    between atoms: C_8  and  C_9
REMARK    4  A    between atoms: C_9  and  N_10
REMARK    5  A    between atoms: C_13  and  C_14
REMARK    6  A    between atoms: C_14  and  N_15
REMARK    7  A    between atoms: C_16  and  C_18
REMARK    8  A    between atoms: C_20  and  C_21
REMARK    9  A    between atoms: C_25  and  C_26
REMARK                            x       y       z     vdW  Elec       q    Type
REMARK                         _______ _______ _______ _____ _____    ______ ____
ROOT
ATOM      1  N   UNL     1       2.405   6.974  20.103  0.00  0.00    +0.000 N 
ATOM      2  C   UNL     1       2.079   5.623  19.992  0.00  0.00    +0.000 C 
ATOM      3  O   UNL     1       1.176   5.120  20.660  0.00  0.00    +0.000 OA
ATOM      4  H   UNL     1       3.144   7.305  19.506  0.00  0.00    +0.000 HD
ENDROOT
BRANCH   2   5
ATOM      5  C   UNL     1       2.868   4.852  19.021  0.00  0.00    +0.000 A 
ATOM      6  C   UNL     1       3.755   5.330  18.064  0.00  0.00    +0.000 A 
ATOM      7  C   UNL     1       4.380   4.291  17.282  0.00  0.00    +0.000 A 
ATOM      8  C   UNL     1       3.946   3.050  17.709  0.00  0.00    +0.000 A 
ATOM      9  S   UNL     1       2.799   3.139  18.971  0.00  0.00    +0.000 S 
BRANCH   7  10
ATOM     10  C   UNL     1       5.368   4.431  16.205  0.00  0.00    +0.000 A 
ATOM     11  C   UNL     1       6.602   5.047  16.448  0.00  0.00    +0.000 A 
ATOM     12  C   UNL     1       7.552   5.168  15.427  0.00  0.00    +0.000 A 
ATOM     13  C   UNL     1       7.284   4.676  14.151  0.00  0.00    +0.000 A 
ATOM     14  C   UNL     1       6.057   4.058  13.877  0.00  0.00    +0.000 A 
ATOM     15  C   UNL     1       5.107   3.944  14.912  0.00  0.00    +0.000 A 
BRANCH  14  16
ATOM     16  C   UNL     1       5.741   3.516  12.505  0.00  0.00    +0.000 C 
ATOM     17  F   UNL     1       5.887   2.165  12.401  0.00  0.00    +0.000 F 
ATOM     18  F   UNL     1       4.460   3.782  12.124  0.00  0.00    +0.000 F 
ATOM     19  F   UNL     1       6.536   4.052  11.538  0.00  0.00    +0.000 F 
ENDBRANCH  14  16
ENDBRANCH   7  10
ENDBRANCH   2   5
BRANCH   1  20
ATOM     20  C   UNL     1       1.646   7.903  20.920  0.00  0.00    +0.000 C 
BRANCH  20  24
ATOM     21  N   UNL     1       0.817  11.352  19.662  0.00  0.00    +0.000 NA
ATOM     22  C   UNL     1       1.548  10.679  18.580  0.00  0.00    +0.000 C 
ATOM     23  C   UNL     1       1.314   9.177  18.707  0.00  0.00    +0.000 C 
ATOM     24  C   UNL     1       0.832   8.949  20.135  0.00  0.00    +0.000 C 
ATOM     25  C   UNL     1       0.756  10.351  20.756  0.00  0.00    +0.000 C 
BRANCH  21  26
ATOM     26  C   UNL     1      -0.522  11.862  19.269  0.00  0.00    +0.000 C 
BRANCH  26  32
ATOM     27  C   UNL     1      -1.693  13.798  20.499  0.00  0.00    +0.000 A 
ATOM     28  C   UNL     1      -1.934  15.165  20.725  0.00  0.00    +0.000 A 
ATOM     29  C   UNL     1      -1.251  16.132  19.996  0.00  0.00    +0.000 A 
ATOM     30  C   UNL     1      -0.322  15.726  19.045  0.00  0.00    +0.000 A 
ATOM     31  C   UNL     1      -0.121  14.359  18.776  0.00  0.00    +0.000 A 
ATOM     32  C   UNL     1      -0.819  13.355  19.475  0.00  0.00    +0.000 A 
BRANCH  27  34
ATOM     33  C   UNL     1      -3.516  12.823  21.648  0.00  0.00    +0.000 C 
ATOM     34  O   UNL     1      -2.112  12.974  21.514  0.00  0.00    +0.000 OA
ENDBRANCH  27  34
ENDBRANCH  26  32
ENDBRANCH  21  26
ENDBRANCH  20  24
ENDBRANCH   1  20
TORSDOF 8
ENDMDL
MODEL 7
REMARK VINA RESULT:      -8.1      3.370      4.232
REMARK  Name = 
REMARK  9 active torsions:
REMARK  status: ('A' for Active; 'I' for Inactive)
REMARK    1  A    between atoms: C_1  and  O_2
REMARK    2  A    between atoms: O_2  and  C_3
REMARK    3  A    between atoms: C_8  and  C_9
REMARK    4  A    between atoms: C_9  and  N_10
REMARK    5  A    between atoms: C_13  and  C_14
REMARK    6  A    between atoms: C_14  and  N_15
REMARK    7  A    between atoms: C_16  and  C_18
REMARK    8  A    between atoms: C_20  and  C_21
REMARK    9  A    between atoms: C_25  and  C_26
REMARK                            x       y       z     vdW  Elec       q    Type
REMARK                         _______ _______ _______ _____ _____    ______ ____
ROOT
ATOM      1  N   UNL     1      -0.112  10.004  21.398  0.00  0.00    +0.000 N 
ATOM      2  C   UNL     1       1.116   9.345  21.435  0.00  0.00    +0.000 C 
ATOM      3  O   UNL     1       1.788   9.292  22.465  0.00  0.00    +0.000 OA
ATOM      4  H   UNL     1      -0.604   9.982  20.520  0.00  0.00    +0.000 HD
ENDROOT
BRANCH   2   5
ATOM      5  C   UNL     1       1.540   8.711  20.179  0.00  0.00    +0.000 A 
ATOM      6  C   UNL     1       2.025   7.423  19.989  0.00  0.00    +0.000 A 
ATOM      7  C   UNL     1       2.332   7.117  18.613  0.00  0.00    +0.000 A 
ATOM      8  C   UNL     1       2.037   8.201  17.808  0.00  0.00    +0.000 A 
ATOM      9  S   UNL     1       1.453   9.546  18.683  0.00  0.00    +0.000 S 
BRANCH   7  10
ATOM     10  C   UNL     1       2.845   5.860  18.052  0.00  0.00    +0.000 A 
ATOM     11  C   UNL     1       2.102   4.678  18.160  0.00  0.00    +0.000 A 
ATOM     12  C   UNL     1       2.582   3.482  17.614  0.00  0.00    +0.000 A 
ATOM     13  C   UNL     1       3.808   3.450  16.951  0.00  0.00    +0.000 A 
ATOM     14  C   UNL     1       4.575   4.616  16.832  0.00  0.00    +0.000 A 
ATOM     15  C   UNL     1       4.083   5.813  17.388  0.00  0.00    +0.000 A 
BRANCH  14  16
ATOM     16  C   UNL     1       5.906   4.609  16.120  0.00  0.00    +0.000 C 
ATOM     17  F   UNL     1       6.108   5.697  15.324  0.00  0.00    +0.000 F 
ATOM     18  F   UNL     1       6.957   4.581  16.985  0.00  0.00    +0.000 F 
ATOM     19  F   UNL     1       6.059   3.523  15.313  0.00  0.00    +0.000 F 
ENDBRANCH  14  16
ENDBRANCH   7  10
ENDBRANCH   2   5
BRANCH   1  20
ATOM     20  C   UNL     1      -0.738  10.575  22.577  0.00  0.00    +0.000 C 
BRANCH  20  24
ATOM     21  N   UNL     1      -2.715  13.613  23.588  0.00  0.00    +0.000 NA
ATOM     22  C   UNL     1      -1.316  14.046  23.477  0.00  0.00    +0.000 C 
ATOM     23  C   UNL     1      -0.616  13.146  22.464  0.00  0.00    +0.000 C 
ATOM     24  C   UNL     1      -1.487  11.900  22.342  0.00  0.00    +0.000 C 
ATOM     25  C   UNL     1      -2.690  12.168  23.257  0.00  0.00    +0.000 C 
BRANCH  21  26
ATOM     26  C   UNL     1      -3.662  14.385  22.744  0.00  0.00    +0.000 C 
BRANCH  26  32
ATOM     27  C   UNL     1      -5.810  13.117  22.106  0.00  0.00    +0.000 A 
ATOM     28  C   UNL     1      -7.175  12.818  22.269  0.00  0.00    +0.000 A 
ATOM     29  C   UNL     1      -7.916  13.430  23.273  0.00  0.00    +0.000 A 
ATOM     30  C   UNL     1      -7.286  14.337  24.118  0.00  0.00    +0.000 A 
ATOM     31  C   UNL     1      -5.936  14.681  23.921  0.00  0.00    +0.000 A 
ATOM     32  C   UNL     1      -5.164  14.102  22.894  0.00  0.00    +0.000 A 
BRANCH  27  34
ATOM     33  C   UNL     1      -5.166  12.355  19.962  0.00  0.00    +0.000 C 
ATOM     34  O   UNL     1      -5.113  12.192  21.370  0.00  0.00    +0.000 OA
ENDBRANCH  27  34
ENDBRANCH  26  32
ENDBRANCH  21  26
ENDBRANCH  20  24
ENDBRANCH   1  20
TORSDOF 8
ENDMDL
MODEL 8
REMARK VINA RESULT:      -8.0      2.787      3.901
REMARK  Name = 
REMARK  9 active torsions:
REMARK  status: ('A' for Active; 'I' for Inactive)
REMARK    1  A    between atoms: C_1  and  O_2
REMARK    2  A    between atoms: O_2  and  C_3
REMARK    3  A    between atoms: C_8  and  C_9
REMARK    4  A    between atoms: C_9  and  N_10
REMARK    5  A    between atoms: C_13  and  C_14
REMARK    6  A    between atoms: C_14  and  N_15
REMARK    7  A    between atoms: C_16  and  C_18
REMARK    8  A    between atoms: C_20  and  C_21
REMARK    9  A    between atoms: C_25  and  C_26
REMARK                            x       y       z     vdW  Elec       q    Type
REMARK                         _______ _______ _______ _____ _____    ______ ____
ROOT
ATOM      1  N   UNL     1      -0.107  11.655  21.258  0.00  0.00    +0.000 N 
ATOM      2  C   UNL     1       0.093  10.279  21.361  0.00  0.00    +0.000 C 
ATOM      3  O   UNL     1      -0.331   9.636  22.321  0.00  0.00    +0.000 OA
ATOM      4  H   UNL     1       0.258  12.098  20.431  0.00  0.00    +0.000 HD
ENDROOT
BRANCH   2   5
ATOM      5  C   UNL     1       0.824   9.654  20.249  0.00  0.00    +0.000 A 
ATOM      6  C   UNL     1       1.445   8.411  20.222  0.00  0.00    +0.000 A 
ATOM      7  C   UNL     1       2.057   8.098  18.954  0.00  0.00    +0.000 A 
ATOM      8  C   UNL     1       1.847   9.128  18.057  0.00  0.00    +0.000 A 
ATOM      9  S   UNL     1       0.982  10.437  18.731  0.00  0.00    +0.000 S 
BRANCH   7  10
ATOM     10  C   UNL     1       2.781   6.879  18.568  0.00  0.00    +0.000 A 
ATOM     11  C   UNL     1       2.582   5.683  19.268  0.00  0.00    +0.000 A 
ATOM     12  C   UNL     1       3.258   4.516  18.893  0.00  0.00    +0.000 A 
ATOM     13  C   UNL     1       4.142   4.528  17.815  0.00  0.00    +0.000 A 
ATOM     14  C   UNL     1       4.364   5.712  17.099  0.00  0.00    +0.000 A 
ATOM     15  C   UNL     1       3.679   6.880  17.487  0.00  0.00    +0.000 A 
BRANCH  14  16
ATOM     16  C   UNL     1       5.315   5.752  15.928  0.00  0.00    +0.000 C 
ATOM     17  F   UNL     1       5.010   6.707  15.006  0.00  0.00    +0.000 F 
ATOM     18  F   UNL     1       6.599   6.001  16.310  0.00  0.00    +0.000 F 
ATOM     19  F   UNL     1       5.352   4.574  15.246  0.00  0.00    +0.000 F 
ENDBRANCH  14  16
ENDBRANCH   7  10
ENDBRANCH   2   5
BRANCH   1  20
ATOM     20  C   UNL     1      -0.912  12.408  22.202  0.00  0.00    +0.000 C 
BRANCH  20  24
ATOM     21  N   UNL     1      -4.408  13.800  22.266  0.00  0.00    +0.000 NA
ATOM     22  C   UNL     1      -3.502  14.948  22.405  0.00  0.00    +0.000 C 
ATOM     23  C   UNL     1      -2.181  14.598  21.725  0.00  0.00    +0.000 C 
ATOM     24  C   UNL     1      -2.164  13.079  21.604  0.00  0.00    +0.000 C 
ATOM     25  C   UNL     1      -3.513  12.621  22.175  0.00  0.00    +0.000 C 
BRANCH  21  26
ATOM     26  C   UNL     1      -5.351  13.902  21.122  0.00  0.00    +0.000 C 
BRANCH  26  32
ATOM     27  C   UNL     1      -6.959  11.900  20.927  0.00  0.00    +0.000 A 
ATOM     28  C   UNL     1      -7.426  10.735  20.293  0.00  0.00    +0.000 A 
ATOM     29  C   UNL     1      -6.827  10.281  19.122  0.00  0.00    +0.000 A 
ATOM     30  C   UNL     1      -5.766  11.001  18.585  0.00  0.00    +0.000 A 
ATOM     31  C   UNL     1      -5.260  12.134  19.249  0.00  0.00    +0.000 A 
ATOM     32  C   UNL     1      -5.823  12.602  20.453  0.00  0.00    +0.000 A 
BRANCH  27  34
ATOM     33  C   UNL     1      -7.787  11.948  23.142  0.00  0.00    +0.000 C 
ATOM     34  O   UNL     1      -7.845  12.453  21.817  0.00  0.00    +0.000 OA
ENDBRANCH  27  34
ENDBRANCH  26  32
ENDBRANCH  21  26
ENDBRANCH  20  24
ENDBRANCH   1  20
TORSDOF 8
ENDMDL
MODEL 9
REMARK VINA RESULT:      -8.0      2.624      3.452
REMARK  Name = 
REMARK  9 active torsions:
REMARK  status: ('A' for Active; 'I' for Inactive)
REMARK    1  A    between atoms: C_1  and  O_2
REMARK    2  A    between atoms: O_2  and  C_3
REMARK    3  A    between atoms: C_8  and  C_9
REMARK    4  A    between atoms: C_9  and  N_10
REMARK    5  A    between atoms: C_13  and  C_14
REMARK    6  A    between atoms: C_14  and  N_15
REMARK    7  A    between atoms: C_16  and  C_18
REMARK    8  A    between atoms: C_20  and  C_21
REMARK    9  A    between atoms: C_25  and  C_26
REMARK                            x       y       z     vdW  Elec       q    Type
REMARK                         _______ _______ _______ _____ _____    ______ ____
ROOT
ATOM      1  N   UNL     1       1.103  11.388  19.895  0.00  0.00    +0.000 N 
ATOM      2  C   UNL     1       0.701  10.391  19.007  0.00  0.00    +0.000 C 
ATOM      3  O   UNL     1      -0.116  10.615  18.114  0.00  0.00    +0.000 OA
ATOM      4  H   UNL     1       1.788  11.122  20.583  0.00  0.00    +0.000 HD
ENDROOT
BRANCH   2   5
ATOM      5  C   UNL     1       1.325   9.074  19.198  0.00  0.00    +0.000 A 
ATOM      6  C   UNL     1       2.017   8.309  18.267  0.00  0.00    +0.000 A 
ATOM      7  C   UNL     1       2.519   7.066  18.797  0.00  0.00    +0.000 A 
ATOM      8  C   UNL     1       2.198   6.956  20.137  0.00  0.00    +0.000 A 
ATOM      9  S   UNL     1       1.291   8.281  20.719  0.00  0.00    +0.000 S 
BRANCH   7  10
ATOM     10  C   UNL     1       3.298   6.029  18.106  0.00  0.00    +0.000 A 
ATOM     11  C   UNL     1       2.718   4.792  17.797  0.00  0.00    +0.000 A 
ATOM     12  C   UNL     1       3.453   3.808  17.125  0.00  0.00    +0.000 A 
ATOM     13  C   UNL     1       4.776   4.045  16.754  0.00  0.00    +0.000 A 
ATOM     14  C   UNL     1       5.383   5.272  17.054  0.00  0.00    +0.000 A 
ATOM     15  C   UNL     1       4.634   6.253  17.732  0.00  0.00    +0.000 A 
BRANCH  14  16
ATOM     16  C   UNL     1       6.813   5.554  16.664  0.00  0.00    +0.000 C 
ATOM     17  F   UNL     1       7.215   6.827  16.936  0.00  0.00    +0.000 F 
ATOM     18  F   UNL     1       7.697   4.740  17.306  0.00  0.00    +0.000 F 
ATOM     19  F   UNL     1       7.036   5.369  15.333  0.00  0.00    +0.000 F 
ENDBRANCH  14  16
ENDBRANCH   7  10
ENDBRANCH   2   5
BRANCH   1  20
ATOM     20  C   UNL     1       0.681  12.771  19.772  0.00  0.00    +0.000 C 
BRANCH  20  24
ATOM     21  N   UNL     1      -2.732  12.444  21.322  0.00  0.00    +0.000 NA
ATOM     22  C   UNL     1      -1.781  11.887  22.292  0.00  0.00    +0.000 C 
ATOM     23  C   UNL     1      -0.433  12.571  22.086  0.00  0.00    +0.000 C 
ATOM     24  C   UNL     1      -0.485  13.183  20.691  0.00  0.00    +0.000 C 
ATOM     25  C   UNL     1      -1.896  12.868  20.173  0.00  0.00    +0.000 C 
BRANCH  21  26
ATOM     26  C   UNL     1      -3.580  13.540  21.858  0.00  0.00    +0.000 C 
BRANCH  26  32
ATOM     27  C   UNL     1      -6.037  12.878  21.462  0.00  0.00    +0.000 A 
ATOM     28  C   UNL     1      -7.316  12.510  21.916  0.00  0.00    +0.000 A 
ATOM     29  C   UNL     1      -7.566  12.359  23.275  0.00  0.00    +0.000 A 
ATOM     30  C   UNL     1      -6.530  12.572  24.178  0.00  0.00    +0.000 A 
ATOM     31  C   UNL     1      -5.265  12.997  23.731  0.00  0.00    +0.000 A 
ATOM     32  C   UNL     1      -4.987  13.189  22.363  0.00  0.00    +0.000 A 
BRANCH  27  34
ATOM     33  C   UNL     1      -6.290  11.369  19.658  0.00  0.00    +0.000 C 
ATOM     34  O   UNL     1      -5.811  12.617  20.134  0.00  0.00    +0.000 OA
ENDBRANCH  27  34
ENDBRANCH  26  32
ENDBRANCH  21  26
ENDBRANCH  20  24
ENDBRANCH   1  20
TORSDOF 8
ENDMDL
