MODEL 1
REMARK VINA RESULT:      -8.5      0.000      0.000
REMARK  Name = 
REMARK  8 active torsions:
REMARK  status: ('A' for Active; 'I' for Inactive)
REMARK    1  A    between atoms: C_1  and  C_2
REMARK    2  A    between atoms: C_2  and  C_3
REMARK    3  A    between atoms: C_2  and  N_20
REMARK    4  A    between atoms: N_5  and  C_6
REMARK    5  A    between atoms: C_9  and  S_10
REMARK    6  A    between atoms: S_10  and  N_13
REMARK    7  A    between atoms: N_23  and  C_24
REMARK    8  A    between atoms: C_29  and  O_30
REMARK                            x       y       z     vdW  Elec       q    Type
REMARK                         _______ _______ _______ _____ _____    ______ ____
ROOT
ATOM      1  C   UNL     1       7.947   7.955  18.160  0.00  0.00    +0.000 C 
ATOM      2  O   UNL     1       7.812   8.337  16.992  0.00  0.00    +0.000 OA
ATOM      3  N   UNL     1       8.673   8.627  19.127  0.00  0.00    +0.000 N 
ATOM      4  H   UNL     1       8.892   8.094  19.959  0.00  0.00    +0.000 HD
ENDROOT
BRANCH   3   5
ATOM      5  C   UNL     1       9.215   9.932  19.012  0.00  0.00    +0.000 A 
ATOM      6  C   UNL     1       9.285  10.638  17.802  0.00  0.00    +0.000 A 
ATOM      7  C   UNL     1       9.800  11.937  17.745  0.00  0.00    +0.000 A 
ATOM      8  C   UNL     1      10.243  12.556  18.911  0.00  0.00    +0.000 A 
ATOM      9  C   UNL     1      10.193  11.871  20.130  0.00  0.00    +0.000 A 
ATOM     10  C   UNL     1       9.680  10.566  20.175  0.00  0.00    +0.000 A 
BRANCH   8  11
ATOM     11  S   UNL     1      10.914  14.198  18.843  0.00  0.00    +0.000 S 
ATOM     12  O   UNL     1      11.815  14.338  19.966  0.00  0.00    +0.000 OA
ATOM     13  O   UNL     1      11.361  14.457  17.488  0.00  0.00    +0.000 OA
BRANCH  11  14
ATOM     14  N   UNL     1       9.569  15.213  19.125  0.00  0.00    +0.000 NA
ATOM     15  C   UNL     1       8.408  14.620  19.831  0.00  0.00    +0.000 C 
ATOM     16  C   UNL     1       7.365  14.371  18.760  0.00  0.00    +0.000 C 
ATOM     17  C   UNL     1       7.580  15.493  17.766  0.00  0.00    +0.000 C 
ATOM     18  C   UNL     1       9.051  15.873  17.888  0.00  0.00    +0.000 C 
ENDBRANCH  11  14
ENDBRANCH   8  11
ENDBRANCH   3   5
BRANCH   1  20
ATOM     19  C   UNL     1       8.348   5.672  19.128  0.00  0.00    +0.000 C 
ATOM     20  C   UNL     1       7.285   6.628  18.572  0.00  0.00    +0.000 C 
BRANCH  20  21
ATOM     21  N   UNL     1       6.467   6.025  17.479  0.00  0.00    +0.000 NA
ATOM     22  C   UNL     1       6.263   4.557  17.719  0.00  0.00    +0.000 C 
ATOM     23  C   UNL     1       5.501   4.225  19.024  0.00  0.00    +0.000 C 
ATOM     24  N   UNL     1       4.191   4.877  19.025  0.00  0.00    +0.000 N 
ATOM     25  C   UNL     1       4.147   6.297  18.636  0.00  0.00    +0.000 C 
ATOM     26  C   UNL     1       5.084   6.597  17.430  0.00  0.00    +0.000 C 
BRANCH  24  27
ATOM     27  C   UNL     1       3.022   4.136  19.126  0.00  0.00    +0.000 A 
ATOM     28  C   UNL     1       2.694   3.209  18.119  0.00  0.00    +0.000 A 
ATOM     29  C   UNL     1       1.505   2.472  18.149  0.00  0.00    +0.000 A 
ATOM     30  C   UNL     1       0.608   2.640  19.198  0.00  0.00    +0.000 A 
ATOM     31  C   UNL     1       0.903   3.536  20.219  0.00  0.00    +0.000 A 
ATOM     32  C   UNL     1       2.096   4.267  20.182  0.00  0.00    +0.000 A 
BRANCH  32  33
ATOM     33  O   UNL     1       2.373   5.096  21.245  0.00  0.00    +0.000 OA
ATOM     34  H   UNL     1       3.220   5.535  21.083  0.00  0.00    +0.000 HD
ENDBRANCH  32  33
ENDBRANCH  24  27
ENDBRANCH  20  21
ENDBRANCH   1  20
TORSDOF 7
ENDMDL
MODEL 2
REMARK VINA RESULT:      -8.5      0.813      1.212
REMARK  Name = 
REMARK  8 active torsions:
REMARK  status: ('A' for Active; 'I' for Inactive)
REMARK    1  A    between atoms: C_1  and  C_2
REMARK    2  A    between atoms: C_2  and  C_3
REMARK    3  A    between atoms: C_2  and  N_20
REMARK    4  A    between atoms: N_5  and  C_6
REMARK    5  A    between atoms: C_9  and  S_10
REMARK    6  A    between atoms: S_10  and  N_13
REMARK    7  A    between atoms: N_23  and  C_24
REMARK    8  A    between atoms: C_29  and  O_30
REMARK                            x       y       z     vdW  Elec       q    Type
REMARK                         _______ _______ _______ _____ _____    ______ ____
ROOT
ATOM      1  C   UNL     1       7.989   7.886  17.997  0.00  0.00    +0.000 C 
ATOM      2  O   UNL     1       8.147   8.078  16.786  0.00  0.00    +0.000 OA
ATOM      3  N   UNL     1       8.468   8.717  18.993  0.00  0.00    +0.000 N 
ATOM      4  H   UNL     1       8.471   8.325  19.926  0.00  0.00    +0.000 HD
ENDROOT
BRANCH   3   5
ATOM      5  C   UNL     1       9.041  10.001  18.810  0.00  0.00    +0.000 A 
ATOM      6  C   UNL     1       8.582  10.926  17.861  0.00  0.00    +0.000 A 
ATOM      7  C   UNL     1       9.159  12.194  17.740  0.00  0.00    +0.000 A 
ATOM      8  C   UNL     1      10.205  12.560  18.584  0.00  0.00    +0.000 A 
ATOM      9  C   UNL     1      10.688  11.653  19.533  0.00  0.00    +0.000 A 
ATOM     10  C   UNL     1      10.105  10.381  19.642  0.00  0.00    +0.000 A 
BRANCH   8  11
ATOM     11  S   UNL     1      10.954  14.161  18.424  0.00  0.00    +0.000 S 
ATOM     12  O   UNL     1      12.333  14.031  18.842  0.00  0.00    +0.000 OA
ATOM     13  O   UNL     1      10.615  14.700  17.121  0.00  0.00    +0.000 OA
BRANCH  11  14
ATOM     14  N   UNL     1      10.147  15.120  19.584  0.00  0.00    +0.000 NA
ATOM     15  C   UNL     1      10.735  15.179  20.943  0.00  0.00    +0.000 C 
ATOM     16  C   UNL     1       9.861  14.287  21.803  0.00  0.00    +0.000 C 
ATOM     17  C   UNL     1       8.478  14.438  21.207  0.00  0.00    +0.000 C 
ATOM     18  C   UNL     1       8.700  14.778  19.738  0.00  0.00    +0.000 C 
ENDBRANCH  11  14
ENDBRANCH   8  11
ENDBRANCH   3   5
BRANCH   1  20
ATOM     19  C   UNL     1       8.219   5.592  18.996  0.00  0.00    +0.000 C 
ATOM     20  C   UNL     1       7.228   6.623  18.438  0.00  0.00    +0.000 C 
BRANCH  20  21
ATOM     21  N   UNL     1       6.349   6.072  17.366  0.00  0.00    +0.000 NA
ATOM     22  C   UNL     1       6.146   4.596  17.555  0.00  0.00    +0.000 C 
ATOM     23  C   UNL     1       5.451   4.214  18.883  0.00  0.00    +0.000 C 
ATOM     24  N   UNL     1       4.147   4.874  18.981  0.00  0.00    +0.000 N 
ATOM     25  C   UNL     1       4.095   6.309  18.655  0.00  0.00    +0.000 C 
ATOM     26  C   UNL     1       4.970   6.653  17.414  0.00  0.00    +0.000 C 
BRANCH  24  27
ATOM     27  C   UNL     1       2.979   4.136  19.113  0.00  0.00    +0.000 A 
ATOM     28  C   UNL     1       2.637   3.190  18.129  0.00  0.00    +0.000 A 
ATOM     29  C   UNL     1       1.448   2.455  18.191  0.00  0.00    +0.000 A 
ATOM     30  C   UNL     1       0.565   2.644  19.248  0.00  0.00    +0.000 A 
ATOM     31  C   UNL     1       0.875   3.560  20.246  0.00  0.00    +0.000 A 
ATOM     32  C   UNL     1       2.068   4.289  20.179  0.00  0.00    +0.000 A 
BRANCH  32  33
ATOM     33  O   UNL     1       2.361   5.138  21.222  0.00  0.00    +0.000 OA
ATOM     34  H   UNL     1       1.700   5.012  21.919  0.00  0.00    +0.000 HD
ENDBRANCH  32  33
ENDBRANCH  24  27
ENDBRANCH  20  21
ENDBRANCH   1  20
TORSDOF 7
ENDMDL
MODEL 3
REMARK VINA RESULT:      -8.4      6.082     10.983
REMARK  Name = 
REMARK  8 active torsions:
REMARK  status: ('A' for Active; 'I' for Inactive)
REMARK    1  A    between atoms: C_1  and  C_2
REMARK    2  A    between atoms: C_2  and  C_3
REMARK    3  A    between atoms: C_2  and  N_20
REMARK    4  A    between atoms: N_5  and  C_6
REMARK    5  A    between atoms: C_9  and  S_10
REMARK    6  A    between atoms: S_10  and  N_13
REMARK    7  A    between atoms: N_23  and  C_24
REMARK    8  A    between atoms: C_29  and  O_30
REMARK                            x       y       z     vdW  Elec       q    Type
REMARK                         _______ _______ _______ _____ _____    ______ ____
ROOT
ATOM      1  C   UNL     1       0.178   8.834  21.394  0.00  0.00    +0.000 C 
ATOM      2  O   UNL     1      -0.740   8.039  21.624  0.00  0.00    +0.000 OA
ATOM      3  N   UNL     1       1.386   8.493  20.812  0.00  0.00    +0.000 N 
ATOM      4  H   UNL     1       2.122   9.182  20.897  0.00  0.00    +0.000 HD
ENDROOT
BRANCH   3   5
ATOM      5  C   UNL     1       1.706   7.248  20.215  0.00  0.00    +0.000 A 
ATOM      6  C   UNL     1       1.630   6.022  20.892  0.00  0.00    +0.000 A 
ATOM      7  C   UNL     1       1.925   4.815  20.250  0.00  0.00    +0.000 A 
ATOM      8  C   UNL     1       2.292   4.819  18.906  0.00  0.00    +0.000 A 
ATOM      9  C   UNL     1       2.384   6.029  18.210  0.00  0.00    +0.000 A 
ATOM     10  C   UNL     1       2.091   7.235  18.865  0.00  0.00    +0.000 A 
BRANCH   8  11
ATOM     11  S   UNL     1       2.685   3.293  18.090  0.00  0.00    +0.000 S 
ATOM     12  O   UNL     1       2.258   2.220  18.961  0.00  0.00    +0.000 OA
ATOM     13  O   UNL     1       2.221   3.373  16.718  0.00  0.00    +0.000 OA
BRANCH  11  14
ATOM     14  N   UNL     1       4.392   3.272  18.037  0.00  0.00    +0.000 NA
ATOM     15  C   UNL     1       5.114   3.736  19.246  0.00  0.00    +0.000 C 
ATOM     16  C   UNL     1       5.617   5.126  18.910  0.00  0.00    +0.000 C 
ATOM     17  C   UNL     1       5.904   5.068  17.425  0.00  0.00    +0.000 C 
ATOM     18  C   UNL     1       4.961   4.008  16.866  0.00  0.00    +0.000 C 
ENDBRANCH  11  14
ENDBRANCH   8  11
ENDBRANCH   3   5
BRANCH   1  20
ATOM     19  C   UNL     1      -0.654  10.375  23.196  0.00  0.00    +0.000 C 
ATOM     20  C   UNL     1      -0.017  10.306  21.802  0.00  0.00    +0.000 C 
BRANCH  20  21
ATOM     21  N   UNL     1      -0.759  11.097  20.778  0.00  0.00    +0.000 NA
ATOM     22  C   UNL     1      -0.979  12.504  21.253  0.00  0.00    +0.000 C 
ATOM     23  C   UNL     1       0.323  13.299  21.513  0.00  0.00    +0.000 C 
ATOM     24  N   UNL     1       1.139  13.346  20.298  0.00  0.00    +0.000 N 
ATOM     25  C   UNL     1       1.329  12.082  19.568  0.00  0.00    +0.000 C 
ATOM     26  C   UNL     1       0.019  11.244  19.507  0.00  0.00    +0.000 C 
BRANCH  24  27
ATOM     27  C   UNL     1       1.490  14.558  19.718  0.00  0.00    +0.000 A 
ATOM     28  C   UNL     1       2.782  15.078  19.917  0.00  0.00    +0.000 A 
ATOM     29  C   UNL     1       3.170  16.317  19.395  0.00  0.00    +0.000 A 
ATOM     30  C   UNL     1       2.271  17.072  18.650  0.00  0.00    +0.000 A 
ATOM     31  C   UNL     1       0.990  16.585  18.420  0.00  0.00    +0.000 A 
ATOM     32  C   UNL     1       0.610  15.343  18.944  0.00  0.00    +0.000 A 
BRANCH  32  33
ATOM     33  O   UNL     1      -0.647  14.875  18.638  0.00  0.00    +0.000 OA
ATOM     34  H   UNL     1      -0.808  15.014  17.693  0.00  0.00    +0.000 HD
ENDBRANCH  32  33
ENDBRANCH  24  27
ENDBRANCH  20  21
ENDBRANCH   1  20
TORSDOF 7
ENDMDL
MODEL 4
REMARK VINA RESULT:      -8.2      8.195     11.552
REMARK  Name = 
REMARK  8 active torsions:
REMARK  status: ('A' for Active; 'I' for Inactive)
REMARK    1  A    between atoms: C_1  and  C_2
REMARK    2  A    between atoms: C_2  and  C_3
REMARK    3  A    between atoms: C_2  and  N_20
REMARK    4  A    between atoms: N_5  and  C_6
REMARK    5  A    between atoms: C_9  and  S_10
REMARK    6  A    between atoms: S_10  and  N_13
REMARK    7  A    between atoms: N_23  and  C_24
REMARK    8  A    between atoms: C_29  and  O_30
REMARK                            x       y       z     vdW  Elec       q    Type
REMARK                         _______ _______ _______ _____ _____    ______ ____
ROOT
ATOM      1  C   UNL     1       0.706  12.080  20.508  0.00  0.00    +0.000 C 
ATOM      2  O   UNL     1       1.729  12.081  21.200  0.00  0.00    +0.000 OA
ATOM      3  N   UNL     1       0.357  11.075  19.623  0.00  0.00    +0.000 N 
ATOM      4  H   UNL     1      -0.372  11.308  18.961  0.00  0.00    +0.000 HD
ENDROOT
BRANCH   3   5
ATOM      5  C   UNL     1       0.991   9.813  19.495  0.00  0.00    +0.000 A 
ATOM      6  C   UNL     1       1.087   8.885  20.542  0.00  0.00    +0.000 A 
ATOM      7  C   UNL     1       1.695   7.639  20.358  0.00  0.00    +0.000 A 
ATOM      8  C   UNL     1       2.208   7.299  19.109  0.00  0.00    +0.000 A 
ATOM      9  C   UNL     1       2.134   8.210  18.050  0.00  0.00    +0.000 A 
ATOM     10  C   UNL     1       1.527   9.460  18.247  0.00  0.00    +0.000 A 
BRANCH   8  11
ATOM     11  S   UNL     1       2.996   5.726  18.873  0.00  0.00    +0.000 S 
ATOM     12  O   UNL     1       3.647   5.765  17.581  0.00  0.00    +0.000 OA
ATOM     13  O   UNL     1       3.738   5.398  20.075  0.00  0.00    +0.000 OA
BRANCH  11  14
ATOM     14  N   UNL     1       1.701   4.618  18.770  0.00  0.00    +0.000 NA
ATOM     15  C   UNL     1       1.206   4.034  20.039  0.00  0.00    +0.000 C 
ATOM     16  C   UNL     1       1.756   2.622  20.078  0.00  0.00    +0.000 C 
ATOM     17  C   UNL     1       1.794   2.199  18.625  0.00  0.00    +0.000 C 
ATOM     18  C   UNL     1       1.957   3.486  17.827  0.00  0.00    +0.000 C 
ENDBRANCH  11  14
ENDBRANCH   8  11
ENDBRANCH   3   5
BRANCH   1  20
ATOM     19  C   UNL     1       0.388  14.502  19.921  0.00  0.00    +0.000 C 
ATOM     20  C   UNL     1      -0.244  13.287  20.612  0.00  0.00    +0.000 C 
BRANCH  20  21
ATOM     21  N   UNL     1      -0.674  13.566  22.013  0.00  0.00    +0.000 NA
ATOM     22  C   UNL     1      -1.740  14.623  22.039  0.00  0.00    +0.000 C 
ATOM     23  C   UNL     1      -3.037  14.237  21.288  0.00  0.00    +0.000 C 
ATOM     24  N   UNL     1      -3.597  13.005  21.845  0.00  0.00    +0.000 N 
ATOM     25  C   UNL     1      -2.666  11.887  22.072  0.00  0.00    +0.000 C 
ATOM     26  C   UNL     1      -1.308  12.372  22.657  0.00  0.00    +0.000 C 
BRANCH  24  27
ATOM     27  C   UNL     1      -4.878  12.979  22.380  0.00  0.00    +0.000 A 
ATOM     28  C   UNL     1      -5.966  12.617  21.565  0.00  0.00    +0.000 A 
ATOM     29  C   UNL     1      -7.283  12.621  22.042  0.00  0.00    +0.000 A 
ATOM     30  C   UNL     1      -7.545  12.985  23.358  0.00  0.00    +0.000 A 
ATOM     31  C   UNL     1      -6.494  13.336  24.197  0.00  0.00    +0.000 A 
ATOM     32  C   UNL     1      -5.181  13.326  23.713  0.00  0.00    +0.000 A 
BRANCH  32  33
ATOM     33  O   UNL     1      -4.169  13.620  24.598  0.00  0.00    +0.000 OA
ATOM     34  H   UNL     1      -4.542  13.667  25.490  0.00  0.00    +0.000 HD
ENDBRANCH  32  33
ENDBRANCH  24  27
ENDBRANCH  20  21
ENDBRANCH   1  20
TORSDOF 7
ENDMDL
MODEL 5
REMARK VINA RESULT:      -8.2      7.992     11.396
REMARK  Name = 
REMARK  8 active torsions:
REMARK  status: ('A' for Active; 'I' for Inactive)
REMARK    1  A    between atoms: C_1  and  C_2
REMARK    2  A    between atoms: C_2  and  C_3
REMARK    3  A    between atoms: C_2  and  N_20
REMARK    4  A    between atoms: N_5  and  C_6
REMARK    5  A    between atoms: C_9  and  S_10
REMARK    6  A    between atoms: S_10  and  N_13
REMARK    7  A    between atoms: N_23  and  C_24
REMARK    8  A    between atoms: C_29  and  O_30
REMARK                            x       y       z     vdW  Elec       q    Type
REMARK                         _______ _______ _______ _____ _____    ______ ____
ROOT
ATOM      1  C   UNL     1       0.902  12.147  20.363  0.00  0.00    +0.000 C 
ATOM      2  O   UNL     1       1.959  12.165  21.004  0.00  0.00    +0.000 OA
ATOM      3  N   UNL     1       0.448  11.067  19.626  0.00  0.00    +0.000 N 
ATOM      4  H   UNL     1      -0.299  11.266  18.974  0.00  0.00    +0.000 HD
ENDROOT
BRANCH   3   5
ATOM      5  C   UNL     1       0.998   9.760  19.629  0.00  0.00    +0.000 A 
ATOM      6  C   UNL     1       1.709   9.216  18.550  0.00  0.00    +0.000 A 
ATOM      7  C   UNL     1       2.261   7.933  18.613  0.00  0.00    +0.000 A 
ATOM      8  C   UNL     1       2.117   7.175  19.773  0.00  0.00    +0.000 A 
ATOM      9  C   UNL     1       1.405   7.691  20.862  0.00  0.00    +0.000 A 
ATOM     10  C   UNL     1       0.851   8.978  20.785  0.00  0.00    +0.000 A 
BRANCH   8  11
ATOM     11  S   UNL     1       2.800   5.539  19.854  0.00  0.00    +0.000 S 
ATOM     12  O   UNL     1       4.203   5.645  19.515  0.00  0.00    +0.000 OA
ATOM     13  O   UNL     1       2.375   4.924  21.096  0.00  0.00    +0.000 OA
BRANCH  11  14
ATOM     14  N   UNL     1       2.021   4.696  18.590  0.00  0.00    +0.000 NA
ATOM     15  C   UNL     1       1.078   3.618  18.974  0.00  0.00    +0.000 C 
ATOM     16  C   UNL     1       1.817   2.320  18.714  0.00  0.00    +0.000 C 
ATOM     17  C   UNL     1       2.695   2.626  17.519  0.00  0.00    +0.000 C 
ATOM     18  C   UNL     1       2.967   4.124  17.583  0.00  0.00    +0.000 C 
ENDBRANCH  11  14
ENDBRANCH   8  11
ENDBRANCH   3   5
BRANCH   1  20
ATOM     19  C   UNL     1       0.780  14.549  19.638  0.00  0.00    +0.000 C 
ATOM     20  C   UNL     1       0.034  13.418  20.358  0.00  0.00    +0.000 C 
BRANCH  20  21
ATOM     21  N   UNL     1      -0.441  13.800  21.719  0.00  0.00    +0.000 NA
ATOM     22  C   UNL     1      -1.598  14.753  21.628  0.00  0.00    +0.000 C 
ATOM     23  C   UNL     1      -2.843  14.175  20.913  0.00  0.00    +0.000 C 
ATOM     24  N   UNL     1      -3.299  12.962  21.593  0.00  0.00    +0.000 N 
ATOM     25  C   UNL     1      -2.275  11.962  21.941  0.00  0.00    +0.000 C 
ATOM     26  C   UNL     1      -0.976  12.627  22.480  0.00  0.00    +0.000 C 
BRANCH  24  27
ATOM     27  C   UNL     1      -4.581  12.875  22.120  0.00  0.00    +0.000 A 
ATOM     28  C   UNL     1      -4.788  13.106  23.492  0.00  0.00    +0.000 A 
ATOM     29  C   UNL     1      -6.052  12.984  24.081  0.00  0.00    +0.000 A 
ATOM     30  C   UNL     1      -7.150  12.629  23.307  0.00  0.00    +0.000 A 
ATOM     31  C   UNL     1      -6.987  12.405  21.944  0.00  0.00    +0.000 A 
ATOM     32  C   UNL     1      -5.721  12.533  21.362  0.00  0.00    +0.000 A 
BRANCH  32  33
ATOM     33  O   UNL     1      -5.621  12.362  20.001  0.00  0.00    +0.000 OA
ATOM     34  H   UNL     1      -4.785  12.749  19.701  0.00  0.00    +0.000 HD
ENDBRANCH  32  33
ENDBRANCH  24  27
ENDBRANCH  20  21
ENDBRANCH   1  20
TORSDOF 7
ENDMDL
MODEL 6
REMARK VINA RESULT:      -8.1      7.088     10.825
REMARK  Name = 
REMARK  8 active torsions:
REMARK  status: ('A' for Active; 'I' for Inactive)
REMARK    1  A    between atoms: C_1  and  C_2
REMARK    2  A    between atoms: C_2  and  C_3
REMARK    3  A    between atoms: C_2  and  N_20
REMARK    4  A    between atoms: N_5  and  C_6
REMARK    5  A    between atoms: C_9  and  S_10
REMARK    6  A    between atoms: S_10  and  N_13
REMARK    7  A    between atoms: N_23  and  C_24
REMARK    8  A    between atoms: C_29  and  O_30
REMARK                            x       y       z     vdW  Elec       q    Type
REMARK                         _______ _______ _______ _____ _____    ______ ____
ROOT
ATOM      1  C   UNL     1       0.598   9.266  19.675  0.00  0.00    +0.000 C 
ATOM      2  O   UNL     1       0.552   8.623  20.730  0.00  0.00    +0.000 OA
ATOM      3  N   UNL     1       1.486   9.021  18.643  0.00  0.00    +0.000 N 
ATOM      4  H   UNL     1       1.569   9.757  17.954  0.00  0.00    +0.000 HD
ENDROOT
BRANCH   3   5
ATOM      5  C   UNL     1       2.349   7.902  18.529  0.00  0.00    +0.000 A 
ATOM      6  C   UNL     1       3.215   7.699  17.445  0.00  0.00    +0.000 A 
ATOM      7  C   UNL     1       4.072   6.594  17.393  0.00  0.00    +0.000 A 
ATOM      8  C   UNL     1       4.081   5.678  18.441  0.00  0.00    +0.000 A 
ATOM      9  C   UNL     1       3.221   5.852  19.531  0.00  0.00    +0.000 A 
ATOM     10  C   UNL     1       2.361   6.960  19.570  0.00  0.00    +0.000 A 
BRANCH   8  11
ATOM     11  S   UNL     1       5.153   4.265  18.374  0.00  0.00    +0.000 S 
ATOM     12  O   UNL     1       6.098   4.496  17.303  0.00  0.00    +0.000 OA
ATOM     13  O   UNL     1       5.605   3.965  19.719  0.00  0.00    +0.000 OA
BRANCH  11  14
ATOM     14  N   UNL     1       4.130   2.983  17.897  0.00  0.00    +0.000 NA
ATOM     15  C   UNL     1       2.931   3.334  17.098  0.00  0.00    +0.000 C 
ATOM     16  C   UNL     1       1.763   3.247  18.060  0.00  0.00    +0.000 C 
ATOM     17  C   UNL     1       2.150   2.138  19.015  0.00  0.00    +0.000 C 
ATOM     18  C   UNL     1       3.674   2.128  19.036  0.00  0.00    +0.000 C 
ENDBRANCH  11  14
ENDBRANCH   8  11
ENDBRANCH   3   5
BRANCH   1  20
ATOM     19  C   UNL     1      -0.907  10.459  18.055  0.00  0.00    +0.000 C 
ATOM     20  C   UNL     1      -0.382  10.439  19.496  0.00  0.00    +0.000 C 
BRANCH  20  21
ATOM     21  N   UNL     1       0.193  11.746  19.930  0.00  0.00    +0.000 NA
ATOM     22  C   UNL     1      -0.849  12.825  19.881  0.00  0.00    +0.000 C 
ATOM     23  C   UNL     1      -2.058  12.586  20.817  0.00  0.00    +0.000 C 
ATOM     24  N   UNL     1      -1.605  12.446  22.203  0.00  0.00    +0.000 N 
ATOM     25  C   UNL     1      -0.456  11.557  22.447  0.00  0.00    +0.000 C 
ATOM     26  C   UNL     1       0.643  11.718  21.357  0.00  0.00    +0.000 C 
BRANCH  24  27
ATOM     27  C   UNL     1      -2.057  13.306  23.194  0.00  0.00    +0.000 A 
ATOM     28  C   UNL     1      -1.237  14.364  23.627  0.00  0.00    +0.000 A 
ATOM     29  C   UNL     1      -1.626  15.229  24.657  0.00  0.00    +0.000 A 
ATOM     30  C   UNL     1      -2.857  15.060  25.280  0.00  0.00    +0.000 A 
ATOM     31  C   UNL     1      -3.701  14.035  24.871  0.00  0.00    +0.000 A 
ATOM     32  C   UNL     1      -3.305  13.176  23.839  0.00  0.00    +0.000 A 
BRANCH  32  33
ATOM     33  O   UNL     1      -4.200  12.215  23.426  0.00  0.00    +0.000 OA
ATOM     34  H   UNL     1      -3.805  11.719  22.694  0.00  0.00    +0.000 HD
ENDBRANCH  32  33
ENDBRANCH  24  27
ENDBRANCH  20  21
ENDBRANCH   1  20
TORSDOF 7
ENDMDL
MODEL 7
REMARK VINA RESULT:      -8.1      5.518     10.753
REMARK  Name = 
REMARK  8 active torsions:
REMARK  status: ('A' for Active; 'I' for Inactive)
REMARK    1  A    between atoms: C_1  and  C_2
REMARK    2  A    between atoms: C_2  and  C_3
REMARK    3  A    between atoms: C_2  and  N_20
REMARK    4  A    between atoms: N_5  and  C_6
REMARK    5  A    between atoms: C_9  and  S_10
REMARK    6  A    between atoms: S_10  and  N_13
REMARK    7  A    between atoms: N_23  and  C_24
REMARK    8  A    between atoms: C_29  and  O_30
REMARK                            x       y       z     vdW  Elec       q    Type
REMARK                         _______ _______ _______ _____ _____    ______ ____
ROOT
ATOM      1  C   UNL     1       0.224   9.059  21.145  0.00  0.00    +0.000 C 
ATOM      2  O   UNL     1      -0.753   8.309  21.238  0.00  0.00    +0.000 OA
ATOM      3  N   UNL     1       1.465   8.679  20.665  0.00  0.00    +0.000 N 
ATOM      4  H   UNL     1       2.224   9.318  20.860  0.00  0.00    +0.000 HD
ENDROOT
BRANCH   3   5
ATOM      5  C   UNL     1       1.777   7.449  20.032  0.00  0.00    +0.000 A 
ATOM      6  C   UNL     1       2.086   7.336  18.669  0.00  0.00    +0.000 A 
ATOM      7  C   UNL     1       2.420   6.104  18.097  0.00  0.00    +0.000 A 
ATOM      8  C   UNL     1       2.460   4.961  18.892  0.00  0.00    +0.000 A 
ATOM      9  C   UNL     1       2.147   5.045  20.253  0.00  0.00    +0.000 A 
ATOM     10  C   UNL     1       1.808   6.285  20.816  0.00  0.00    +0.000 A 
BRANCH   8  11
ATOM     11  S   UNL     1       2.865   3.392  18.170  0.00  0.00    +0.000 S 
ATOM     12  O   UNL     1       2.603   2.380  19.171  0.00  0.00    +0.000 OA
ATOM     13  O   UNL     1       2.256   3.319  16.856  0.00  0.00    +0.000 OA
BRANCH  11  14
ATOM     14  N   UNL     1       4.555   3.462  17.931  0.00  0.00    +0.000 NA
ATOM     15  C   UNL     1       5.356   4.167  18.960  0.00  0.00    +0.000 C 
ATOM     16  C   UNL     1       5.715   5.507  18.348  0.00  0.00    +0.000 C 
ATOM     17  C   UNL     1       5.855   5.213  16.870  0.00  0.00    +0.000 C 
ATOM     18  C   UNL     1       4.946   4.020  16.600  0.00  0.00    +0.000 C 
ENDBRANCH  11  14
ENDBRANCH   8  11
ENDBRANCH   3   5
BRANCH   1  20
ATOM     19  C   UNL     1      -0.539  10.542  23.023  0.00  0.00    +0.000 C 
ATOM     20  C   UNL     1       0.068  10.517  21.615  0.00  0.00    +0.000 C 
BRANCH  20  21
ATOM     21  N   UNL     1      -0.677  11.363  20.638  0.00  0.00    +0.000 NA
ATOM     22  C   UNL     1      -0.629  12.808  21.045  0.00  0.00    +0.000 C 
ATOM     23  C   UNL     1       0.797  13.408  21.094  0.00  0.00    +0.000 C 
ATOM     24  N   UNL     1       1.447  13.276  19.789  0.00  0.00    +0.000 N 
ATOM     25  C   UNL     1       1.357  11.964  19.124  0.00  0.00    +0.000 C 
ATOM     26  C   UNL     1      -0.057  11.333  19.276  0.00  0.00    +0.000 C 
BRANCH  24  27
ATOM     27  C   UNL     1       1.891  14.392  19.094  0.00  0.00    +0.000 A 
ATOM     28  C   UNL     1       1.237  15.626  19.265  0.00  0.00    +0.000 A 
ATOM     29  C   UNL     1       1.615  16.770  18.552  0.00  0.00    +0.000 A 
ATOM     30  C   UNL     1       2.668  16.710  17.647  0.00  0.00    +0.000 A 
ATOM     31  C   UNL     1       3.347  15.512  17.460  0.00  0.00    +0.000 A 
ATOM     32  C   UNL     1       2.965  14.373  18.179  0.00  0.00    +0.000 A 
BRANCH  32  33
ATOM     33  O   UNL     1       3.706  13.227  18.007  0.00  0.00    +0.000 OA
ATOM     34  H   UNL     1       3.510  12.619  18.735  0.00  0.00    +0.000 HD
ENDBRANCH  32  33
ENDBRANCH  24  27
ENDBRANCH  20  21
ENDBRANCH   1  20
TORSDOF 7
ENDMDL
MODEL 8
REMARK VINA RESULT:      -8.0      8.255     11.599
REMARK  Name = 
REMARK  8 active torsions:
REMARK  status: ('A' for Active; 'I' for Inactive)
REMARK    1  A    between atoms: C_1  and  C_2
REMARK    2  A    between atoms: C_2  and  C_3
REMARK    3  A    between atoms: C_2  and  N_20
REMARK    4  A    between atoms: N_5  and  C_6
REMARK    5  A    between atoms: C_9  and  S_10
REMARK    6  A    between atoms: S_10  and  N_13
REMARK    7  A    between atoms: N_23  and  C_24
REMARK    8  A    between atoms: C_29  and  O_30
REMARK                            x       y       z     vdW  Elec       q    Type
REMARK                         _______ _______ _______ _____ _____    ______ ____
ROOT
ATOM      1  C   UNL     1       0.677  11.893  20.383  0.00  0.00    +0.000 C 
ATOM      2  O   UNL     1       1.598  11.897  21.207  0.00  0.00    +0.000 OA
ATOM      3  N   UNL     1       0.410  10.856  19.508  0.00  0.00    +0.000 N 
ATOM      4  H   UNL     1      -0.214  11.079  18.743  0.00  0.00    +0.000 HD
ENDROOT
BRANCH   3   5
ATOM      5  C   UNL     1       1.005   9.569  19.527  0.00  0.00    +0.000 A 
ATOM      6  C   UNL     1       1.733   9.036  18.453  0.00  0.00    +0.000 A 
ATOM      7  C   UNL     1       2.330   7.773  18.532  0.00  0.00    +0.000 A 
ATOM      8  C   UNL     1       2.214   7.027  19.703  0.00  0.00    +0.000 A 
ATOM      9  C   UNL     1       1.485   7.531  20.785  0.00  0.00    +0.000 A 
ATOM     10  C   UNL     1       0.886   8.797  20.693  0.00  0.00    +0.000 A 
BRANCH   8  11
ATOM     11  S   UNL     1       2.953   5.417  19.804  0.00  0.00    +0.000 S 
ATOM     12  O   UNL     1       4.359   5.573  19.500  0.00  0.00    +0.000 OA
ATOM     13  O   UNL     1       2.519   4.788  21.036  0.00  0.00    +0.000 OA
BRANCH  11  14
ATOM     14  N   UNL     1       2.238   4.544  18.521  0.00  0.00    +0.000 NA
ATOM     15  C   UNL     1       1.148   3.602  18.868  0.00  0.00    +0.000 C 
ATOM     16  C   UNL     1       1.768   2.220  18.801  0.00  0.00    +0.000 C 
ATOM     17  C   UNL     1       2.804   2.333  17.702  0.00  0.00    +0.000 C 
ATOM     18  C   UNL     1       3.226   3.797  17.684  0.00  0.00    +0.000 C 
ENDBRANCH  11  14
ENDBRANCH   8  11
ENDBRANCH   3   5
BRANCH   1  20
ATOM     19  C   UNL     1       0.414  14.182  19.383  0.00  0.00    +0.000 C 
ATOM     20  C   UNL     1      -0.229  13.135  20.301  0.00  0.00    +0.000 C 
BRANCH  20  21
ATOM     21  N   UNL     1      -0.594  13.675  21.643  0.00  0.00    +0.000 NA
ATOM     22  C   UNL     1      -1.624  14.760  21.514  0.00  0.00    +0.000 C 
ATOM     23  C   UNL     1      -2.961  14.297  20.888  0.00  0.00    +0.000 C 
ATOM     24  N   UNL     1      -3.538  13.205  21.676  0.00  0.00    +0.000 N 
ATOM     25  C   UNL     1      -2.635  12.110  22.068  0.00  0.00    +0.000 C 
ATOM     26  C   UNL     1      -1.240  12.640  22.511  0.00  0.00    +0.000 C 
BRANCH  24  27
ATOM     27  C   UNL     1      -4.797  13.324  22.249  0.00  0.00    +0.000 A 
ATOM     28  C   UNL     1      -5.904  12.713  21.631  0.00  0.00    +0.000 A 
ATOM     29  C   UNL     1      -7.201  12.842  22.142  0.00  0.00    +0.000 A 
ATOM     30  C   UNL     1      -7.425  13.587  23.294  0.00  0.00    +0.000 A 
ATOM     31  C   UNL     1      -6.354  14.194  23.940  0.00  0.00    +0.000 A 
ATOM     32  C   UNL     1      -5.060  14.057  23.424  0.00  0.00    +0.000 A 
BRANCH  32  33
ATOM     33  O   UNL     1      -4.025  14.624  24.132  0.00  0.00    +0.000 OA
ATOM     34  H   UNL     1      -3.714  13.985  24.790  0.00  0.00    +0.000 HD
ENDBRANCH  32  33
ENDBRANCH  24  27
ENDBRANCH  20  21
ENDBRANCH   1  20
TORSDOF 7
ENDMDL
MODEL 9
REMARK VINA RESULT:      -7.9      7.927     11.195
REMARK  Name = 
REMARK  8 active torsions:
REMARK  status: ('A' for Active; 'I' for Inactive)
REMARK    1  A    between atoms: C_1  and  C_2
REMARK    2  A    between atoms: C_2  and  C_3
REMARK    3  A    between atoms: C_2  and  N_20
REMARK    4  A    between atoms: N_5  and  C_6
REMARK    5  A    between atoms: C_9  and  S_10
REMARK    6  A    between atoms: S_10  and  N_13
REMARK    7  A    between atoms: N_23  and  C_24
REMARK    8  A    between atoms: C_29  and  O_30
REMARK                            x       y       z     vdW  Elec       q    Type
REMARK                         _______ _______ _______ _____ _____    ______ ____
ROOT
ATOM      1  C   UNL     1      -0.318  10.607  19.215  0.00  0.00    +0.000 C 
ATOM      2  O   UNL     1      -1.037   9.916  18.485  0.00  0.00    +0.000 OA
ATOM      3  N   UNL     1       0.873  10.181  19.776  0.00  0.00    +0.000 N 
ATOM      4  H   UNL     1       1.233  10.756  20.526  0.00  0.00    +0.000 HD
ENDROOT
BRANCH   3   5
ATOM      5  C   UNL     1       1.561   8.980  19.470  0.00  0.00    +0.000 A 
ATOM      6  C   UNL     1       1.641   7.888  20.346  0.00  0.00    +0.000 A 
ATOM      7  C   UNL     1       2.304   6.710  19.985  0.00  0.00    +0.000 A 
ATOM      8  C   UNL     1       2.890   6.606  18.726  0.00  0.00    +0.000 A 
ATOM      9  C   UNL     1       2.833   7.684  17.836  0.00  0.00    +0.000 A 
ATOM     10  C   UNL     1       2.170   8.863  18.210  0.00  0.00    +0.000 A 
BRANCH   8  11
ATOM     11  S   UNL     1       3.748   5.122  18.269  0.00  0.00    +0.000 S 
ATOM     12  O   UNL     1       4.209   4.500  19.492  0.00  0.00    +0.000 OA
ATOM     13  O   UNL     1       2.929   4.391  17.321  0.00  0.00    +0.000 OA
BRANCH  11  14
ATOM     14  N   UNL     1       5.121   5.675  17.417  0.00  0.00    +0.000 NA
ATOM     15  C   UNL     1       5.230   5.296  15.988  0.00  0.00    +0.000 C 
ATOM     16  C   UNL     1       6.264   4.188  15.939  0.00  0.00    +0.000 C 
ATOM     17  C   UNL     1       7.230   4.535  17.053  0.00  0.00    +0.000 C 
ATOM     18  C   UNL     1       6.415   5.318  18.074  0.00  0.00    +0.000 C 
ENDBRANCH  11  14
ENDBRANCH   8  11
ENDBRANCH   3   5
BRANCH   1  20
ATOM     19  C   UNL     1      -0.619  12.933  18.315  0.00  0.00    +0.000 C 
ATOM     20  C   UNL     1      -0.782  12.037  19.549  0.00  0.00    +0.000 C 
BRANCH  20  21
ATOM     21  N   UNL     1      -0.122  12.590  20.767  0.00  0.00    +0.000 NA
ATOM     22  C   UNL     1      -0.294  14.080  20.832  0.00  0.00    +0.000 C 
ATOM     23  C   UNL     1      -1.766  14.547  20.922  0.00  0.00    +0.000 C 
ATOM     24  N   UNL     1      -2.414  13.959  22.096  0.00  0.00    +0.000 N 
ATOM     25  C   UNL     1      -2.215  12.517  22.320  0.00  0.00    +0.000 C 
ATOM     26  C   UNL     1      -0.749  12.081  22.028  0.00  0.00    +0.000 C 
BRANCH  24  27
ATOM     27  C   UNL     1      -2.960  14.760  23.089  0.00  0.00    +0.000 A 
ATOM     28  C   UNL     1      -4.296  15.189  22.981  0.00  0.00    +0.000 A 
ATOM     29  C   UNL     1      -4.880  16.037  23.930  0.00  0.00    +0.000 A 
ATOM     30  C   UNL     1      -4.140  16.475  25.022  0.00  0.00    +0.000 A 
ATOM     31  C   UNL     1      -2.821  16.061  25.170  0.00  0.00    +0.000 A 
ATOM     32  C   UNL     1      -2.246  15.211  24.218  0.00  0.00    +0.000 A 
BRANCH  32  33
ATOM     33  O   UNL     1      -0.958  14.778  24.440  0.00  0.00    +0.000 OA
ATOM     34  H   UNL     1      -0.721  14.969  25.359  0.00  0.00    +0.000 HD
ENDBRANCH  32  33
ENDBRANCH  24  27
ENDBRANCH  20  21
ENDBRANCH   1  20
TORSDOF 7
ENDMDL
