MODEL 1
REMARK VINA RESULT:      -7.7      0.000      0.000
REMARK  Name = 
REMARK  4 active torsions:
REMARK  status: ('A' for Active; 'I' for Inactive)
REMARK    1  A    between atoms: C_1  and  C_2
REMARK    2  A    between atoms: C_9  and  O_10
REMARK    3  A    between atoms: C_19  and  C_20
REMARK    4  A    between atoms: C_20  and  O_21
REMARK                            x       y       z     vdW  Elec       q    Type
REMARK                         _______ _______ _______ _____ _____    ______ ____
ROOT
ATOM      1  C   UNL     1       6.257   5.538  14.528  0.00  0.00    +0.000 C 
ATOM      2  C   UNL     1       5.732   5.054  15.885  0.00  0.00    +0.000 C 
ATOM      3  C   UNL     1       5.054   3.703  15.717  0.00  0.00    +0.000 C 
ATOM      4  C   UNL     1       4.465   3.253  17.033  0.00  0.00    +0.000 C 
ATOM      5  C   UNL     1       3.204   4.046  17.372  0.00  0.00    +0.000 C 
ATOM      6  C   UNL     1       2.682   3.670  18.749  0.00  0.00    +0.000 A 
ATOM      7  C   UNL     1       2.907   2.388  19.289  0.00  0.00    +0.000 A 
ATOM      8  C   UNL     1       2.452   2.033  20.558  0.00  0.00    +0.000 A 
ATOM      9  C   UNL     1       1.724   2.954  21.281  0.00  0.00    +0.000 A 
ATOM     10  C   UNL     1       1.403   4.197  20.737  0.00  0.00    +0.000 A 
ATOM     11  C   UNL     1       1.873   4.561  19.459  0.00  0.00    +0.000 A 
ATOM     12  C   UNL     1       1.422   5.831  18.792  0.00  0.00    +0.000 C 
ATOM     13  C   UNL     1       2.554   6.509  18.002  0.00  0.00    +0.000 C 
ATOM     14  C   UNL     1       3.353   5.575  17.060  0.00  0.00    +0.000 C 
ATOM     15  C   UNL     1       4.789   6.125  16.646  0.00  0.00    +0.000 C 
ATOM     16  C   UNL     1       5.694   6.753  17.809  0.00  0.00    +0.000 C 
ATOM     17  C   UNL     1       6.832   5.824  17.897  0.00  0.00    +0.000 A 
ATOM     18  C   UNL     1       7.911   5.444  18.705  0.00  0.00    +0.000 A 
ATOM     19  N   UNL     1       8.560   4.382  18.175  0.00  0.00    +0.000 NA
ATOM     20  N   UNL     1       7.867   4.084  17.052  0.00  0.00    +0.000 N 
ATOM     21  C   UNL     1       6.858   4.957  16.849  0.00  0.00    +0.000 A 
ATOM     22  H   UNL     1       8.119   3.255  16.525  0.00  0.00    +0.000 HD
ENDROOT
BRANCH   9  23
ATOM     23  O   UNL     1       1.288   2.656  22.540  0.00  0.00    +0.000 OA
ATOM     24  H   UNL     1       0.444   3.117  22.682  0.00  0.00    +0.000 HD
ENDBRANCH   9  23
BRANCH  18  25
ATOM     25  C   UNL     1       8.407   6.013  19.993  0.00  0.00    +0.000 C 
BRANCH  25  26
ATOM     26  O   UNL     1       8.178   5.106  21.075  0.00  0.00    +0.000 OA
ATOM     27  H   UNL     1       8.367   4.228  20.682  0.00  0.00    +0.000 HD
ENDBRANCH  25  26
ENDBRANCH  18  25
TORSDOF 3
ENDMDL
MODEL 2
REMARK VINA RESULT:      -6.9      9.511     12.456
REMARK  Name = 
REMARK  4 active torsions:
REMARK  status: ('A' for Active; 'I' for Inactive)
REMARK    1  A    between atoms: C_1  and  C_2
REMARK    2  A    between atoms: C_9  and  O_10
REMARK    3  A    between atoms: C_19  and  C_20
REMARK    4  A    between atoms: C_20  and  O_21
REMARK                            x       y       z     vdW  Elec       q    Type
REMARK                         _______ _______ _______ _____ _____    ______ ____
ROOT
ATOM      1  C   UNL     1      -6.798  13.189  17.435  0.00  0.00    +0.000 C 
ATOM      2  C   UNL     1      -5.896  12.548  18.496  0.00  0.00    +0.000 C 
ATOM      3  C   UNL     1      -5.325  13.629  19.399  0.00  0.00    +0.000 C 
ATOM      4  C   UNL     1      -4.374  13.017  20.401  0.00  0.00    +0.000 C 
ATOM      5  C   UNL     1      -3.055  12.620  19.738  0.00  0.00    +0.000 C 
ATOM      6  C   UNL     1      -2.150  11.901  20.723  0.00  0.00    +0.000 A 
ATOM      7  C   UNL     1      -2.223  12.162  22.106  0.00  0.00    +0.000 A 
ATOM      8  C   UNL     1      -1.413  11.497  23.025  0.00  0.00    +0.000 A 
ATOM      9  C   UNL     1      -0.485  10.592  22.556  0.00  0.00    +0.000 A 
ATOM     10  C   UNL     1      -0.321  10.382  21.186  0.00  0.00    +0.000 A 
ATOM     11  C   UNL     1      -1.148  11.045  20.258  0.00  0.00    +0.000 A 
ATOM     12  C   UNL     1      -0.898  10.948  18.778  0.00  0.00    +0.000 C 
ATOM     13  C   UNL     1      -2.203  10.881  17.968  0.00  0.00    +0.000 C 
ATOM     14  C   UNL     1      -3.265  11.946  18.339  0.00  0.00    +0.000 C 
ATOM     15  C   UNL     1      -4.749  11.582  17.890  0.00  0.00    +0.000 C 
ATOM     16  C   UNL     1      -5.250  10.086  18.164  0.00  0.00    +0.000 C 
ATOM     17  C   UNL     1      -6.325  10.260  19.155  0.00  0.00    +0.000 A 
ATOM     18  C   UNL     1      -7.116   9.574  20.085  0.00  0.00    +0.000 A 
ATOM     19  N   UNL     1      -7.913  10.430  20.764  0.00  0.00    +0.000 NA
ATOM     20  N   UNL     1      -7.596  11.652  20.276  0.00  0.00    +0.000 N 
ATOM     21  C   UNL     1      -6.681  11.566  19.289  0.00  0.00    +0.000 A 
ATOM     22  H   UNL     1      -8.010  12.473  20.703  0.00  0.00    +0.000 HD
ENDROOT
BRANCH   9  23
ATOM     23  O   UNL     1       0.306   9.897  23.425  0.00  0.00    +0.000 OA
ATOM     24  H   UNL     1       0.883  10.532  23.879  0.00  0.00    +0.000 HD
ENDBRANCH   9  23
BRANCH  18  25
ATOM     25  C   UNL     1      -7.190   8.119  20.410  0.00  0.00    +0.000 C 
BRANCH  25  26
ATOM     26  O   UNL     1      -7.788   7.912  21.693  0.00  0.00    +0.000 OA
ATOM     27  H   UNL     1      -8.359   7.126  21.557  0.00  0.00    +0.000 HD
ENDBRANCH  25  26
ENDBRANCH  18  25
TORSDOF 3
ENDMDL
MODEL 3
REMARK VINA RESULT:      -6.8     10.005     12.804
REMARK  Name = 
REMARK  4 active torsions:
REMARK  status: ('A' for Active; 'I' for Inactive)
REMARK    1  A    between atoms: C_1  and  C_2
REMARK    2  A    between atoms: C_9  and  O_10
REMARK    3  A    between atoms: C_19  and  C_20
REMARK    4  A    between atoms: C_20  and  O_21
REMARK                            x       y       z     vdW  Elec       q    Type
REMARK                         _______ _______ _______ _____ _____    ______ ____
ROOT
ATOM      1  C   UNL     1      -5.630  15.173  23.518  0.00  0.00    +0.000 C 
ATOM      2  C   UNL     1      -4.759  14.003  23.044  0.00  0.00    +0.000 C 
ATOM      3  C   UNL     1      -4.116  13.327  24.245  0.00  0.00    +0.000 C 
ATOM      4  C   UNL     1      -3.195  12.222  23.785  0.00  0.00    +0.000 C 
ATOM      5  C   UNL     1      -1.908  12.789  23.187  0.00  0.00    +0.000 C 
ATOM      6  C   UNL     1      -1.039  11.679  22.622  0.00  0.00    +0.000 A 
ATOM      7  C   UNL     1      -1.086  10.374  23.152  0.00  0.00    +0.000 A 
ATOM      8  C   UNL     1      -0.309   9.339  22.633  0.00  0.00    +0.000 A 
ATOM      9  C   UNL     1       0.559   9.619  21.599  0.00  0.00    +0.000 A 
ATOM     10  C   UNL     1       0.699  10.920  21.115  0.00  0.00    +0.000 A 
ATOM     11  C   UNL     1      -0.095  11.963  21.631  0.00  0.00    +0.000 A 
ATOM     12  C   UNL     1       0.137  13.394  21.231  0.00  0.00    +0.000 C 
ATOM     13  C   UNL     1      -1.177  14.180  21.086  0.00  0.00    +0.000 C 
ATOM     14  C   UNL     1      -2.170  14.029  22.265  0.00  0.00    +0.000 C 
ATOM     15  C   UNL     1      -3.677  14.403  21.911  0.00  0.00    +0.000 C 
ATOM     16  C   UNL     1      -4.264  13.843  20.530  0.00  0.00    +0.000 C 
ATOM     17  C   UNL     1      -5.319  12.909  20.960  0.00  0.00    +0.000 A 
ATOM     18  C   UNL     1      -6.142  11.866  20.519  0.00  0.00    +0.000 A 
ATOM     19  N   UNL     1      -6.881  11.371  21.538  0.00  0.00    +0.000 NA
ATOM     20  N   UNL     1      -6.495  12.088  22.619  0.00  0.00    +0.000 N 
ATOM     21  C   UNL     1      -5.594  13.036  22.286  0.00  0.00    +0.000 A 
ATOM     22  H   UNL     1      -6.855  11.832  23.532  0.00  0.00    +0.000 HD
ENDROOT
BRANCH   9  23
ATOM     23  O   UNL     1       1.314   8.627  21.041  0.00  0.00    +0.000 OA
ATOM     24  H   UNL     1       2.027   9.044  20.530  0.00  0.00    +0.000 HD
ENDBRANCH   9  23
BRANCH  18  25
ATOM     25  C   UNL     1      -6.300  11.261  19.163  0.00  0.00    +0.000 C 
BRANCH  25  26
ATOM     26  O   UNL     1      -5.035  11.135  18.509  0.00  0.00    +0.000 OA
ATOM     27  H   UNL     1      -4.843  10.175  18.563  0.00  0.00    +0.000 HD
ENDBRANCH  25  26
ENDBRANCH  18  25
TORSDOF 3
ENDMDL
MODEL 4
REMARK VINA RESULT:      -6.7      9.987     12.821
REMARK  Name = 
REMARK  4 active torsions:
REMARK  status: ('A' for Active; 'I' for Inactive)
REMARK    1  A    between atoms: C_1  and  C_2
REMARK    2  A    between atoms: C_9  and  O_10
REMARK    3  A    between atoms: C_19  and  C_20
REMARK    4  A    between atoms: C_20  and  O_21
REMARK                            x       y       z     vdW  Elec       q    Type
REMARK                         _______ _______ _______ _____ _____    ______ ____
ROOT
ATOM      1  C   UNL     1      -4.863  15.811  23.251  0.00  0.00    +0.000 C 
ATOM      2  C   UNL     1      -4.233  14.454  22.915  0.00  0.00    +0.000 C 
ATOM      3  C   UNL     1      -3.385  13.983  24.087  0.00  0.00    +0.000 C 
ATOM      4  C   UNL     1      -2.698  12.684  23.736  0.00  0.00    +0.000 C 
ATOM      5  C   UNL     1      -1.544  12.916  22.761  0.00  0.00    +0.000 C 
ATOM      6  C   UNL     1      -0.932  11.595  22.324  0.00  0.00    +0.000 A 
ATOM      7  C   UNL     1      -0.964  10.463  23.163  0.00  0.00    +0.000 A 
ATOM      8  C   UNL     1      -0.424   9.240  22.769  0.00  0.00    +0.000 A 
ATOM      9  C   UNL     1       0.196   9.155  21.541  0.00  0.00    +0.000 A 
ATOM     10  C   UNL     1       0.329  10.281  20.728  0.00  0.00    +0.000 A 
ATOM     11  C   UNL     1      -0.228  11.514  21.120  0.00  0.00    +0.000 A 
ATOM     12  C   UNL     1       0.025  12.771  20.334  0.00  0.00    +0.000 C 
ATOM     13  C   UNL     1      -1.213  13.681  20.274  0.00  0.00    +0.000 C 
ATOM     14  C   UNL     1      -1.909  13.940  21.633  0.00  0.00    +0.000 C 
ATOM     15  C   UNL     1      -3.419  14.433  21.518  0.00  0.00    +0.000 C 
ATOM     16  C   UNL     1      -4.362  13.665  20.476  0.00  0.00    +0.000 C 
ATOM     17  C   UNL     1      -5.361  13.009  21.337  0.00  0.00    +0.000 A 
ATOM     18  C   UNL     1      -6.352  12.020  21.353  0.00  0.00    +0.000 A 
ATOM     19  N   UNL     1      -6.868  11.875  22.595  0.00  0.00    +0.000 NA
ATOM     20  N   UNL     1      -6.178  12.756  23.357  0.00  0.00    +0.000 N 
ATOM     21  C   UNL     1      -5.303  13.469  22.616  0.00  0.00    +0.000 A 
ATOM     22  H   UNL     1      -6.333  12.765  24.359  0.00  0.00    +0.000 HD
ENDROOT
BRANCH   9  23
ATOM     23  O   UNL     1       0.710   7.967  21.105  0.00  0.00    +0.000 OA
ATOM     24  H   UNL     1       0.257   7.728  20.280  0.00  0.00    +0.000 HD
ENDBRANCH   9  23
BRANCH  18  25
ATOM     25  C   UNL     1      -6.877  11.154  20.257  0.00  0.00    +0.000 C 
BRANCH  25  26
ATOM     26  O   UNL     1      -7.313   9.890  20.766  0.00  0.00    +0.000 OA
ATOM     27  H   UNL     1      -8.280   9.899  20.608  0.00  0.00    +0.000 HD
ENDBRANCH  25  26
ENDBRANCH  18  25
TORSDOF 3
ENDMDL
MODEL 5
REMARK VINA RESULT:      -6.6      9.444     11.100
REMARK  Name = 
REMARK  4 active torsions:
REMARK  status: ('A' for Active; 'I' for Inactive)
REMARK    1  A    between atoms: C_1  and  C_2
REMARK    2  A    between atoms: C_9  and  O_10
REMARK    3  A    between atoms: C_19  and  C_20
REMARK    4  A    between atoms: C_20  and  O_21
REMARK                            x       y       z     vdW  Elec       q    Type
REMARK                         _______ _______ _______ _____ _____    ______ ____
ROOT
ATOM      1  C   UNL     1      12.026  11.774  19.138  0.00  0.00    +0.000 C 
ATOM      2  C   UNL     1      10.665  12.463  19.289  0.00  0.00    +0.000 C 
ATOM      3  C   UNL     1       9.827  12.215  18.044  0.00  0.00    +0.000 C 
ATOM      4  C   UNL     1       8.513  12.954  18.150  0.00  0.00    +0.000 C 
ATOM      5  C   UNL     1       8.707  14.455  17.940  0.00  0.00    +0.000 C 
ATOM      6  C   UNL     1       7.403  15.204  18.162  0.00  0.00    +0.000 A 
ATOM      7  C   UNL     1       6.158  14.587  17.927  0.00  0.00    +0.000 A 
ATOM      8  C   UNL     1       4.954  15.254  18.144  0.00  0.00    +0.000 A 
ATOM      9  C   UNL     1       4.990  16.569  18.558  0.00  0.00    +0.000 A 
ATOM     10  C   UNL     1       6.206  17.237  18.707  0.00  0.00    +0.000 A 
ATOM     11  C   UNL     1       7.423  16.560  18.500  0.00  0.00    +0.000 A 
ATOM     12  C   UNL     1       8.738  17.291  18.512  0.00  0.00    +0.000 C 
ATOM     13  C   UNL     1       9.859  16.467  19.168  0.00  0.00    +0.000 C 
ATOM     14  C   UNL     1       9.979  15.005  18.672  0.00  0.00    +0.000 C 
ATOM     15  C   UNL     1      10.759  14.033  19.664  0.00  0.00    +0.000 C 
ATOM     16  C   UNL     1      10.396  14.132  21.220  0.00  0.00    +0.000 C 
ATOM     17  C   UNL     1       9.788  12.824  21.514  0.00  0.00    +0.000 A 
ATOM     18  C   UNL     1       9.018  12.130  22.456  0.00  0.00    +0.000 A 
ATOM     19  N   UNL     1       8.738  10.880  22.023  0.00  0.00    +0.000 NA
ATOM     20  N   UNL     1       9.310  10.806  20.799  0.00  0.00    +0.000 N 
ATOM     21  C   UNL     1       9.974  11.941  20.496  0.00  0.00    +0.000 A 
ATOM     22  H   UNL     1       9.156   9.978  20.234  0.00  0.00    +0.000 HD
ENDROOT
BRANCH   9  23
ATOM     23  O   UNL     1       3.833  17.248  18.811  0.00  0.00    +0.000 OA
ATOM     24  H   UNL     1       3.767  17.381  19.771  0.00  0.00    +0.000 HD
ENDBRANCH   9  23
BRANCH  18  25
ATOM     25  C   UNL     1       8.493  12.559  23.786  0.00  0.00    +0.000 C 
BRANCH  25  26
ATOM     26  O   UNL     1       9.102  11.811  24.842  0.00  0.00    +0.000 OA
ATOM     27  H   UNL     1       9.555  11.079  24.374  0.00  0.00    +0.000 HD
ENDBRANCH  25  26
ENDBRANCH  18  25
TORSDOF 3
ENDMDL
MODEL 6
REMARK VINA RESULT:      -6.4      9.548     11.607
REMARK  Name = 
REMARK  4 active torsions:
REMARK  status: ('A' for Active; 'I' for Inactive)
REMARK    1  A    between atoms: C_1  and  C_2
REMARK    2  A    between atoms: C_9  and  O_10
REMARK    3  A    between atoms: C_19  and  C_20
REMARK    4  A    between atoms: C_20  and  O_21
REMARK                            x       y       z     vdW  Elec       q    Type
REMARK                         _______ _______ _______ _____ _____    ______ ____
ROOT
ATOM      1  C   UNL     1      10.527  16.223  16.989  0.00  0.00    +0.000 C 
ATOM      2  C   UNL     1       9.801  15.701  18.234  0.00  0.00    +0.000 C 
ATOM      3  C   UNL     1      10.622  16.022  19.474  0.00  0.00    +0.000 C 
ATOM      4  C   UNL     1       9.953  15.445  20.700  0.00  0.00    +0.000 C 
ATOM      5  C   UNL     1      10.124  13.928  20.758  0.00  0.00    +0.000 C 
ATOM      6  C   UNL     1       9.352  13.342  21.929  0.00  0.00    +0.000 A 
ATOM      7  C   UNL     1       9.111  14.096  23.095  0.00  0.00    +0.000 A 
ATOM      8  C   UNL     1       8.389  13.580  24.170  0.00  0.00    +0.000 A 
ATOM      9  C   UNL     1       7.939  12.279  24.101  0.00  0.00    +0.000 A 
ATOM     10  C   UNL     1       8.243  11.475  23.002  0.00  0.00    +0.000 A 
ATOM     11  C   UNL     1       8.962  12.000  21.910  0.00  0.00    +0.000 A 
ATOM     12  C   UNL     1       9.427  11.119  20.782  0.00  0.00    +0.000 C 
ATOM     13  C   UNL     1       9.328  11.819  19.417  0.00  0.00    +0.000 C 
ATOM     14  C   UNL     1       9.925  13.247  19.361  0.00  0.00    +0.000 C 
ATOM     15  C   UNL     1       9.392  14.139  18.154  0.00  0.00    +0.000 C 
ATOM     16  C   UNL     1       7.817  14.114  17.867  0.00  0.00    +0.000 C 
ATOM     17  C   UNL     1       7.392  15.491  18.171  0.00  0.00    +0.000 A 
ATOM     18  C   UNL     1       6.269  16.289  18.422  0.00  0.00    +0.000 A 
ATOM     19  N   UNL     1       6.635  17.555  18.726  0.00  0.00    +0.000 NA
ATOM     20  N   UNL     1       7.988  17.536  18.692  0.00  0.00    +0.000 N 
ATOM     21  C   UNL     1       8.455  16.325  18.324  0.00  0.00    +0.000 A 
ATOM     22  H   UNL     1       8.497  18.365  18.977  0.00  0.00    +0.000 HD
ENDROOT
BRANCH   9  23
ATOM     23  O   UNL     1       7.201  11.746  25.119  0.00  0.00    +0.000 OA
ATOM     24  H   UNL     1       7.073  10.801  24.934  0.00  0.00    +0.000 HD
ENDBRANCH   9  23
BRANCH  18  25
ATOM     25  C   UNL     1       4.815  15.951  18.406  0.00  0.00    +0.000 C 
BRANCH  25  26
ATOM     26  O   UNL     1       4.016  17.132  18.284  0.00  0.00    +0.000 OA
ATOM     27  H   UNL     1       3.189  16.900  18.756  0.00  0.00    +0.000 HD
ENDBRANCH  25  26
ENDBRANCH  18  25
TORSDOF 3
ENDMDL
MODEL 7
REMARK VINA RESULT:      -6.2      9.565     12.344
REMARK  Name = 
REMARK  4 active torsions:
REMARK  status: ('A' for Active; 'I' for Inactive)
REMARK    1  A    between atoms: C_1  and  C_2
REMARK    2  A    between atoms: C_9  and  O_10
REMARK    3  A    between atoms: C_19  and  C_20
REMARK    4  A    between atoms: C_20  and  O_21
REMARK                            x       y       z     vdW  Elec       q    Type
REMARK                         _______ _______ _______ _____ _____    ______ ____
ROOT
ATOM      1  C   UNL     1      10.828  18.631  20.492  0.00  0.00    +0.000 C 
ATOM      2  C   UNL     1      10.273  17.211  20.332  0.00  0.00    +0.000 C 
ATOM      3  C   UNL     1      10.914  16.294  21.362  0.00  0.00    +0.000 C 
ATOM      4  C   UNL     1      10.430  14.876  21.164  0.00  0.00    +0.000 C 
ATOM      5  C   UNL     1      11.074  14.242  19.932  0.00  0.00    +0.000 C 
ATOM      6  C   UNL     1      10.497  12.860  19.672  0.00  0.00    +0.000 A 
ATOM      7  C   UNL     1       9.997  12.069  20.725  0.00  0.00    +0.000 A 
ATOM      8  C   UNL     1       9.447  10.807  20.502  0.00  0.00    +0.000 A 
ATOM      9  C   UNL     1       9.437  10.308  19.216  0.00  0.00    +0.000 A 
ATOM     10  C   UNL     1      10.011  11.026  18.167  0.00  0.00    +0.000 A 
ATOM     11  C   UNL     1      10.555  12.306  18.390  0.00  0.00    +0.000 A 
ATOM     12  C   UNL     1      11.307  13.036  17.311  0.00  0.00    +0.000 C 
ATOM     13  C   UNL     1      11.028  14.548  17.327  0.00  0.00    +0.000 C 
ATOM     14  C   UNL     1      11.140  15.226  18.714  0.00  0.00    +0.000 C 
ATOM     15  C   UNL     1      10.385  16.624  18.830  0.00  0.00    +0.000 C 
ATOM     16  C   UNL     1       8.908  16.709  18.217  0.00  0.00    +0.000 C 
ATOM     17  C   UNL     1       8.058  16.930  19.399  0.00  0.00    +0.000 A 
ATOM     18  C   UNL     1       6.733  16.897  19.850  0.00  0.00    +0.000 A 
ATOM     19  N   UNL     1       6.669  17.158  21.176  0.00  0.00    +0.000 NA
ATOM     20  N   UNL     1       7.958  17.325  21.554  0.00  0.00    +0.000 N 
ATOM     21  C   UNL     1       8.796  17.233  20.501  0.00  0.00    +0.000 A 
ATOM     22  H   UNL     1       8.169  17.447  22.538  0.00  0.00    +0.000 HD
ENDROOT
BRANCH   9  23
ATOM     23  O   UNL     1       8.880   9.090  18.950  0.00  0.00    +0.000 OA
ATOM     24  H   UNL     1       8.028   9.042  19.414  0.00  0.00    +0.000 HD
ENDBRANCH   9  23
BRANCH  18  25
ATOM     25  C   UNL     1       5.464  16.623  19.114  0.00  0.00    +0.000 C 
BRANCH  25  26
ATOM     26  O   UNL     1       5.571  15.429  18.334  0.00  0.00    +0.000 OA
ATOM     27  H   UNL     1       5.385  14.715  18.979  0.00  0.00    +0.000 HD
ENDBRANCH  25  26
ENDBRANCH  18  25
TORSDOF 3
ENDMDL
MODEL 8
REMARK VINA RESULT:      -6.1      9.197     11.533
REMARK  Name = 
REMARK  4 active torsions:
REMARK  status: ('A' for Active; 'I' for Inactive)
REMARK    1  A    between atoms: C_1  and  C_2
REMARK    2  A    between atoms: C_9  and  O_10
REMARK    3  A    between atoms: C_19  and  C_20
REMARK    4  A    between atoms: C_20  and  O_21
REMARK                            x       y       z     vdW  Elec       q    Type
REMARK                         _______ _______ _______ _____ _____    ______ ____
ROOT
ATOM      1  C   UNL     1      -0.144  14.954  22.446  0.00  0.00    +0.000 C 
ATOM      2  C   UNL     1      -1.099  13.923  21.834  0.00  0.00    +0.000 C 
ATOM      3  C   UNL     1      -1.585  14.419  20.481  0.00  0.00    +0.000 C 
ATOM      4  C   UNL     1      -2.587  13.447  19.904  0.00  0.00    +0.000 C 
ATOM      5  C   UNL     1      -3.931  13.547  20.625  0.00  0.00    +0.000 C 
ATOM      6  C   UNL     1      -4.896  12.489  20.118  0.00  0.00    +0.000 A 
ATOM      7  C   UNL     1      -4.807  11.990  18.803  0.00  0.00    +0.000 A 
ATOM      8  C   UNL     1      -5.673  11.005  18.328  0.00  0.00    +0.000 A 
ATOM      9  C   UNL     1      -6.669  10.543  19.161  0.00  0.00    +0.000 A 
ATOM     10  C   UNL     1      -6.844  11.085  20.435  0.00  0.00    +0.000 A 
ATOM     11  C   UNL     1      -5.962  12.071  20.919  0.00  0.00    +0.000 A 
ATOM     12  C   UNL     1      -6.213  12.772  22.226  0.00  0.00    +0.000 C 
ATOM     13  C   UNL     1      -4.914  13.040  23.004  0.00  0.00    +0.000 C 
ATOM     14  C   UNL     1      -3.770  13.680  22.178  0.00  0.00    +0.000 C 
ATOM     15  C   UNL     1      -2.318  13.496  22.807  0.00  0.00    +0.000 C 
ATOM     16  C   UNL     1      -1.943  12.042  23.363  0.00  0.00    +0.000 C 
ATOM     17  C   UNL     1      -0.861  11.600  22.467  0.00  0.00    +0.000 A 
ATOM     18  C   UNL     1      -0.132  10.478  22.056  0.00  0.00    +0.000 A 
ATOM     19  N   UNL     1       0.729  10.799  21.063  0.00  0.00    +0.000 NA
ATOM     20  N   UNL     1       0.514  12.116  20.838  0.00  0.00    +0.000 N 
ATOM     21  C   UNL     1      -0.401  12.620  21.692  0.00  0.00    +0.000 A 
ATOM     22  H   UNL     1       0.992  12.566  20.065  0.00  0.00    +0.000 HD
ENDROOT
BRANCH   9  23
ATOM     23  O   UNL     1      -7.518   9.558  18.746  0.00  0.00    +0.000 OA
ATOM     24  H   UNL     1      -7.638   9.649  17.787  0.00  0.00    +0.000 HD
ENDBRANCH   9  23
BRANCH  18  25
ATOM     25  C   UNL     1      -0.178   9.063  22.530  0.00  0.00    +0.000 C 
BRANCH  25  26
ATOM     26  O   UNL     1       0.516   8.198  21.627  0.00  0.00    +0.000 OA
ATOM     27  H   UNL     1       1.416   8.583  21.585  0.00  0.00    +0.000 HD
ENDBRANCH  25  26
ENDBRANCH  18  25
TORSDOF 3
ENDMDL
MODEL 9
REMARK VINA RESULT:      -6.1      7.372      9.091
REMARK  Name = 
REMARK  4 active torsions:
REMARK  status: ('A' for Active; 'I' for Inactive)
REMARK    1  A    between atoms: C_1  and  C_2
REMARK    2  A    between atoms: C_9  and  O_10
REMARK    3  A    between atoms: C_19  and  C_20
REMARK    4  A    between atoms: C_20  and  O_21
REMARK                            x       y       z     vdW  Elec       q    Type
REMARK                         _______ _______ _______ _____ _____    ______ ____
ROOT
ATOM      1  C   UNL     1      -0.904  15.626  19.429  0.00  0.00    +0.000 C 
ATOM      2  C   UNL     1      -0.084  14.332  19.482  0.00  0.00    +0.000 C 
ATOM      3  C   UNL     1      -0.471  13.436  18.315  0.00  0.00    +0.000 C 
ATOM      4  C   UNL     1       0.276  12.126  18.401  0.00  0.00    +0.000 C 
ATOM      5  C   UNL     1      -0.294  11.238  19.506  0.00  0.00    +0.000 C 
ATOM      6  C   UNL     1       0.533   9.973  19.663  0.00  0.00    +0.000 A 
ATOM      7  C   UNL     1       1.240   9.423  18.575  0.00  0.00    +0.000 A 
ATOM      8  C   UNL     1       2.018   8.274  18.707  0.00  0.00    +0.000 A 
ATOM      9  C   UNL     1       2.057   7.638  19.930  0.00  0.00    +0.000 A 
ATOM     10  C   UNL     1       1.293   8.102  21.002  0.00  0.00    +0.000 A 
ATOM     11  C   UNL     1       0.517   9.270  20.872  0.00  0.00    +0.000 A 
ATOM     12  C   UNL     1      -0.425   9.709  21.960  0.00  0.00    +0.000 C 
ATOM     13  C   UNL     1      -0.455  11.238  22.124  0.00  0.00    +0.000 C 
ATOM     14  C   UNL     1      -0.624  12.041  20.811  0.00  0.00    +0.000 C 
ATOM     15  C   UNL     1      -0.160  13.561  20.901  0.00  0.00    +0.000 C 
ATOM     16  C   UNL     1       1.234  13.857  21.632  0.00  0.00    +0.000 C 
ATOM     17  C   UNL     1       2.086  14.376  20.550  0.00  0.00    +0.000 A 
ATOM     18  C   UNL     1       3.414  14.653  20.201  0.00  0.00    +0.000 A 
ATOM     19  N   UNL     1       3.497  15.076  18.919  0.00  0.00    +0.000 NA
ATOM     20  N   UNL     1       2.224  15.035  18.462  0.00  0.00    +0.000 N 
ATOM     21  C   UNL     1       1.364  14.658  19.431  0.00  0.00    +0.000 A 
ATOM     22  H   UNL     1       2.048  15.229  17.482  0.00  0.00    +0.000 HD
ENDROOT
BRANCH   9  23
ATOM     23  O   UNL     1       2.832   6.528  20.110  0.00  0.00    +0.000 OA
ATOM     24  H   UNL     1       2.723   5.957  19.332  0.00  0.00    +0.000 HD
ENDBRANCH   9  23
BRANCH  18  25
ATOM     25  C   UNL     1       4.670  14.545  21.000  0.00  0.00    +0.000 C 
BRANCH  25  26
ATOM     26  O   UNL     1       4.441  13.835  22.220  0.00  0.00    +0.000 OA
ATOM     27  H   UNL     1       3.464  13.821  22.298  0.00  0.00    +0.000 HD
ENDBRANCH  25  26
ENDBRANCH  18  25
TORSDOF 3
ENDMDL
