MODEL 1
REMARK VINA RESULT:      -7.7      0.000      0.000
REMARK  Name = 
REMARK  9 active torsions:
REMARK  status: ('A' for Active; 'I' for Inactive)
REMARK    1  A    between atoms: C_1  and  C_2
REMARK    2  A    between atoms: C_5  and  S_6
REMARK    3  A    between atoms: S_6  and  N_9
REMARK    4  A    between atoms: N_9  and  C_10
REMARK    5  A    between atoms: N_9  and  C_22
REMARK    6  A    between atoms: C_10  and  C_11
REMARK    7  A    between atoms: N_13  and  C_14
REMARK    8  A    between atoms: C_14  and  C_15
REMARK    9  A    between atoms: C_25  and  C_26
REMARK                            x       y       z     vdW  Elec       q    Type
REMARK                         _______ _______ _______ _____ _____    ______ ____
ROOT
ATOM      1  N   UNL     1       5.407   5.741  17.285  0.00  0.00    +0.000 N 
ENDROOT
BRANCH   1   2
ATOM      2  C   UNL     1       5.848   5.286  16.006  0.00  0.00    +0.000 A 
ATOM      3  C   UNL     1       5.045   4.471  15.216  0.00  0.00    +0.000 A 
ATOM      4  C   UNL     1       5.499   4.072  13.959  0.00  0.00    +0.000 A 
ATOM      5  C   UNL     1       6.752   4.500  13.526  0.00  0.00    +0.000 A 
ATOM      6  C   UNL     1       7.281   4.092  12.183  0.00  0.00    +0.000 C 
ATOM      7  N   UNL     1       7.549   5.296  14.279  0.00  0.00    +0.000 NA
ATOM      8  C   UNL     1       7.088   5.660  15.502  0.00  0.00    +0.000 A 
ENDBRANCH   1   2
BRANCH   1   9
ATOM      9  S   UNL     1       5.789   4.821  18.654  0.00  0.00    +0.000 S 
ATOM     10  O   UNL     1       5.842   5.702  19.799  0.00  0.00    +0.000 OA
ATOM     11  O   UNL     1       6.904   3.956  18.339  0.00  0.00    +0.000 OA
BRANCH   9  16
ATOM     12  C   UNL     1       0.539   1.859  18.963  0.00  0.00    +0.000 C 
ATOM     13  C   UNL     1       1.933   2.414  18.967  0.00  0.00    +0.000 A 
ATOM     14  C   UNL     1       2.779   2.231  17.865  0.00  0.00    +0.000 A 
ATOM     15  C   UNL     1       3.999   2.907  17.795  0.00  0.00    +0.000 A 
ATOM     16  C   UNL     1       4.357   3.779  18.827  0.00  0.00    +0.000 A 
ATOM     17  C   UNL     1       3.582   3.870  19.983  0.00  0.00    +0.000 A 
ATOM     18  C   UNL     1       2.361   3.203  20.041  0.00  0.00    +0.000 A 
ENDBRANCH   9  16
ENDBRANCH   1   9
BRANCH   1  19
ATOM     19  C   UNL     1       4.521   6.913  17.379  0.00  0.00    +0.000 C 
BRANCH  19  20
ATOM     20  C   UNL     1       3.192   6.749  18.094  0.00  0.00    +0.000 C 
ATOM     21  O   UNL     1       2.282   6.057  17.642  0.00  0.00    +0.000 OA
ATOM     22  N   UNL     1       3.081   7.393  19.316  0.00  0.00    +0.000 N 
ATOM     23  H   UNL     1       3.940   7.620  19.795  0.00  0.00    +0.000 HD
BRANCH  22  24
ATOM     24  C   UNL     1       1.898   7.173  20.132  0.00  0.00    +0.000 C 
BRANCH  24  25
ATOM     25  C   UNL     1       1.245   8.429  20.668  0.00  0.00    +0.000 A 
ATOM     26  C   UNL     1       0.918   8.613  22.019  0.00  0.00    +0.000 A 
ATOM     27  C   UNL     1       0.234   9.757  22.443  0.00  0.00    +0.000 A 
ATOM     28  C   UNL     1      -0.097  10.749  21.525  0.00  0.00    +0.000 A 
ATOM     29 CL   UNL     1      -0.988  12.128  22.041  0.00  0.00    +0.000 Cl
ATOM     30  C   UNL     1       0.282  10.625  20.193  0.00  0.00    +0.000 A 
ATOM     31  C   UNL     1       0.952   9.473  19.768  0.00  0.00    +0.000 A 
ENDBRANCH  24  25
ENDBRANCH  22  24
ENDBRANCH  19  20
ENDBRANCH   1  19
TORSDOF 7
ENDMDL
MODEL 2
REMARK VINA RESULT:      -7.6      2.443      5.196
REMARK  Name = 
REMARK  9 active torsions:
REMARK  status: ('A' for Active; 'I' for Inactive)
REMARK    1  A    between atoms: C_1  and  C_2
REMARK    2  A    between atoms: C_5  and  S_6
REMARK    3  A    between atoms: S_6  and  N_9
REMARK    4  A    between atoms: N_9  and  C_10
REMARK    5  A    between atoms: N_9  and  C_22
REMARK    6  A    between atoms: C_10  and  C_11
REMARK    7  A    between atoms: N_13  and  C_14
REMARK    8  A    between atoms: C_14  and  C_15
REMARK    9  A    between atoms: C_25  and  C_26
REMARK                            x       y       z     vdW  Elec       q    Type
REMARK                         _______ _______ _______ _____ _____    ______ ____
ROOT
ATOM      1  N   UNL     1       3.855   6.457  17.842  0.00  0.00    +0.000 N 
ENDROOT
BRANCH   1   2
ATOM      2  C   UNL     1       3.119   5.452  18.538  0.00  0.00    +0.000 A 
ATOM      3  C   UNL     1       2.118   4.725  17.906  0.00  0.00    +0.000 A 
ATOM      4  C   UNL     1       1.441   3.730  18.612  0.00  0.00    +0.000 A 
ATOM      5  C   UNL     1       1.787   3.490  19.939  0.00  0.00    +0.000 A 
ATOM      6  C   UNL     1       1.084   2.432  20.737  0.00  0.00    +0.000 C 
ATOM      7  N   UNL     1       2.761   4.186  20.574  0.00  0.00    +0.000 NA
ATOM      8  C   UNL     1       3.395   5.155  19.868  0.00  0.00    +0.000 A 
ENDBRANCH   1   2
BRANCH   1   9
ATOM      9  S   UNL     1       5.544   6.344  17.794  0.00  0.00    +0.000 S 
ATOM     10  O   UNL     1       5.987   5.598  18.951  0.00  0.00    +0.000 OA
ATOM     11  O   UNL     1       6.091   7.652  17.508  0.00  0.00    +0.000 OA
BRANCH   9  16
ATOM     12  C   UNL     1       6.088   3.452  12.524  0.00  0.00    +0.000 C 
ATOM     13  C   UNL     1       6.071   4.009  13.918  0.00  0.00    +0.000 A 
ATOM     14  C   UNL     1       7.093   4.856  14.363  0.00  0.00    +0.000 A 
ATOM     15  C   UNL     1       6.976   5.518  15.587  0.00  0.00    +0.000 A 
ATOM     16  C   UNL     1       5.820   5.340  16.352  0.00  0.00    +0.000 A 
ATOM     17  C   UNL     1       4.856   4.404  15.976  0.00  0.00    +0.000 A 
ATOM     18  C   UNL     1       4.974   3.756  14.750  0.00  0.00    +0.000 A 
ENDBRANCH   9  16
ENDBRANCH   1   9
BRANCH   1  19
ATOM     19  C   UNL     1       3.156   7.634  17.302  0.00  0.00    +0.000 C 
BRANCH  19  20
ATOM     20  C   UNL     1       2.280   8.441  18.245  0.00  0.00    +0.000 C 
ATOM     21  O   UNL     1       2.144   8.146  19.431  0.00  0.00    +0.000 OA
ATOM     22  N   UNL     1       1.678   9.562  17.698  0.00  0.00    +0.000 N 
ATOM     23  H   UNL     1       2.101   9.953  16.870  0.00  0.00    +0.000 HD
BRANCH  22  24
ATOM     24  C   UNL     1       0.939  10.468  18.563  0.00  0.00    +0.000 C 
BRANCH  24  25
ATOM     25  C   UNL     1      -0.544  10.561  18.279  0.00  0.00    +0.000 A 
ATOM     26  C   UNL     1      -1.208   9.732  17.363  0.00  0.00    +0.000 A 
ATOM     27  C   UNL     1      -2.563   9.922  17.074  0.00  0.00    +0.000 A 
ATOM     28  C   UNL     1      -3.280  10.920  17.727  0.00  0.00    +0.000 A 
ATOM     29 CL   UNL     1      -4.932  11.187  17.327  0.00  0.00    +0.000 Cl
ATOM     30  C   UNL     1      -2.663  11.707  18.695  0.00  0.00    +0.000 A 
ATOM     31  C   UNL     1      -1.304  11.525  18.970  0.00  0.00    +0.000 A 
ENDBRANCH  24  25
ENDBRANCH  22  24
ENDBRANCH  19  20
ENDBRANCH   1  19
TORSDOF 7
ENDMDL
MODEL 3
REMARK VINA RESULT:      -7.6      4.233      6.196
REMARK  Name = 
REMARK  9 active torsions:
REMARK  status: ('A' for Active; 'I' for Inactive)
REMARK    1  A    between atoms: C_1  and  C_2
REMARK    2  A    between atoms: C_5  and  S_6
REMARK    3  A    between atoms: S_6  and  N_9
REMARK    4  A    between atoms: N_9  and  C_10
REMARK    5  A    between atoms: N_9  and  C_22
REMARK    6  A    between atoms: C_10  and  C_11
REMARK    7  A    between atoms: N_13  and  C_14
REMARK    8  A    between atoms: C_14  and  C_15
REMARK    9  A    between atoms: C_25  and  C_26
REMARK                            x       y       z     vdW  Elec       q    Type
REMARK                         _______ _______ _______ _____ _____    ______ ____
ROOT
ATOM      1  N   UNL     1       5.216   5.804  17.879  0.00  0.00    +0.000 N 
ENDROOT
BRANCH   1   2
ATOM      2  C   UNL     1       4.119   6.696  18.074  0.00  0.00    +0.000 A 
ATOM      3  C   UNL     1       3.320   6.616  19.208  0.00  0.00    +0.000 A 
ATOM      4  C   UNL     1       2.276   7.527  19.378  0.00  0.00    +0.000 A 
ATOM      5  C   UNL     1       2.061   8.496  18.401  0.00  0.00    +0.000 A 
ATOM      6  C   UNL     1       0.948   9.492  18.541  0.00  0.00    +0.000 C 
ATOM      7  N   UNL     1       2.830   8.593  17.290  0.00  0.00    +0.000 NA
ATOM      8  C   UNL     1       3.830   7.688  17.145  0.00  0.00    +0.000 A 
ENDBRANCH   1   2
BRANCH   1   9
ATOM      9  S   UNL     1       4.919   4.289  17.183  0.00  0.00    +0.000 S 
ATOM     10  O   UNL     1       6.162   3.551  17.142  0.00  0.00    +0.000 OA
ATOM     11  O   UNL     1       4.132   4.472  15.983  0.00  0.00    +0.000 OA
BRANCH   9  16
ATOM     12  C   UNL     1       1.252   2.347  21.566  0.00  0.00    +0.000 C 
ATOM     13  C   UNL     1       2.165   2.624  20.408  0.00  0.00    +0.000 A 
ATOM     14  C   UNL     1       1.645   2.943  19.146  0.00  0.00    +0.000 A 
ATOM     15  C   UNL     1       2.492   3.382  18.127  0.00  0.00    +0.000 A 
ATOM     16  C   UNL     1       3.859   3.516  18.384  0.00  0.00    +0.000 A 
ATOM     17  C   UNL     1       4.400   3.082  19.595  0.00  0.00    +0.000 A 
ATOM     18  C   UNL     1       3.549   2.656  20.611  0.00  0.00    +0.000 A 
ENDBRANCH   9  16
ENDBRANCH   1   9
BRANCH   1  19
ATOM     19  C   UNL     1       6.546   6.152  18.403  0.00  0.00    +0.000 C 
BRANCH  19  20
ATOM     20  C   UNL     1       7.392   7.135  17.612  0.00  0.00    +0.000 C 
ATOM     21  O   UNL     1       7.724   6.928  16.447  0.00  0.00    +0.000 OA
ATOM     22  N   UNL     1       7.729   8.306  18.271  0.00  0.00    +0.000 N 
ATOM     23  H   UNL     1       7.146   8.582  19.047  0.00  0.00    +0.000 HD
BRANCH  22  24
ATOM     24  C   UNL     1       8.415   9.361  17.542  0.00  0.00    +0.000 C 
BRANCH  24  25
ATOM     25  C   UNL     1       8.977  10.474  18.400  0.00  0.00    +0.000 A 
ATOM     26  C   UNL     1       9.396  10.290  19.726  0.00  0.00    +0.000 A 
ATOM     27  C   UNL     1       9.824  11.373  20.501  0.00  0.00    +0.000 A 
ATOM     28  C   UNL     1       9.874  12.648  19.945  0.00  0.00    +0.000 A 
ATOM     29 CL   UNL     1      10.346  13.986  20.918  0.00  0.00    +0.000 Cl
ATOM     30  C   UNL     1       9.534  12.845  18.610  0.00  0.00    +0.000 A 
ATOM     31  C   UNL     1       9.092  11.763  17.843  0.00  0.00    +0.000 A 
ENDBRANCH  24  25
ENDBRANCH  22  24
ENDBRANCH  19  20
ENDBRANCH   1  19
TORSDOF 7
ENDMDL
MODEL 4
REMARK VINA RESULT:      -7.5      4.651      9.563
REMARK  Name = 
REMARK  9 active torsions:
REMARK  status: ('A' for Active; 'I' for Inactive)
REMARK    1  A    between atoms: C_1  and  C_2
REMARK    2  A    between atoms: C_5  and  S_6
REMARK    3  A    between atoms: S_6  and  N_9
REMARK    4  A    between atoms: N_9  and  C_10
REMARK    5  A    between atoms: N_9  and  C_22
REMARK    6  A    between atoms: C_10  and  C_11
REMARK    7  A    between atoms: N_13  and  C_14
REMARK    8  A    between atoms: C_14  and  C_15
REMARK    9  A    between atoms: C_25  and  C_26
REMARK                            x       y       z     vdW  Elec       q    Type
REMARK                         _______ _______ _______ _____ _____    ______ ____
ROOT
ATOM      1  N   UNL     1      -0.138  10.895  19.782  0.00  0.00    +0.000 N 
ENDROOT
BRANCH   1   2
ATOM      2  C   UNL     1      -1.420  10.968  19.158  0.00  0.00    +0.000 A 
ATOM      3  C   UNL     1      -1.835  10.001  18.252  0.00  0.00    +0.000 A 
ATOM      4  C   UNL     1      -3.108  10.091  17.686  0.00  0.00    +0.000 A 
ATOM      5  C   UNL     1      -3.932  11.154  18.045  0.00  0.00    +0.000 A 
ATOM      6  C   UNL     1      -5.306  11.292  17.459  0.00  0.00    +0.000 C 
ATOM      7  N   UNL     1      -3.547  12.107  18.929  0.00  0.00    +0.000 NA
ATOM      8  C   UNL     1      -2.302  12.001  19.455  0.00  0.00    +0.000 A 
ENDBRANCH   1   2
BRANCH   1   9
ATOM      9  S   UNL     1      -0.049  10.434  21.409  0.00  0.00    +0.000 S 
ATOM     10  O   UNL     1       1.344  10.375  21.794  0.00  0.00    +0.000 OA
ATOM     11  O   UNL     1      -0.920   9.298  21.621  0.00  0.00    +0.000 OA
BRANCH   9  16
ATOM     12  C   UNL     1      -2.947  15.255  23.597  0.00  0.00    +0.000 C 
ATOM     13  C   UNL     1      -2.133  14.043  23.249  0.00  0.00    +0.000 A 
ATOM     14  C   UNL     1      -2.622  12.755  23.502  0.00  0.00    +0.000 A 
ATOM     15  C   UNL     1      -1.948  11.637  23.006  0.00  0.00    +0.000 A 
ATOM     16  C   UNL     1      -0.793  11.819  22.242  0.00  0.00    +0.000 A 
ATOM     17  C   UNL     1      -0.231  13.087  22.092  0.00  0.00    +0.000 A 
ATOM     18  C   UNL     1      -0.914  14.199  22.579  0.00  0.00    +0.000 A 
ENDBRANCH   9  16
ENDBRANCH   1   9
BRANCH   1  19
ATOM     19  C   UNL     1       1.057  11.348  19.054  0.00  0.00    +0.000 C 
BRANCH  19  20
ATOM     20  C   UNL     1       1.863  10.313  18.288  0.00  0.00    +0.000 C 
ATOM     21  O   UNL     1       2.620  10.618  17.368  0.00  0.00    +0.000 OA
ATOM     22  N   UNL     1       1.730   9.004  18.720  0.00  0.00    +0.000 N 
ATOM     23  H   UNL     1       1.412   8.863  19.667  0.00  0.00    +0.000 HD
BRANCH  22  24
ATOM     24  C   UNL     1       2.572   7.972  18.137  0.00  0.00    +0.000 C 
BRANCH  24  25
ATOM     25  C   UNL     1       2.356   6.579  18.688  0.00  0.00    +0.000 A 
ATOM     26  C   UNL     1       2.341   5.427  17.889  0.00  0.00    +0.000 A 
ATOM     27  C   UNL     1       2.048   4.175  18.439  0.00  0.00    +0.000 A 
ATOM     28  C   UNL     1       1.805   4.055  19.805  0.00  0.00    +0.000 A 
ATOM     29 CL   UNL     1       1.389   2.524  20.468  0.00  0.00    +0.000 Cl
ATOM     30  C   UNL     1       1.888   5.172  20.631  0.00  0.00    +0.000 A 
ATOM     31  C   UNL     1       2.165   6.425  20.075  0.00  0.00    +0.000 A 
ENDBRANCH  24  25
ENDBRANCH  22  24
ENDBRANCH  19  20
ENDBRANCH   1  19
TORSDOF 7
ENDMDL
MODEL 5
REMARK VINA RESULT:      -7.4      4.503      9.436
REMARK  Name = 
REMARK  9 active torsions:
REMARK  status: ('A' for Active; 'I' for Inactive)
REMARK    1  A    between atoms: C_1  and  C_2
REMARK    2  A    between atoms: C_5  and  S_6
REMARK    3  A    between atoms: S_6  and  N_9
REMARK    4  A    between atoms: N_9  and  C_10
REMARK    5  A    between atoms: N_9  and  C_22
REMARK    6  A    between atoms: C_10  and  C_11
REMARK    7  A    between atoms: N_13  and  C_14
REMARK    8  A    between atoms: C_14  and  C_15
REMARK    9  A    between atoms: C_25  and  C_26
REMARK                            x       y       z     vdW  Elec       q    Type
REMARK                         _______ _______ _______ _____ _____    ______ ____
ROOT
ATOM      1  N   UNL     1       0.596  11.232  19.284  0.00  0.00    +0.000 N 
ENDROOT
BRANCH   1   2
ATOM      2  C   UNL     1       1.513  12.312  19.460  0.00  0.00    +0.000 A 
ATOM      3  C   UNL     1       1.755  12.853  20.717  0.00  0.00    +0.000 A 
ATOM      4  C   UNL     1       2.681  13.888  20.851  0.00  0.00    +0.000 A 
ATOM      5  C   UNL     1       3.341  14.356  19.717  0.00  0.00    +0.000 A 
ATOM      6  C   UNL     1       4.341  15.469  19.816  0.00  0.00    +0.000 C 
ATOM      7  N   UNL     1       3.120  13.841  18.484  0.00  0.00    +0.000 NA
ATOM      8  C   UNL     1       2.207  12.844  18.379  0.00  0.00    +0.000 A 
ENDBRANCH   1   2
BRANCH   1   9
ATOM      9  S   UNL     1      -1.026  11.585  18.953  0.00  0.00    +0.000 S 
ATOM     10  O   UNL     1      -1.683  10.369  18.528  0.00  0.00    +0.000 OA
ATOM     11  O   UNL     1      -1.087  12.778  18.138  0.00  0.00    +0.000 OA
BRANCH   9  16
ATOM     12  C   UNL     1      -3.720  12.570  24.264  0.00  0.00    +0.000 C 
ATOM     13  C   UNL     1      -2.904  12.472  23.009  0.00  0.00    +0.000 A 
ATOM     14  C   UNL     1      -1.830  11.576  22.921  0.00  0.00    +0.000 A 
ATOM     15  C   UNL     1      -1.198  11.354  21.696  0.00  0.00    +0.000 A 
ATOM     16  C   UNL     1      -1.659  12.021  20.558  0.00  0.00    +0.000 A 
ATOM     17  C   UNL     1      -2.643  13.005  20.660  0.00  0.00    +0.000 A 
ATOM     18  C   UNL     1      -3.276  13.213  21.882  0.00  0.00    +0.000 A 
ENDBRANCH   9  16
ENDBRANCH   1   9
BRANCH   1  19
ATOM     19  C   UNL     1       1.039   9.850  19.528  0.00  0.00    +0.000 C 
BRANCH  19  20
ATOM     20  C   UNL     1       1.803   9.139  18.424  0.00  0.00    +0.000 C 
ATOM     21  O   UNL     1       1.916   9.608  17.293  0.00  0.00    +0.000 OA
ATOM     22  N   UNL     1       2.409   7.945  18.782  0.00  0.00    +0.000 N 
ATOM     23  H   UNL     1       2.597   7.802  19.763  0.00  0.00    +0.000 HD
BRANCH  22  24
ATOM     24  C   UNL     1       3.276   7.272  17.829  0.00  0.00    +0.000 C 
BRANCH  24  25
ATOM     25  C   UNL     1       3.278   5.761  17.917  0.00  0.00    +0.000 A 
ATOM     26  C   UNL     1       2.109   4.988  17.931  0.00  0.00    +0.000 A 
ATOM     27  C   UNL     1       2.167   3.601  18.104  0.00  0.00    +0.000 A 
ATOM     28  C   UNL     1       3.400   2.967  18.228  0.00  0.00    +0.000 A 
ATOM     29 CL   UNL     1       3.465   1.269  18.498  0.00  0.00    +0.000 Cl
ATOM     30  C   UNL     1       4.577   3.703  18.142  0.00  0.00    +0.000 A 
ATOM     31  C   UNL     1       4.516   5.091  17.985  0.00  0.00    +0.000 A 
ENDBRANCH  24  25
ENDBRANCH  22  24
ENDBRANCH  19  20
ENDBRANCH   1  19
TORSDOF 7
ENDMDL
MODEL 6
REMARK VINA RESULT:      -7.3      1.669      1.790
REMARK  Name = 
REMARK  9 active torsions:
REMARK  status: ('A' for Active; 'I' for Inactive)
REMARK    1  A    between atoms: C_1  and  C_2
REMARK    2  A    between atoms: C_5  and  S_6
REMARK    3  A    between atoms: S_6  and  N_9
REMARK    4  A    between atoms: N_9  and  C_10
REMARK    5  A    between atoms: N_9  and  C_22
REMARK    6  A    between atoms: C_10  and  C_11
REMARK    7  A    between atoms: N_13  and  C_14
REMARK    8  A    between atoms: C_14  and  C_15
REMARK    9  A    between atoms: C_25  and  C_26
REMARK                            x       y       z     vdW  Elec       q    Type
REMARK                         _______ _______ _______ _____ _____    ______ ____
ROOT
ATOM      1  N   UNL     1       5.747   5.863  17.289  0.00  0.00    +0.000 N 
ENDROOT
BRANCH   1   2
ATOM      2  C   UNL     1       6.018   5.320  15.997  0.00  0.00    +0.000 A 
ATOM      3  C   UNL     1       5.063   4.577  15.314  0.00  0.00    +0.000 A 
ATOM      4  C   UNL     1       5.355   4.089  14.040  0.00  0.00    +0.000 A 
ATOM      5  C   UNL     1       6.602   4.358  13.483  0.00  0.00    +0.000 A 
ATOM      6  C   UNL     1       6.960   3.850  12.118  0.00  0.00    +0.000 C 
ATOM      7  N   UNL     1       7.547   5.082  14.132  0.00  0.00    +0.000 NA
ATOM      8  C   UNL     1       7.241   5.535  15.373  0.00  0.00    +0.000 A 
ENDBRANCH   1   2
BRANCH   1   9
ATOM      9  S   UNL     1       6.067   4.915  18.655  0.00  0.00    +0.000 S 
ATOM     10  O   UNL     1       6.192   5.788  19.801  0.00  0.00    +0.000 OA
ATOM     11  O   UNL     1       7.112   3.969  18.332  0.00  0.00    +0.000 OA
BRANCH   9  16
ATOM     12  C   UNL     1       0.628   2.308  18.889  0.00  0.00    +0.000 C 
ATOM     13  C   UNL     1       2.051   2.781  18.940  0.00  0.00    +0.000 A 
ATOM     14  C   UNL     1       2.964   2.414  17.943  0.00  0.00    +0.000 A 
ATOM     15  C   UNL     1       4.227   3.007  17.892  0.00  0.00    +0.000 A 
ATOM     16  C   UNL     1       4.562   3.983  18.835  0.00  0.00    +0.000 A 
ATOM     17  C   UNL     1       3.709   4.263  19.903  0.00  0.00    +0.000 A 
ATOM     18  C   UNL     1       2.447   3.676  19.941  0.00  0.00    +0.000 A 
ENDBRANCH   9  16
ENDBRANCH   1   9
BRANCH   1  19
ATOM     19  C   UNL     1       5.075   7.167  17.408  0.00  0.00    +0.000 C 
BRANCH  19  20
ATOM     20  C   UNL     1       3.563   7.181  17.551  0.00  0.00    +0.000 C 
ATOM     21  O   UNL     1       2.885   6.159  17.477  0.00  0.00    +0.000 OA
ATOM     22  N   UNL     1       2.994   8.416  17.817  0.00  0.00    +0.000 N 
ATOM     23  H   UNL     1       3.592   9.119  18.224  0.00  0.00    +0.000 HD
BRANCH  22  24
ATOM     24  C   UNL     1       1.572   8.498  18.108  0.00  0.00    +0.000 C 
BRANCH  24  25
ATOM     25  C   UNL     1       1.041   9.897  18.335  0.00  0.00    +0.000 A 
ATOM     26  C   UNL     1      -0.326  10.207  18.368  0.00  0.00    +0.000 A 
ATOM     27  C   UNL     1      -0.759  11.532  18.492  0.00  0.00    +0.000 A 
ATOM     28  C   UNL     1       0.173  12.558  18.621  0.00  0.00    +0.000 A 
ATOM     29 CL   UNL     1      -0.362  14.191  18.716  0.00  0.00    +0.000 Cl
ATOM     30  C   UNL     1       1.533  12.268  18.666  0.00  0.00    +0.000 A 
ATOM     31  C   UNL     1       1.963  10.945  18.527  0.00  0.00    +0.000 A 
ENDBRANCH  24  25
ENDBRANCH  22  24
ENDBRANCH  19  20
ENDBRANCH   1  19
TORSDOF 7
ENDMDL
MODEL 7
REMARK VINA RESULT:      -7.3      2.390      5.071
REMARK  Name = 
REMARK  9 active torsions:
REMARK  status: ('A' for Active; 'I' for Inactive)
REMARK    1  A    between atoms: C_1  and  C_2
REMARK    2  A    between atoms: C_5  and  S_6
REMARK    3  A    between atoms: S_6  and  N_9
REMARK    4  A    between atoms: N_9  and  C_10
REMARK    5  A    between atoms: N_9  and  C_22
REMARK    6  A    between atoms: C_10  and  C_11
REMARK    7  A    between atoms: N_13  and  C_14
REMARK    8  A    between atoms: C_14  and  C_15
REMARK    9  A    between atoms: C_25  and  C_26
REMARK                            x       y       z     vdW  Elec       q    Type
REMARK                         _______ _______ _______ _____ _____    ______ ____
ROOT
ATOM      1  N   UNL     1       3.982   6.206  17.889  0.00  0.00    +0.000 N 
ENDROOT
BRANCH   1   2
ATOM      2  C   UNL     1       3.156   5.113  18.292  0.00  0.00    +0.000 A 
ATOM      3  C   UNL     1       3.316   4.511  19.534  0.00  0.00    +0.000 A 
ATOM      4  C   UNL     1       2.469   3.465  19.904  0.00  0.00    +0.000 A 
ATOM      5  C   UNL     1       1.482   3.049  19.014  0.00  0.00    +0.000 A 
ATOM      6  C   UNL     1       0.552   1.927  19.368  0.00  0.00    +0.000 C 
ATOM      7  N   UNL     1       1.308   3.625  17.800  0.00  0.00    +0.000 NA
ATOM      8  C   UNL     1       2.152   4.631  17.461  0.00  0.00    +0.000 A 
ENDBRANCH   1   2
BRANCH   1   9
ATOM      9  S   UNL     1       5.664   6.020  17.946  0.00  0.00    +0.000 S 
ATOM     10  O   UNL     1       5.992   5.144  19.049  0.00  0.00    +0.000 OA
ATOM     11  O   UNL     1       6.281   7.323  17.833  0.00  0.00    +0.000 OA
BRANCH   9  16
ATOM     12  C   UNL     1       6.254   3.462  12.512  0.00  0.00    +0.000 C 
ATOM     13  C   UNL     1       6.276   3.975  13.922  0.00  0.00    +0.000 A 
ATOM     14  C   UNL     1       7.075   5.071  14.273  0.00  0.00    +0.000 A 
ATOM     15  C   UNL     1       6.948   5.659  15.533  0.00  0.00    +0.000 A 
ATOM     16  C   UNL     1       6.006   5.152  16.432  0.00  0.00    +0.000 A 
ATOM     17  C   UNL     1       5.297   3.987  16.138  0.00  0.00    +0.000 A 
ATOM     18  C   UNL     1       5.420   3.413  14.875  0.00  0.00    +0.000 A 
ENDBRANCH   9  16
ENDBRANCH   1   9
BRANCH   1  19
ATOM     19  C   UNL     1       3.370   7.505  17.567  0.00  0.00    +0.000 C 
BRANCH  19  20
ATOM     20  C   UNL     1       2.386   8.099  18.560  0.00  0.00    +0.000 C 
ATOM     21  O   UNL     1       2.241   7.646  19.694  0.00  0.00    +0.000 OA
ATOM     22  N   UNL     1       1.691   9.216  18.126  0.00  0.00    +0.000 N 
ATOM     23  H   UNL     1       2.100   9.747  17.372  0.00  0.00    +0.000 HD
BRANCH  22  24
ATOM     24  C   UNL     1       0.836   9.930  19.060  0.00  0.00    +0.000 C 
BRANCH  24  25
ATOM     25  C   UNL     1      -0.485  10.401  18.491  0.00  0.00    +0.000 A 
ATOM     26  C   UNL     1      -1.170  11.529  18.965  0.00  0.00    +0.000 A 
ATOM     27  C   UNL     1      -2.431  11.867  18.462  0.00  0.00    +0.000 A 
ATOM     28  C   UNL     1      -3.004  11.100  17.451  0.00  0.00    +0.000 A 
ATOM     29 CL   UNL     1      -4.579  11.485  16.875  0.00  0.00    +0.000 Cl
ATOM     30  C   UNL     1      -2.312  10.021  16.913  0.00  0.00    +0.000 A 
ATOM     31  C   UNL     1      -1.058   9.676  17.428  0.00  0.00    +0.000 A 
ENDBRANCH  24  25
ENDBRANCH  22  24
ENDBRANCH  19  20
ENDBRANCH   1  19
TORSDOF 7
ENDMDL
MODEL 8
REMARK VINA RESULT:      -7.2      4.375      9.725
REMARK  Name = 
REMARK  9 active torsions:
REMARK  status: ('A' for Active; 'I' for Inactive)
REMARK    1  A    between atoms: C_1  and  C_2
REMARK    2  A    between atoms: C_5  and  S_6
REMARK    3  A    between atoms: S_6  and  N_9
REMARK    4  A    between atoms: N_9  and  C_10
REMARK    5  A    between atoms: N_9  and  C_22
REMARK    6  A    between atoms: C_10  and  C_11
REMARK    7  A    between atoms: N_13  and  C_14
REMARK    8  A    between atoms: C_14  and  C_15
REMARK    9  A    between atoms: C_25  and  C_26
REMARK                            x       y       z     vdW  Elec       q    Type
REMARK                         _______ _______ _______ _____ _____    ______ ____
ROOT
ATOM      1  N   UNL     1       0.616  10.963  21.109  0.00  0.00    +0.000 N 
ENDROOT
BRANCH   1   2
ATOM      2  C   UNL     1      -0.261  11.786  21.877  0.00  0.00    +0.000 A 
ATOM      3  C   UNL     1      -1.320  11.238  22.591  0.00  0.00    +0.000 A 
ATOM      4  C   UNL     1      -2.137  12.072  23.355  0.00  0.00    +0.000 A 
ATOM      5  C   UNL     1      -1.870  13.439  23.381  0.00  0.00    +0.000 A 
ATOM      6  C   UNL     1      -2.724  14.373  24.186  0.00  0.00    +0.000 C 
ATOM      7  N   UNL     1      -0.842  13.992  22.694  0.00  0.00    +0.000 NA
ATOM      8  C   UNL     1      -0.070  13.160  21.951  0.00  0.00    +0.000 A 
ENDBRANCH   1   2
BRANCH   1   9
ATOM      9  S   UNL     1       0.721  11.220  19.439  0.00  0.00    +0.000 S 
ATOM     10  O   UNL     1       1.473  10.133  18.853  0.00  0.00    +0.000 OA
ATOM     11  O   UNL     1       1.106  12.594  19.201  0.00  0.00    +0.000 OA
BRANCH   9  16
ATOM     12  C   UNL     1      -4.827  11.060  17.066  0.00  0.00    +0.000 C 
ATOM     13  C   UNL     1      -3.532  10.986  17.821  0.00  0.00    +0.000 A 
ATOM     14  C   UNL     1      -2.661   9.904  17.644  0.00  0.00    +0.000 A 
ATOM     15  C   UNL     1      -1.380   9.933  18.200  0.00  0.00    +0.000 A 
ATOM     16  C   UNL     1      -0.973  11.060  18.919  0.00  0.00    +0.000 A 
ATOM     17  C   UNL     1      -1.875  12.085  19.206  0.00  0.00    +0.000 A 
ATOM     18  C   UNL     1      -3.146  12.055  18.639  0.00  0.00    +0.000 A 
ENDBRANCH   9  16
ENDBRANCH   1   9
BRANCH   1  19
ATOM     19  C   UNL     1       1.302   9.828  21.748  0.00  0.00    +0.000 C 
BRANCH  19  20
ATOM     20  C   UNL     1       0.867   8.423  21.369  0.00  0.00    +0.000 C 
ATOM     21  O   UNL     1      -0.311   8.071  21.390  0.00  0.00    +0.000 OA
ATOM     22  N   UNL     1       1.876   7.571  20.952  0.00  0.00    +0.000 N 
ATOM     23  H   UNL     1       2.724   7.996  20.607  0.00  0.00    +0.000 HD
BRANCH  22  24
ATOM     24  C   UNL     1       1.531   6.256  20.437  0.00  0.00    +0.000 C 
BRANCH  24  25
ATOM     25  C   UNL     1       2.386   5.771  19.286  0.00  0.00    +0.000 A 
ATOM     26  C   UNL     1       2.569   4.415  18.980  0.00  0.00    +0.000 A 
ATOM     27  C   UNL     1       3.442   4.021  17.960  0.00  0.00    +0.000 A 
ATOM     28  C   UNL     1       4.113   4.982  17.209  0.00  0.00    +0.000 A 
ATOM     29 CL   UNL     1       5.228   4.493  15.994  0.00  0.00    +0.000 Cl
ATOM     30  C   UNL     1       3.890   6.335  17.445  0.00  0.00    +0.000 A 
ATOM     31  C   UNL     1       3.030   6.726  18.475  0.00  0.00    +0.000 A 
ENDBRANCH  24  25
ENDBRANCH  22  24
ENDBRANCH  19  20
ENDBRANCH   1  19
TORSDOF 7
ENDMDL
MODEL 9
REMARK VINA RESULT:      -7.1      4.593      9.529
REMARK  Name = 
REMARK  9 active torsions:
REMARK  status: ('A' for Active; 'I' for Inactive)
REMARK    1  A    between atoms: C_1  and  C_2
REMARK    2  A    between atoms: C_5  and  S_6
REMARK    3  A    between atoms: S_6  and  N_9
REMARK    4  A    between atoms: N_9  and  C_10
REMARK    5  A    between atoms: N_9  and  C_22
REMARK    6  A    between atoms: C_10  and  C_11
REMARK    7  A    between atoms: N_13  and  C_14
REMARK    8  A    between atoms: C_14  and  C_15
REMARK    9  A    between atoms: C_25  and  C_26
REMARK                            x       y       z     vdW  Elec       q    Type
REMARK                         _______ _______ _______ _____ _____    ______ ____
ROOT
ATOM      1  N   UNL     1      -0.138  10.912  19.763  0.00  0.00    +0.000 N 
ENDROOT
BRANCH   1   2
ATOM      2  C   UNL     1      -1.442  11.016  19.192  0.00  0.00    +0.000 A 
ATOM      3  C   UNL     1      -2.287  12.070  19.517  0.00  0.00    +0.000 A 
ATOM      4  C   UNL     1      -3.544  12.153  18.914  0.00  0.00    +0.000 A 
ATOM      5  C   UNL     1      -3.920  11.172  18.000  0.00  0.00    +0.000 A 
ATOM      6  C   UNL     1      -5.261  11.220  17.332  0.00  0.00    +0.000 C 
ATOM      7  N   UNL     1      -3.109  10.138  17.668  0.00  0.00    +0.000 NA
ATOM      8  C   UNL     1      -1.899  10.075  18.276  0.00  0.00    +0.000 A 
ENDBRANCH   1   2
BRANCH   1   9
ATOM      9  S   UNL     1       0.010  10.398  21.369  0.00  0.00    +0.000 S 
ATOM     10  O   UNL     1       1.413  10.382  21.719  0.00  0.00    +0.000 OA
ATOM     11  O   UNL     1      -0.809   9.222  21.560  0.00  0.00    +0.000 OA
BRANCH   9  16
ATOM     12  C   UNL     1      -3.013  15.025  23.795  0.00  0.00    +0.000 C 
ATOM     13  C   UNL     1      -2.164  13.857  23.385  0.00  0.00    +0.000 A 
ATOM     14  C   UNL     1      -2.607  12.544  23.591  0.00  0.00    +0.000 A 
ATOM     15  C   UNL     1      -1.904  11.470  23.040  0.00  0.00    +0.000 A 
ATOM     16  C   UNL     1      -0.766  11.722  22.268  0.00  0.00    +0.000 A 
ATOM     17  C   UNL     1      -0.249  13.014  22.164  0.00  0.00    +0.000 A 
ATOM     18  C   UNL     1      -0.961  14.080  22.706  0.00  0.00    +0.000 A 
ENDBRANCH   9  16
ENDBRANCH   1   9
BRANCH   1  19
ATOM     19  C   UNL     1       1.033  11.379  19.003  0.00  0.00    +0.000 C 
BRANCH  19  20
ATOM     20  C   UNL     1       1.841  10.351  18.230  0.00  0.00    +0.000 C 
ATOM     21  O   UNL     1       2.625  10.665  17.337  0.00  0.00    +0.000 OA
ATOM     22  N   UNL     1       1.675   9.033  18.625  0.00  0.00    +0.000 N 
ATOM     23  H   UNL     1       1.331   8.874  19.560  0.00  0.00    +0.000 HD
BRANCH  22  24
ATOM     24  C   UNL     1       2.515   8.002  18.037  0.00  0.00    +0.000 C 
BRANCH  24  25
ATOM     25  C   UNL     1       2.475   6.662  18.739  0.00  0.00    +0.000 A 
ATOM     26  C   UNL     1       2.041   6.498  20.062  0.00  0.00    +0.000 A 
ATOM     27  C   UNL     1       2.109   5.249  20.690  0.00  0.00    +0.000 A 
ATOM     28  C   UNL     1       2.577   4.142  19.988  0.00  0.00    +0.000 A 
ATOM     29 CL   UNL     1       2.712   2.622  20.781  0.00  0.00    +0.000 Cl
ATOM     30  C   UNL     1       2.943   4.265  18.651  0.00  0.00    +0.000 A 
ATOM     31  C   UNL     1       2.888   5.517  18.031  0.00  0.00    +0.000 A 
ENDBRANCH  24  25
ENDBRANCH  22  24
ENDBRANCH  19  20
ENDBRANCH   1  19
TORSDOF 7
ENDMDL
