MODEL 1
REMARK VINA RESULT:      -7.4      0.000      0.000
REMARK  Name = 
REMARK  4 active torsions:
REMARK  status: ('A' for Active; 'I' for Inactive)
REMARK    1  A    between atoms: C_1  and  O_2
REMARK    2  A    between atoms: O_2  and  C_3
REMARK    3  A    between atoms: C_8  and  C_9
REMARK    4  A    between atoms: C_18  and  C_19
REMARK                            x       y       z     vdW  Elec       q    Type
REMARK                         _______ _______ _______ _____ _____    ______ ____
ROOT
ATOM      1  C   UNL     1       2.207   3.923  17.543  0.00  0.00    +0.000 A 
ATOM      2  N   UNL     1       2.511   2.884  16.734  0.00  0.00    +0.000 NA
ATOM      3  N   UNL     1       3.755   2.781  16.224  0.00  0.00    +0.000 NA
ATOM      4  C   UNL     1       4.685   3.704  16.552  0.00  0.00    +0.000 A 
ATOM      5 CL   UNL     1       6.176   3.403  15.732  0.00  0.00    +0.000 Cl
ATOM      6  C   UNL     1       4.455   4.800  17.401  0.00  0.00    +0.000 A 
ATOM      7  C   UNL     1       3.119   4.941  17.894  0.00  0.00    +0.000 A 
ENDROOT
BRANCH   6   8
ATOM      8  C   UNL     1       5.567   5.719  17.782  0.00  0.00    +0.000 A 
ATOM      9  C   UNL     1       6.391   5.496  18.899  0.00  0.00    +0.000 A 
ATOM     10  F   UNL     1       6.120   4.486  19.739  0.00  0.00    +0.000 F 
ATOM     11  C   UNL     1       7.534   6.250  19.142  0.00  0.00    +0.000 A 
ATOM     12  C   UNL     1       7.826   7.326  18.316  0.00  0.00    +0.000 A 
ATOM     13  F   UNL     1       8.914   8.056  18.553  0.00  0.00    +0.000 F 
ATOM     14  C   UNL     1       7.002   7.645  17.255  0.00  0.00    +0.000 A 
ATOM     15  C   UNL     1       5.905   6.828  16.981  0.00  0.00    +0.000 A 
ATOM     16  F   UNL     1       5.183   7.111  15.886  0.00  0.00    +0.000 F 
ENDBRANCH   6   8
BRANCH   7  17
ATOM     17  C   UNL     1       2.650   6.096  18.720  0.00  0.00    +0.000 A 
ATOM     18  C   UNL     1       2.343   5.925  20.087  0.00  0.00    +0.000 A 
ATOM     19  C   UNL     1       1.826   6.969  20.867  0.00  0.00    +0.000 A 
ATOM     20  C   UNL     1       1.561   8.193  20.279  0.00  0.00    +0.000 A 
ATOM     21 CL   UNL     1       0.849   9.457  21.208  0.00  0.00    +0.000 Cl
ATOM     22  C   UNL     1       1.865   8.407  18.938  0.00  0.00    +0.000 A 
ATOM     23  C   UNL     1       2.445   7.380  18.181  0.00  0.00    +0.000 A 
ENDBRANCH   7  17
BRANCH   1  25
ATOM     24  C   UNL     1       0.589   2.894  18.889  0.00  0.00    +0.000 C 
ATOM     25  O   UNL     1       0.920   3.992  18.045  0.00  0.00    +0.000 OA
ENDBRANCH   1  25
TORSDOF 3
ENDMDL
MODEL 2
REMARK VINA RESULT:      -6.8      0.532      1.725
REMARK  Name = 
REMARK  4 active torsions:
REMARK  status: ('A' for Active; 'I' for Inactive)
REMARK    1  A    between atoms: C_1  and  O_2
REMARK    2  A    between atoms: O_2  and  C_3
REMARK    3  A    between atoms: C_8  and  C_9
REMARK    4  A    between atoms: C_18  and  C_19
REMARK                            x       y       z     vdW  Elec       q    Type
REMARK                         _______ _______ _______ _____ _____    ______ ____
ROOT
ATOM      1  C   UNL     1       2.119   3.884  17.956  0.00  0.00    +0.000 A 
ATOM      2  N   UNL     1       2.361   2.707  17.338  0.00  0.00    +0.000 NA
ATOM      3  N   UNL     1       3.552   2.503  16.739  0.00  0.00    +0.000 NA
ATOM      4  C   UNL     1       4.495   3.470  16.791  0.00  0.00    +0.000 A 
ATOM      5 CL   UNL     1       5.905   3.012  15.904  0.00  0.00    +0.000 Cl
ATOM      6  C   UNL     1       4.329   4.711  17.429  0.00  0.00    +0.000 A 
ATOM      7  C   UNL     1       3.044   4.948  18.013  0.00  0.00    +0.000 A 
ENDROOT
BRANCH   6   8
ATOM      8  C   UNL     1       5.457   5.683  17.517  0.00  0.00    +0.000 A 
ATOM      9  C   UNL     1       5.593   6.775  16.640  0.00  0.00    +0.000 A 
ATOM     10  F   UNL     1       4.753   6.908  15.604  0.00  0.00    +0.000 F 
ATOM     11  C   UNL     1       6.537   7.775  16.841  0.00  0.00    +0.000 A 
ATOM     12  C   UNL     1       7.448   7.652  17.880  0.00  0.00    +0.000 A 
ATOM     13  F   UNL     1       8.360   8.604  18.067  0.00  0.00    +0.000 F 
ATOM     14  C   UNL     1       7.417   6.556  18.719  0.00  0.00    +0.000 A 
ATOM     15  C   UNL     1       6.412   5.604  18.551  0.00  0.00    +0.000 A 
ATOM     16  F   UNL     1       6.353   4.604  19.443  0.00  0.00    +0.000 F 
ENDBRANCH   6   8
BRANCH   7  17
ATOM     17  C   UNL     1       2.638   6.243  18.642  0.00  0.00    +0.000 A 
ATOM     18  C   UNL     1       2.395   6.323  20.030  0.00  0.00    +0.000 A 
ATOM     19  C   UNL     1       1.936   7.502  20.635  0.00  0.00    +0.000 A 
ATOM     20  C   UNL     1       1.666   8.610  19.852  0.00  0.00    +0.000 A 
ATOM     21 CL   UNL     1       1.023  10.037  20.574  0.00  0.00    +0.000 Cl
ATOM     22  C   UNL     1       1.907   8.576  18.482  0.00  0.00    +0.000 A 
ATOM     23  C   UNL     1       2.431   7.417  17.894  0.00  0.00    +0.000 A 
ENDBRANCH   7  17
BRANCH   1  25
ATOM     24  C   UNL     1       0.622   3.090  19.573  0.00  0.00    +0.000 C 
ATOM     25  O   UNL     1       0.885   4.053  18.557  0.00  0.00    +0.000 OA
ENDBRANCH   1  25
TORSDOF 3
ENDMDL
MODEL 3
REMARK VINA RESULT:      -6.7      2.966      5.447
REMARK  Name = 
REMARK  4 active torsions:
REMARK  status: ('A' for Active; 'I' for Inactive)
REMARK    1  A    between atoms: C_1  and  O_2
REMARK    2  A    between atoms: O_2  and  C_3
REMARK    3  A    between atoms: C_8  and  C_9
REMARK    4  A    between atoms: C_18  and  C_19
REMARK                            x       y       z     vdW  Elec       q    Type
REMARK                         _______ _______ _______ _____ _____    ______ ____
ROOT
ATOM      1  C   UNL     1       6.517   4.794  15.641  0.00  0.00    +0.000 A 
ATOM      2  N   UNL     1       5.928   3.749  15.018  0.00  0.00    +0.000 NA
ATOM      3  N   UNL     1       4.731   3.305  15.453  0.00  0.00    +0.000 NA
ATOM      4  C   UNL     1       4.128   3.930  16.489  0.00  0.00    +0.000 A 
ATOM      5 CL   UNL     1       2.644   3.150  16.907  0.00  0.00    +0.000 Cl
ATOM      6  C   UNL     1       4.664   5.033  17.175  0.00  0.00    +0.000 A 
ATOM      7  C   UNL     1       5.961   5.465  16.751  0.00  0.00    +0.000 A 
ENDROOT
BRANCH   6   8
ATOM      8  C   UNL     1       3.886   5.719  18.248  0.00  0.00    +0.000 A 
ATOM      9  C   UNL     1       3.252   6.959  18.055  0.00  0.00    +0.000 A 
ATOM     10  F   UNL     1       3.431   7.631  16.909  0.00  0.00    +0.000 F 
ATOM     11  C   UNL     1       2.380   7.501  18.994  0.00  0.00    +0.000 A 
ATOM     12  C   UNL     1       2.200   6.854  20.207  0.00  0.00    +0.000 A 
ATOM     13  F   UNL     1       1.374   7.376  21.111  0.00  0.00    +0.000 F 
ATOM     14  C   UNL     1       2.865   5.676  20.485  0.00  0.00    +0.000 A 
ATOM     15  C   UNL     1       3.673   5.107  19.500  0.00  0.00    +0.000 A 
ATOM     16  F   UNL     1       4.227   3.915  19.768  0.00  0.00    +0.000 F 
ENDBRANCH   6   8
BRANCH   7  17
ATOM     17  C   UNL     1       6.743   6.548  17.423  0.00  0.00    +0.000 A 
ATOM     18  C   UNL     1       6.668   7.881  16.963  0.00  0.00    +0.000 A 
ATOM     19  C   UNL     1       7.449   8.903  17.522  0.00  0.00    +0.000 A 
ATOM     20  C   UNL     1       8.357   8.598  18.521  0.00  0.00    +0.000 A 
ATOM     21 CL   UNL     1       9.381   9.830  19.157  0.00  0.00    +0.000 Cl
ATOM     22  C   UNL     1       8.449   7.300  19.012  0.00  0.00    +0.000 A 
ATOM     23  C   UNL     1       7.617   6.297  18.497  0.00  0.00    +0.000 A 
ENDBRANCH   7  17
BRANCH   1  25
ATOM     24  C   UNL     1       7.793   5.301  13.744  0.00  0.00    +0.000 C 
ATOM     25  O   UNL     1       7.744   5.217  15.165  0.00  0.00    +0.000 OA
ENDBRANCH   1  25
TORSDOF 3
ENDMDL
MODEL 4
REMARK VINA RESULT:      -6.4      8.732     10.759
REMARK  Name = 
REMARK  4 active torsions:
REMARK  status: ('A' for Active; 'I' for Inactive)
REMARK    1  A    between atoms: C_1  and  O_2
REMARK    2  A    between atoms: O_2  and  C_3
REMARK    3  A    between atoms: C_8  and  C_9
REMARK    4  A    between atoms: C_18  and  C_19
REMARK                            x       y       z     vdW  Elec       q    Type
REMARK                         _______ _______ _______ _____ _____    ______ ____
ROOT
ATOM      1  C   UNL     1      10.097  16.402  19.091  0.00  0.00    +0.000 A 
ATOM      2  N   UNL     1      10.877  16.697  18.028  0.00  0.00    +0.000 NA
ATOM      3  N   UNL     1      11.310  15.704  17.225  0.00  0.00    +0.000 NA
ATOM      4  C   UNL     1      10.932  14.432  17.481  0.00  0.00    +0.000 A 
ATOM      5 CL   UNL     1      11.657  13.332  16.363  0.00  0.00    +0.000 Cl
ATOM      6  C   UNL     1      10.108  14.046  18.552  0.00  0.00    +0.000 A 
ATOM      7  C   UNL     1       9.699  15.093  19.437  0.00  0.00    +0.000 A 
ENDROOT
BRANCH   6   8
ATOM      8  C   UNL     1       9.666  12.629  18.705  0.00  0.00    +0.000 A 
ATOM      9  C   UNL     1       8.704  12.036  17.868  0.00  0.00    +0.000 A 
ATOM     10  F   UNL     1       8.057  12.781  16.960  0.00  0.00    +0.000 F 
ATOM     11  C   UNL     1       8.434  10.672  17.898  0.00  0.00    +0.000 A 
ATOM     12  C   UNL     1       9.055   9.877  18.849  0.00  0.00    +0.000 A 
ATOM     13  F   UNL     1       8.790   8.573  18.886  0.00  0.00    +0.000 F 
ATOM     14  C   UNL     1       9.944  10.422  19.754  0.00  0.00    +0.000 A 
ATOM     15  C   UNL     1      10.263  11.777  19.656  0.00  0.00    +0.000 A 
ATOM     16  F   UNL     1      11.202  12.252  20.488  0.00  0.00    +0.000 F 
ENDBRANCH   6   8
BRANCH   7  17
ATOM     17  C   UNL     1       8.912  14.870  20.689  0.00  0.00    +0.000 A 
ATOM     18  C   UNL     1       7.500  14.871  20.661  0.00  0.00    +0.000 A 
ATOM     19  C   UNL     1       6.736  14.745  21.830  0.00  0.00    +0.000 A 
ATOM     20  C   UNL     1       7.373  14.663  23.056  0.00  0.00    +0.000 A 
ATOM     21 CL   UNL     1       6.443  14.591  24.505  0.00  0.00    +0.000 Cl
ATOM     22  C   UNL     1       8.763  14.643  23.124  0.00  0.00    +0.000 A 
ATOM     23  C   UNL     1       9.521  14.701  21.947  0.00  0.00    +0.000 A 
ENDBRANCH   7  17
BRANCH   1  25
ATOM     24  C   UNL     1       8.743  18.308  19.240  0.00  0.00    +0.000 C 
ATOM     25  O   UNL     1       9.676  17.450  19.889  0.00  0.00    +0.000 OA
ENDBRANCH   1  25
TORSDOF 3
ENDMDL
MODEL 5
REMARK VINA RESULT:      -6.3      2.709      5.124
REMARK  Name = 
REMARK  4 active torsions:
REMARK  status: ('A' for Active; 'I' for Inactive)
REMARK    1  A    between atoms: C_1  and  O_2
REMARK    2  A    between atoms: O_2  and  C_3
REMARK    3  A    between atoms: C_8  and  C_9
REMARK    4  A    between atoms: C_18  and  C_19
REMARK                            x       y       z     vdW  Elec       q    Type
REMARK                         _______ _______ _______ _____ _____    ______ ____
ROOT
ATOM      1  C   UNL     1       4.978   3.722  16.540  0.00  0.00    +0.000 A 
ATOM      2  N   UNL     1       4.070   2.745  16.319  0.00  0.00    +0.000 NA
ATOM      3  N   UNL     1       2.838   2.849  16.855  0.00  0.00    +0.000 NA
ATOM      4  C   UNL     1       2.521   3.942  17.584  0.00  0.00    +0.000 A 
ATOM      5 CL   UNL     1       0.919   3.823  18.218  0.00  0.00    +0.000 Cl
ATOM      6  C   UNL     1       3.399   5.008  17.843  0.00  0.00    +0.000 A 
ATOM      7  C   UNL     1       4.725   4.868  17.323  0.00  0.00    +0.000 A 
ENDROOT
BRANCH   6   8
ATOM      8  C   UNL     1       2.935   6.220  18.580  0.00  0.00    +0.000 A 
ATOM      9  C   UNL     1       2.709   7.456  17.949  0.00  0.00    +0.000 A 
ATOM     10  F   UNL     1       3.023   7.614  16.655  0.00  0.00    +0.000 F 
ATOM     11  C   UNL     1       2.104   8.524  18.604  0.00  0.00    +0.000 A 
ATOM     12  C   UNL     1       1.801   8.410  19.952  0.00  0.00    +0.000 A 
ATOM     13  F   UNL     1       1.231   9.435  20.583  0.00  0.00    +0.000 F 
ATOM     14  C   UNL     1       2.081   7.249  20.644  0.00  0.00    +0.000 A 
ATOM     15  C   UNL     1       2.614   6.161  19.952  0.00  0.00    +0.000 A 
ATOM     16  F   UNL     1       2.784   5.018  20.633  0.00  0.00    +0.000 F 
ENDBRANCH   6   8
BRANCH   7  17
ATOM     17  C   UNL     1       5.831   5.841  17.581  0.00  0.00    +0.000 A 
ATOM     18  C   UNL     1       6.743   5.630  18.639  0.00  0.00    +0.000 A 
ATOM     19  C   UNL     1       7.740   6.563  18.954  0.00  0.00    +0.000 A 
ATOM     20  C   UNL     1       7.813   7.750  18.246  0.00  0.00    +0.000 A 
ATOM     21 CL   UNL     1       8.982   8.940  18.680  0.00  0.00    +0.000 Cl
ATOM     22  C   UNL     1       6.943   7.988  17.187  0.00  0.00    +0.000 A 
ATOM     23  C   UNL     1       5.993   7.022  16.832  0.00  0.00    +0.000 A 
ENDBRANCH   7  17
BRANCH   1  25
ATOM     24  C   UNL     1       6.264   3.929  14.594  0.00  0.00    +0.000 C 
ATOM     25  O   UNL     1       6.230   3.576  15.973  0.00  0.00    +0.000 OA
ENDBRANCH   1  25
TORSDOF 3
ENDMDL
MODEL 6
REMARK VINA RESULT:      -6.3      8.747     10.699
REMARK  Name = 
REMARK  4 active torsions:
REMARK  status: ('A' for Active; 'I' for Inactive)
REMARK    1  A    between atoms: C_1  and  O_2
REMARK    2  A    between atoms: O_2  and  C_3
REMARK    3  A    between atoms: C_8  and  C_9
REMARK    4  A    between atoms: C_18  and  C_19
REMARK                            x       y       z     vdW  Elec       q    Type
REMARK                         _______ _______ _______ _____ _____    ______ ____
ROOT
ATOM      1  C   UNL     1      10.309  16.374  19.603  0.00  0.00    +0.000 A 
ATOM      2  N   UNL     1      11.214  16.788  18.688  0.00  0.00    +0.000 NA
ATOM      3  N   UNL     1      11.786  15.887  17.864  0.00  0.00    +0.000 NA
ATOM      4  C   UNL     1      11.424  14.587  17.948  0.00  0.00    +0.000 A 
ATOM      5 CL   UNL     1      12.331  13.618  16.843  0.00  0.00    +0.000 Cl
ATOM      6  C   UNL     1      10.478  14.081  18.855  0.00  0.00    +0.000 A 
ATOM      7  C   UNL     1       9.916  15.029  19.769  0.00  0.00    +0.000 A 
ENDROOT
BRANCH   6   8
ATOM      8  C   UNL     1      10.071  12.646  18.815  0.00  0.00    +0.000 A 
ATOM      9  C   UNL     1      10.594  11.680  19.693  0.00  0.00    +0.000 A 
ATOM     10  F   UNL     1      11.583  12.009  20.537  0.00  0.00    +0.000 F 
ATOM     11  C   UNL     1      10.079  10.391  19.772  0.00  0.00    +0.000 A 
ATOM     12  C   UNL     1       9.082  10.003  18.890  0.00  0.00    +0.000 A 
ATOM     13  F   UNL     1       8.593   8.766  18.957  0.00  0.00    +0.000 F 
ATOM     14  C   UNL     1       8.591  10.885  17.947  0.00  0.00    +0.000 A 
ATOM     15  C   UNL     1       9.064  12.197  17.937  0.00  0.00    +0.000 A 
ATOM     16  F   UNL     1       8.497  13.052  17.073  0.00  0.00    +0.000 F 
ENDBRANCH   6   8
BRANCH   7  17
ATOM     17  C   UNL     1       8.977  14.668  20.875  0.00  0.00    +0.000 A 
ATOM     18  C   UNL     1       9.470  14.240  22.127  0.00  0.00    +0.000 A 
ATOM     19  C   UNL     1       8.615  13.819  23.156  0.00  0.00    +0.000 A 
ATOM     20  C   UNL     1       7.250  13.774  22.933  0.00  0.00    +0.000 A 
ATOM     21 CL   UNL     1       6.198  13.181  24.162  0.00  0.00    +0.000 Cl
ATOM     22  C   UNL     1       6.724  14.202  21.719  0.00  0.00    +0.000 A 
ATOM     23  C   UNL     1       7.578  14.686  20.718  0.00  0.00    +0.000 A 
ENDBRANCH   7  17
BRANCH   1  25
ATOM     24  C   UNL     1       9.222  18.446  19.717  0.00  0.00    +0.000 C 
ATOM     25  O   UNL     1       9.747  17.329  20.429  0.00  0.00    +0.000 OA
ENDBRANCH   1  25
TORSDOF 3
ENDMDL
MODEL 7
REMARK VINA RESULT:      -6.2      2.952      5.306
REMARK  Name = 
REMARK  4 active torsions:
REMARK  status: ('A' for Active; 'I' for Inactive)
REMARK    1  A    between atoms: C_1  and  O_2
REMARK    2  A    between atoms: O_2  and  C_3
REMARK    3  A    between atoms: C_8  and  C_9
REMARK    4  A    between atoms: C_18  and  C_19
REMARK                            x       y       z     vdW  Elec       q    Type
REMARK                         _______ _______ _______ _____ _____    ______ ____
ROOT
ATOM      1  C   UNL     1       6.522   4.486  15.748  0.00  0.00    +0.000 A 
ATOM      2  N   UNL     1       5.873   3.420  15.228  0.00  0.00    +0.000 NA
ATOM      3  N   UNL     1       4.640   3.109  15.678  0.00  0.00    +0.000 NA
ATOM      4  C   UNL     1       4.063   3.884  16.622  0.00  0.00    +0.000 A 
ATOM      5 CL   UNL     1       2.521   3.256  17.084  0.00  0.00    +0.000 Cl
ATOM      6  C   UNL     1       4.662   5.018  17.197  0.00  0.00    +0.000 A 
ATOM      7  C   UNL     1       5.993   5.312  16.762  0.00  0.00    +0.000 A 
ENDROOT
BRANCH   6   8
ATOM      8  C   UNL     1       3.913   5.870  18.167  0.00  0.00    +0.000 A 
ATOM      9  C   UNL     1       3.359   7.115  17.819  0.00  0.00    +0.000 A 
ATOM     10  F   UNL     1       3.594   7.635  16.606  0.00  0.00    +0.000 F 
ATOM     11  C   UNL     1       2.510   7.813  18.670  0.00  0.00    +0.000 A 
ATOM     12  C   UNL     1       2.274   7.325  19.947  0.00  0.00    +0.000 A 
ATOM     13  F   UNL     1       1.470   7.997  20.767  0.00  0.00    +0.000 F 
ATOM     14  C   UNL     1       2.862   6.150  20.373  0.00  0.00    +0.000 A 
ATOM     15  C   UNL     1       3.646   5.423  19.477  0.00  0.00    +0.000 A 
ATOM     16  F   UNL     1       4.122   4.239  19.893  0.00  0.00    +0.000 F 
ENDBRANCH   6   8
BRANCH   7  17
ATOM     17  C   UNL     1       6.835   6.408  17.332  0.00  0.00    +0.000 A 
ATOM     18  C   UNL     1       7.654   6.175  18.459  0.00  0.00    +0.000 A 
ATOM     19  C   UNL     1       8.393   7.203  19.063  0.00  0.00    +0.000 A 
ATOM     20  C   UNL     1       8.288   8.495  18.578  0.00  0.00    +0.000 A 
ATOM     21 CL   UNL     1       9.127   9.778  19.364  0.00  0.00    +0.000 Cl
ATOM     22  C   UNL     1       7.504   8.762  17.460  0.00  0.00    +0.000 A 
ATOM     23  C   UNL     1       6.822   7.719  16.819  0.00  0.00    +0.000 A 
ENDBRANCH   7  17
BRANCH   1  25
ATOM     24  C   UNL     1       7.783   5.134  13.884  0.00  0.00    +0.000 C 
ATOM     25  O   UNL     1       7.784   4.770  15.261  0.00  0.00    +0.000 OA
ENDBRANCH   1  25
TORSDOF 3
ENDMDL
MODEL 8
REMARK VINA RESULT:      -6.2      8.701     10.631
REMARK  Name = 
REMARK  4 active torsions:
REMARK  status: ('A' for Active; 'I' for Inactive)
REMARK    1  A    between atoms: C_1  and  O_2
REMARK    2  A    between atoms: O_2  and  C_3
REMARK    3  A    between atoms: C_8  and  C_9
REMARK    4  A    between atoms: C_18  and  C_19
REMARK                            x       y       z     vdW  Elec       q    Type
REMARK                         _______ _______ _______ _____ _____    ______ ____
ROOT
ATOM      1  C   UNL     1       9.887  16.362  19.569  0.00  0.00    +0.000 A 
ATOM      2  N   UNL     1      10.719  16.838  18.616  0.00  0.00    +0.000 NA
ATOM      3  N   UNL     1      11.317  15.978  17.767  0.00  0.00    +0.000 NA
ATOM      4  C   UNL     1      11.052  14.656  17.865  0.00  0.00    +0.000 A 
ATOM      5 CL   UNL     1      11.976  13.751  16.721  0.00  0.00    +0.000 Cl
ATOM      6  C   UNL     1      10.185  14.086  18.813  0.00  0.00    +0.000 A 
ATOM      7  C   UNL     1       9.599  14.993  19.751  0.00  0.00    +0.000 A 
ENDROOT
BRANCH   6   8
ATOM      8  C   UNL     1       9.880  12.626  18.789  0.00  0.00    +0.000 A 
ATOM      9  C   UNL     1      10.449  11.713  19.696  0.00  0.00    +0.000 A 
ATOM     10  F   UNL     1      11.393  12.124  20.554  0.00  0.00    +0.000 F 
ATOM     11  C   UNL     1      10.022  10.393  19.786  0.00  0.00    +0.000 A 
ATOM     12  C   UNL     1       9.074   9.922  18.889  0.00  0.00    +0.000 A 
ATOM     13  F   UNL     1       8.672   8.655  18.968  0.00  0.00    +0.000 F 
ATOM     14  C   UNL     1       8.545  10.752  17.921  0.00  0.00    +0.000 A 
ATOM     15  C   UNL     1       8.926  12.093  17.898  0.00  0.00    +0.000 A 
ATOM     16  F   UNL     1       8.321  12.893  17.007  0.00  0.00    +0.000 F 
ENDBRANCH   6   8
BRANCH   7  17
ATOM     17  C   UNL     1       8.737  14.569  20.898  0.00  0.00    +0.000 A 
ATOM     18  C   UNL     1       7.330  14.557  20.775  0.00  0.00    +0.000 A 
ATOM     19  C   UNL     1       6.495  14.241  21.855  0.00  0.00    +0.000 A 
ATOM     20  C   UNL     1       7.052  13.978  23.095  0.00  0.00    +0.000 A 
ATOM     21 CL   UNL     1       6.032  13.671  24.448  0.00  0.00    +0.000 Cl
ATOM     22  C   UNL     1       8.434  13.966  23.253  0.00  0.00    +0.000 A 
ATOM     23  C   UNL     1       9.266  14.214  22.153  0.00  0.00    +0.000 A 
ENDBRANCH   7  17
BRANCH   1  25
ATOM     24  C   UNL     1       9.554  18.630  20.055  0.00  0.00    +0.000 C 
ATOM     25  O   UNL     1       9.296  17.278  20.421  0.00  0.00    +0.000 OA
ENDBRANCH   1  25
TORSDOF 3
ENDMDL
MODEL 9
REMARK VINA RESULT:      -6.2      2.733      5.276
REMARK  Name = 
REMARK  4 active torsions:
REMARK  status: ('A' for Active; 'I' for Inactive)
REMARK    1  A    between atoms: C_1  and  O_2
REMARK    2  A    between atoms: O_2  and  C_3
REMARK    3  A    between atoms: C_8  and  C_9
REMARK    4  A    between atoms: C_18  and  C_19
REMARK                            x       y       z     vdW  Elec       q    Type
REMARK                         _______ _______ _______ _____ _____    ______ ____
ROOT
ATOM      1  C   UNL     1       4.783   3.740  16.749  0.00  0.00    +0.000 A 
ATOM      2  N   UNL     1       3.892   2.759  16.483  0.00  0.00    +0.000 NA
ATOM      3  N   UNL     1       2.654   2.824  17.014  0.00  0.00    +0.000 NA
ATOM      4  C   UNL     1       2.316   3.884  17.782  0.00  0.00    +0.000 A 
ATOM      5 CL   UNL     1       0.712   3.717  18.400  0.00  0.00    +0.000 Cl
ATOM      6  C   UNL     1       3.177   4.952  18.088  0.00  0.00    +0.000 A 
ATOM      7  C   UNL     1       4.508   4.852  17.573  0.00  0.00    +0.000 A 
ENDROOT
BRANCH   6   8
ATOM      8  C   UNL     1       2.690   6.127  18.868  0.00  0.00    +0.000 A 
ATOM      9  C   UNL     1       2.443   7.381  18.283  0.00  0.00    +0.000 A 
ATOM     10  F   UNL     1       2.755   7.592  16.996  0.00  0.00    +0.000 F 
ATOM     11  C   UNL     1       1.818   8.413  18.974  0.00  0.00    +0.000 A 
ATOM     12  C   UNL     1       1.514   8.246  20.317  0.00  0.00    +0.000 A 
ATOM     13  F   UNL     1       0.925   9.236  20.984  0.00  0.00    +0.000 F 
ATOM     14  C   UNL     1       1.815   7.065  20.966  0.00  0.00    +0.000 A 
ATOM     15  C   UNL     1       2.368   6.013  20.236  0.00  0.00    +0.000 A 
ATOM     16  F   UNL     1       2.558   4.849  20.875  0.00  0.00    +0.000 F 
ENDBRANCH   6   8
BRANCH   7  17
ATOM     17  C   UNL     1       5.598   5.830  17.876  0.00  0.00    +0.000 A 
ATOM     18  C   UNL     1       5.747   7.003  17.105  0.00  0.00    +0.000 A 
ATOM     19  C   UNL     1       6.806   7.898  17.314  0.00  0.00    +0.000 A 
ATOM     20  C   UNL     1       7.765   7.609  18.269  0.00  0.00    +0.000 A 
ATOM     21 CL   UNL     1       9.115   8.659  18.478  0.00  0.00    +0.000 Cl
ATOM     22  C   UNL     1       7.645   6.470  19.060  0.00  0.00    +0.000 A 
ATOM     23  C   UNL     1       6.547   5.615  18.893  0.00  0.00    +0.000 A 
ENDBRANCH   7  17
BRANCH   1  25
ATOM     24  C   UNL     1       6.065   3.976  14.803  0.00  0.00    +0.000 C 
ATOM     25  O   UNL     1       6.041   3.634  16.185  0.00  0.00    +0.000 OA
ENDBRANCH   1  25
TORSDOF 3
ENDMDL
