MODEL 1
REMARK VINA RESULT:      -7.1      0.000      0.000
REMARK  Name = 
REMARK  6 active torsions:
REMARK  status: ('A' for Active; 'I' for Inactive)
REMARK    1  A    between atoms: C_1  and  C_2
REMARK    2  A    between atoms: C_10  and  C_12
REMARK    3  A    between atoms: C_17  and  C_18
REMARK    4  A    between atoms: C_18  and  N_19
REMARK    5  A    between atoms: N_19  and  C_20
REMARK    6  A    between atoms: N_19  and  C_21
REMARK                            x       y       z     vdW  Elec       q    Type
REMARK                         _______ _______ _______ _____ _____    ______ ____
ROOT
ATOM      1  C   UNL     1       0.909   7.879  21.006  0.00  0.00    +0.000 C 
ATOM      2  C   UNL     1       1.903   7.620  19.910  0.00  0.00    +0.000 A 
ATOM      3  C   UNL     1       1.908   8.401  18.750  0.00  0.00    +0.000 A 
ATOM      4  C   UNL     1       2.834   8.149  17.742  0.00  0.00    +0.000 A 
ATOM      5  C   UNL     1       3.741   7.104  17.881  0.00  0.00    +0.000 A 
ATOM      6  C   UNL     1       3.787   6.332  19.047  0.00  0.00    +0.000 A 
ATOM      7  C   UNL     1       2.851   6.599  20.057  0.00  0.00    +0.000 A 
ATOM      8  C   UNL     1       4.838   5.272  19.232  0.00  0.00    +0.000 C 
ATOM      9  N   UNL     1       4.732   4.187  18.255  0.00  0.00    +0.000 N 
ATOM     10  C   UNL     1       3.758   3.169  18.366  0.00  0.00    +0.000 C 
ATOM     11  O   UNL     1       3.558   2.423  17.400  0.00  0.00    +0.000 OA
ATOM     12  C   UNL     1       5.304   4.562  16.912  0.00  0.00    +0.000 C 
ATOM     13  C   UNL     1       4.430   5.634  16.227  0.00  0.00    +0.000 C 
ATOM     14  O   UNL     1       4.623   6.916  16.855  0.00  0.00    +0.000 OA
ENDROOT
BRANCH  10  15
ATOM     15  C   UNL     1       2.963   2.996  19.597  0.00  0.00    +0.000 A 
ATOM     16  C   UNL     1       3.271   2.588  20.884  0.00  0.00    +0.000 A 
ATOM     17  C   UNL     1       2.154   2.634  21.778  0.00  0.00    +0.000 A 
ATOM     18  C   UNL     1       0.988   2.953  21.125  0.00  0.00    +0.000 A 
ATOM     19  S   UNL     1       1.253   3.252  19.465  0.00  0.00    +0.000 S 
ENDBRANCH  10  15
BRANCH  12  20
ATOM     20  C   UNL     1       5.654   3.426  15.902  0.00  0.00    +0.000 C 
BRANCH  20  21
ATOM     21  N   UNL     1       6.632   3.821  14.852  0.00  0.00    +0.000 NA
ATOM     22  C   UNL     1       6.069   3.894  13.510  0.00  0.00    +0.000 C 
ATOM     23  C   UNL     1       7.327   5.052  15.226  0.00  0.00    +0.000 C 
ENDBRANCH  20  21
ENDBRANCH  12  20
TORSDOF 3
ENDMDL
MODEL 2
REMARK VINA RESULT:      -6.8      0.781      1.182
REMARK  Name = 
REMARK  6 active torsions:
REMARK  status: ('A' for Active; 'I' for Inactive)
REMARK    1  A    between atoms: C_1  and  C_2
REMARK    2  A    between atoms: C_10  and  C_12
REMARK    3  A    between atoms: C_17  and  C_18
REMARK    4  A    between atoms: C_18  and  N_19
REMARK    5  A    between atoms: N_19  and  C_20
REMARK    6  A    between atoms: N_19  and  C_21
REMARK                            x       y       z     vdW  Elec       q    Type
REMARK                         _______ _______ _______ _____ _____    ______ ____
ROOT
ATOM      1  C   UNL     1       0.669   8.008  20.967  0.00  0.00    +0.000 C 
ATOM      2  C   UNL     1       1.719   7.815  19.911  0.00  0.00    +0.000 A 
ATOM      3  C   UNL     1       1.807   8.688  18.821  0.00  0.00    +0.000 A 
ATOM      4  C   UNL     1       2.783   8.495  17.848  0.00  0.00    +0.000 A 
ATOM      5  C   UNL     1       3.660   7.421  17.951  0.00  0.00    +0.000 A 
ATOM      6  C   UNL     1       3.624   6.556  19.050  0.00  0.00    +0.000 A 
ATOM      7  C   UNL     1       2.637   6.762  20.025  0.00  0.00    +0.000 A 
ATOM      8  C   UNL     1       4.641   5.459  19.205  0.00  0.00    +0.000 C 
ATOM      9  N   UNL     1       4.570   4.460  18.138  0.00  0.00    +0.000 N 
ATOM     10  C   UNL     1       3.571   3.460  18.110  0.00  0.00    +0.000 C 
ATOM     11  O   UNL     1       3.412   2.801  17.076  0.00  0.00    +0.000 OA
ATOM     12  C   UNL     1       5.226   4.929  16.864  0.00  0.00    +0.000 C 
ATOM     13  C   UNL     1       4.414   6.074  16.222  0.00  0.00    +0.000 C 
ATOM     14  O   UNL     1       4.596   7.295  16.963  0.00  0.00    +0.000 OA
ENDROOT
BRANCH  10  15
ATOM     15  C   UNL     1       2.703   3.207  19.276  0.00  0.00    +0.000 A 
ATOM     16  C   UNL     1       1.372   3.471  19.551  0.00  0.00    +0.000 A 
ATOM     17  C   UNL     1       0.946   2.975  20.825  0.00  0.00    +0.000 A 
ATOM     18  C   UNL     1       1.992   2.457  21.549  0.00  0.00    +0.000 A 
ATOM     19  S   UNL     1       3.457   2.515  20.676  0.00  0.00    +0.000 S 
ENDBRANCH  10  15
BRANCH  12  20
ATOM     20  C   UNL     1       5.610   3.870  15.785  0.00  0.00    +0.000 C 
BRANCH  20  21
ATOM     21  N   UNL     1       5.975   4.449  14.463  0.00  0.00    +0.000 NA
ATOM     22  C   UNL     1       7.336   4.964  14.393  0.00  0.00    +0.000 C 
ATOM     23  C   UNL     1       5.686   3.504  13.385  0.00  0.00    +0.000 C 
ENDBRANCH  20  21
ENDBRANCH  12  20
TORSDOF 3
ENDMDL
MODEL 3
REMARK VINA RESULT:      -6.1      8.847     12.192
REMARK  Name = 
REMARK  6 active torsions:
REMARK  status: ('A' for Active; 'I' for Inactive)
REMARK    1  A    between atoms: C_1  and  C_2
REMARK    2  A    between atoms: C_10  and  C_12
REMARK    3  A    between atoms: C_17  and  C_18
REMARK    4  A    between atoms: C_18  and  N_19
REMARK    5  A    between atoms: N_19  and  C_20
REMARK    6  A    between atoms: N_19  and  C_21
REMARK                            x       y       z     vdW  Elec       q    Type
REMARK                         _______ _______ _______ _____ _____    ______ ____
ROOT
ATOM      1  C   UNL     1      -2.282  10.082  16.745  0.00  0.00    +0.000 C 
ATOM      2  C   UNL     1      -1.944  10.638  18.099  0.00  0.00    +0.000 A 
ATOM      3  C   UNL     1      -0.921  10.073  18.869  0.00  0.00    +0.000 A 
ATOM      4  C   UNL     1      -0.620  10.597  20.123  0.00  0.00    +0.000 A 
ATOM      5  C   UNL     1      -1.352  11.671  20.618  0.00  0.00    +0.000 A 
ATOM      6  C   UNL     1      -2.352  12.283  19.855  0.00  0.00    +0.000 A 
ATOM      7  C   UNL     1      -2.644  11.746  18.591  0.00  0.00    +0.000 A 
ATOM      8  C   UNL     1      -3.068  13.507  20.355  0.00  0.00    +0.000 C 
ATOM      9  N   UNL     1      -3.843  13.257  21.572  0.00  0.00    +0.000 N 
ATOM     10  C   UNL     1      -5.094  12.599  21.543  0.00  0.00    +0.000 C 
ATOM     11  O   UNL     1      -5.587  12.204  22.606  0.00  0.00    +0.000 OA
ATOM     12  C   UNL     1      -2.981  13.219  22.808  0.00  0.00    +0.000 C 
ATOM     13  C   UNL     1      -2.072  11.971  22.800  0.00  0.00    +0.000 C 
ATOM     14  O   UNL     1      -1.000  12.137  21.853  0.00  0.00    +0.000 OA
ENDROOT
BRANCH  10  15
ATOM     15  C   UNL     1      -5.806  12.355  20.275  0.00  0.00    +0.000 A 
ATOM     16  C   UNL     1      -5.962  11.242  19.465  0.00  0.00    +0.000 A 
ATOM     17  C   UNL     1      -6.811  11.475  18.337  0.00  0.00    +0.000 A 
ATOM     18  C   UNL     1      -7.182  12.794  18.238  0.00  0.00    +0.000 A 
ATOM     19  S   UNL     1      -6.561  13.725  19.526  0.00  0.00    +0.000 S 
ENDBRANCH  10  15
BRANCH  12  20
ATOM     20  C   UNL     1      -3.661  13.383  24.201  0.00  0.00    +0.000 C 
BRANCH  20  21
ATOM     21  N   UNL     1      -3.439  14.710  24.837  0.00  0.00    +0.000 NA
ATOM     22  C   UNL     1      -2.051  15.154  24.823  0.00  0.00    +0.000 C 
ATOM     23  C   UNL     1      -4.345  15.712  24.277  0.00  0.00    +0.000 C 
ENDBRANCH  20  21
ENDBRANCH  12  20
TORSDOF 3
ENDMDL
MODEL 4
REMARK VINA RESULT:      -5.9      6.994      9.870
REMARK  Name = 
REMARK  6 active torsions:
REMARK  status: ('A' for Active; 'I' for Inactive)
REMARK    1  A    between atoms: C_1  and  C_2
REMARK    2  A    between atoms: C_10  and  C_12
REMARK    3  A    between atoms: C_17  and  C_18
REMARK    4  A    between atoms: C_18  and  N_19
REMARK    5  A    between atoms: N_19  and  C_20
REMARK    6  A    between atoms: N_19  and  C_21
REMARK                            x       y       z     vdW  Elec       q    Type
REMARK                         _______ _______ _______ _____ _____    ______ ____
ROOT
ATOM      1  C   UNL     1      -7.022  12.826  20.579  0.00  0.00    +0.000 C 
ATOM      2  C   UNL     1      -5.755  12.392  19.900  0.00  0.00    +0.000 A 
ATOM      3  C   UNL     1      -5.782  11.436  18.880  0.00  0.00    +0.000 A 
ATOM      4  C   UNL     1      -4.600  11.041  18.260  0.00  0.00    +0.000 A 
ATOM      5  C   UNL     1      -3.388  11.585  18.672  0.00  0.00    +0.000 A 
ATOM      6  C   UNL     1      -3.333  12.573  19.661  0.00  0.00    +0.000 A 
ATOM      7  C   UNL     1      -4.532  12.964  20.275  0.00  0.00    +0.000 A 
ATOM      8  C   UNL     1      -2.031  13.230  20.028  0.00  0.00    +0.000 C 
ATOM      9  N   UNL     1      -1.061  12.293  20.600  0.00  0.00    +0.000 N 
ATOM     10  C   UNL     1      -1.152  11.842  21.936  0.00  0.00    +0.000 C 
ATOM     11  O   UNL     1      -0.460  10.881  22.292  0.00  0.00    +0.000 OA
ATOM     12  C   UNL     1      -0.378  11.457  19.549  0.00  0.00    +0.000 C 
ATOM     13  C   UNL     1      -1.373  10.465  18.910  0.00  0.00    +0.000 C 
ATOM     14  O   UNL     1      -2.268  11.156  18.018  0.00  0.00    +0.000 OA
ENDROOT
BRANCH  10  15
ATOM     15  C   UNL     1      -2.069  12.476  22.902  0.00  0.00    +0.000 A 
ATOM     16  C   UNL     1      -3.299  12.117  23.429  0.00  0.00    +0.000 A 
ATOM     17  C   UNL     1      -3.792  13.044  24.403  0.00  0.00    +0.000 A 
ATOM     18  C   UNL     1      -2.991  14.155  24.505  0.00  0.00    +0.000 A 
ATOM     19  S   UNL     1      -1.630  14.050  23.481  0.00  0.00    +0.000 S 
ENDBRANCH  10  15
BRANCH  12  20
ATOM     20  C   UNL     1       0.949  10.726  19.919  0.00  0.00    +0.000 C 
BRANCH  20  21
ATOM     21  N   UNL     1       1.049   9.337  19.394  0.00  0.00    +0.000 NA
ATOM     22  C   UNL     1       1.874   9.209  18.199  0.00  0.00    +0.000 C 
ATOM     23  C   UNL     1       1.458   8.411  20.449  0.00  0.00    +0.000 C 
ENDBRANCH  20  21
ENDBRANCH  12  20
TORSDOF 3
ENDMDL
MODEL 5
REMARK VINA RESULT:      -5.9      1.169      1.603
REMARK  Name = 
REMARK  6 active torsions:
REMARK  status: ('A' for Active; 'I' for Inactive)
REMARK    1  A    between atoms: C_1  and  C_2
REMARK    2  A    between atoms: C_10  and  C_12
REMARK    3  A    between atoms: C_17  and  C_18
REMARK    4  A    between atoms: C_18  and  N_19
REMARK    5  A    between atoms: N_19  and  C_20
REMARK    6  A    between atoms: N_19  and  C_21
REMARK                            x       y       z     vdW  Elec       q    Type
REMARK                         _______ _______ _______ _____ _____    ______ ____
ROOT
ATOM      1  C   UNL     1      -0.052   8.028  21.515  0.00  0.00    +0.000 C 
ATOM      2  C   UNL     1       0.974   8.049  20.418  0.00  0.00    +0.000 A 
ATOM      3  C   UNL     1       0.937   9.031  19.422  0.00  0.00    +0.000 A 
ATOM      4  C   UNL     1       1.892   9.037  18.411  0.00  0.00    +0.000 A 
ATOM      5  C   UNL     1       2.873   8.052  18.380  0.00  0.00    +0.000 A 
ATOM      6  C   UNL     1       2.961   7.082  19.384  0.00  0.00    +0.000 A 
ATOM      7  C   UNL     1       1.994   7.088  20.399  0.00  0.00    +0.000 A 
ATOM      8  C   UNL     1       4.086   6.083  19.399  0.00  0.00    +0.000 C 
ATOM      9  N   UNL     1       4.075   5.194  18.236  0.00  0.00    +0.000 N 
ATOM     10  C   UNL     1       3.178   4.107  18.131  0.00  0.00    +0.000 C 
ATOM     11  O   UNL     1       3.048   3.541  17.039  0.00  0.00    +0.000 OA
ATOM     12  C   UNL     1       4.636   5.852  17.001  0.00  0.00    +0.000 C 
ATOM     13  C   UNL     1       3.693   6.968  16.502  0.00  0.00    +0.000 C 
ATOM     14  O   UNL     1       3.781   8.121  17.361  0.00  0.00    +0.000 OA
ENDROOT
BRANCH  10  15
ATOM     15  C   UNL     1       2.382   3.651  19.286  0.00  0.00    +0.000 A 
ATOM     16  C   UNL     1       1.060   3.825  19.663  0.00  0.00    +0.000 A 
ATOM     17  C   UNL     1       0.717   3.129  20.866  0.00  0.00    +0.000 A 
ATOM     18  C   UNL     1       1.813   2.544  21.451  0.00  0.00    +0.000 A 
ATOM     19  S   UNL     1       3.228   2.782  20.526  0.00  0.00    +0.000 S 
ENDBRANCH  10  15
BRANCH  12  20
ATOM     20  C   UNL     1       5.084   4.951  15.810  0.00  0.00    +0.000 C 
BRANCH  20  21
ATOM     21  N   UNL     1       6.529   5.060  15.471  0.00  0.00    +0.000 NA
ATOM     22  C   UNL     1       7.424   4.579  16.516  0.00  0.00    +0.000 C 
ATOM     23  C   UNL     1       6.807   4.438  14.177  0.00  0.00    +0.000 C 
ENDBRANCH  20  21
ENDBRANCH  12  20
TORSDOF 3
ENDMDL
MODEL 6
REMARK VINA RESULT:      -5.7      9.006     12.680
REMARK  Name = 
REMARK  6 active torsions:
REMARK  status: ('A' for Active; 'I' for Inactive)
REMARK    1  A    between atoms: C_1  and  C_2
REMARK    2  A    between atoms: C_10  and  C_12
REMARK    3  A    between atoms: C_17  and  C_18
REMARK    4  A    between atoms: C_18  and  N_19
REMARK    5  A    between atoms: N_19  and  C_20
REMARK    6  A    between atoms: N_19  and  C_21
REMARK                            x       y       z     vdW  Elec       q    Type
REMARK                         _______ _______ _______ _____ _____    ______ ____
ROOT
ATOM      1  C   UNL     1      -0.500  10.444  18.326  0.00  0.00    +0.000 C 
ATOM      2  C   UNL     1      -0.952  11.026  19.634  0.00  0.00    +0.000 A 
ATOM      3  C   UNL     1      -0.372  10.614  20.838  0.00  0.00    +0.000 A 
ATOM      4  C   UNL     1      -0.802  11.160  22.044  0.00  0.00    +0.000 A 
ATOM      5  C   UNL     1      -1.825  12.102  22.051  0.00  0.00    +0.000 A 
ATOM      6  C   UNL     1      -2.397  12.563  20.861  0.00  0.00    +0.000 A 
ATOM      7  C   UNL     1      -1.952  12.007  19.652  0.00  0.00    +0.000 A 
ATOM      8  C   UNL     1      -3.430  13.656  20.872  0.00  0.00    +0.000 C 
ATOM      9  N   UNL     1      -4.659  13.272  21.570  0.00  0.00    +0.000 N 
ATOM     10  C   UNL     1      -5.628  12.431  20.977  0.00  0.00    +0.000 C 
ATOM     11  O   UNL     1      -6.518  11.949  21.688  0.00  0.00    +0.000 OA
ATOM     12  C   UNL     1      -4.519  13.350  23.069  0.00  0.00    +0.000 C 
ATOM     13  C   UNL     1      -3.558  12.256  23.583  0.00  0.00    +0.000 C 
ATOM     14  O   UNL     1      -2.194  12.598  23.270  0.00  0.00    +0.000 OA
ENDROOT
BRANCH  10  15
ATOM     15  C   UNL     1      -5.583  12.099  19.541  0.00  0.00    +0.000 A 
ATOM     16  C   UNL     1      -5.024  11.058  18.818  0.00  0.00    +0.000 A 
ATOM     17  C   UNL     1      -5.297  11.130  17.414  0.00  0.00    +0.000 A 
ATOM     18  C   UNL     1      -5.949  12.291  17.078  0.00  0.00    +0.000 A 
ATOM     19  S   UNL     1      -6.279  13.252  18.449  0.00  0.00    +0.000 S 
ENDBRANCH  10  15
BRANCH  12  20
ATOM     20  C   UNL     1      -5.810  13.387  23.941  0.00  0.00    +0.000 C 
BRANCH  20  21
ATOM     21  N   UNL     1      -6.413  14.740  24.084  0.00  0.00    +0.000 NA
ATOM     22  C   UNL     1      -5.461  15.835  23.938  0.00  0.00    +0.000 C 
ATOM     23  C   UNL     1      -7.568  14.891  23.200  0.00  0.00    +0.000 C 
ENDBRANCH  20  21
ENDBRANCH  12  20
TORSDOF 3
ENDMDL
MODEL 7
REMARK VINA RESULT:      -5.7      8.585     11.751
REMARK  Name = 
REMARK  6 active torsions:
REMARK  status: ('A' for Active; 'I' for Inactive)
REMARK    1  A    between atoms: C_1  and  C_2
REMARK    2  A    between atoms: C_10  and  C_12
REMARK    3  A    between atoms: C_17  and  C_18
REMARK    4  A    between atoms: C_18  and  N_19
REMARK    5  A    between atoms: N_19  and  C_20
REMARK    6  A    between atoms: N_19  and  C_21
REMARK                            x       y       z     vdW  Elec       q    Type
REMARK                         _______ _______ _______ _____ _____    ______ ____
ROOT
ATOM      1  C   UNL     1      -3.137  10.016  16.033  0.00  0.00    +0.000 C 
ATOM      2  C   UNL     1      -2.419  10.483  17.266  0.00  0.00    +0.000 A 
ATOM      3  C   UNL     1      -1.311   9.784  17.757  0.00  0.00    +0.000 A 
ATOM      4  C   UNL     1      -0.656  10.227  18.903  0.00  0.00    +0.000 A 
ATOM      5  C   UNL     1      -1.118  11.356  19.570  0.00  0.00    +0.000 A 
ATOM      6  C   UNL     1      -2.197  12.099  19.081  0.00  0.00    +0.000 A 
ATOM      7  C   UNL     1      -2.847  11.644  17.924  0.00  0.00    +0.000 A 
ATOM      8  C   UNL     1      -2.625  13.376  19.752  0.00  0.00    +0.000 C 
ATOM      9  N   UNL     1      -3.105  13.169  21.120  0.00  0.00    +0.000 N 
ATOM     10  C   UNL     1      -4.392  12.652  21.394  0.00  0.00    +0.000 C 
ATOM     11  O   UNL     1      -4.654  12.275  22.542  0.00  0.00    +0.000 OA
ATOM     12  C   UNL     1      -1.978  12.993  22.106  0.00  0.00    +0.000 C 
ATOM     13  C   UNL     1      -1.247  11.655  21.866  0.00  0.00    +0.000 C 
ATOM     14  O   UNL     1      -0.426  11.736  20.685  0.00  0.00    +0.000 OA
ENDROOT
BRANCH  10  15
ATOM     15  C   UNL     1      -5.414  12.532  20.337  0.00  0.00    +0.000 A 
ATOM     16  C   UNL     1      -5.890  11.471  19.584  0.00  0.00    +0.000 A 
ATOM     17  C   UNL     1      -6.955  11.836  18.700  0.00  0.00    +0.000 A 
ATOM     18  C   UNL     1      -7.183  13.190  18.702  0.00  0.00    +0.000 A 
ATOM     19  S   UNL     1      -6.164  14.002  19.804  0.00  0.00    +0.000 S 
ENDBRANCH  10  15
BRANCH  12  20
ATOM     20  C   UNL     1      -2.276  13.180  23.625  0.00  0.00    +0.000 C 
BRANCH  20  21
ATOM     21  N   UNL     1      -2.402  14.600  24.053  0.00  0.00    +0.000 NA
ATOM     22  C   UNL     1      -3.061  14.778  25.341  0.00  0.00    +0.000 C 
ATOM     23  C   UNL     1      -1.107  15.277  23.997  0.00  0.00    +0.000 C 
ENDBRANCH  20  21
ENDBRANCH  12  20
TORSDOF 3
ENDMDL
MODEL 8
REMARK VINA RESULT:      -5.7      2.631      6.402
REMARK  Name = 
REMARK  6 active torsions:
REMARK  status: ('A' for Active; 'I' for Inactive)
REMARK    1  A    between atoms: C_1  and  C_2
REMARK    2  A    between atoms: C_10  and  C_12
REMARK    3  A    between atoms: C_17  and  C_18
REMARK    4  A    between atoms: C_18  and  N_19
REMARK    5  A    between atoms: N_19  and  C_20
REMARK    6  A    between atoms: N_19  and  C_21
REMARK                            x       y       z     vdW  Elec       q    Type
REMARK                         _______ _______ _______ _____ _____    ______ ____
ROOT
ATOM      1  C   UNL     1       4.059   0.805  18.184  0.00  0.00    +0.000 C 
ATOM      2  C   UNL     1       3.349   1.934  18.874  0.00  0.00    +0.000 A 
ATOM      3  C   UNL     1       2.050   1.769  19.365  0.00  0.00    +0.000 A 
ATOM      4  C   UNL     1       1.403   2.824  20.001  0.00  0.00    +0.000 A 
ATOM      5  C   UNL     1       2.044   4.051  20.129  0.00  0.00    +0.000 A 
ATOM      6  C   UNL     1       3.358   4.236  19.686  0.00  0.00    +0.000 A 
ATOM      7  C   UNL     1       4.000   3.163  19.049  0.00  0.00    +0.000 A 
ATOM      8  C   UNL     1       4.080   5.534  19.921  0.00  0.00    +0.000 C 
ATOM      9  N   UNL     1       3.456   6.666  19.233  0.00  0.00    +0.000 N 
ATOM     10  C   UNL     1       3.619   6.884  17.846  0.00  0.00    +0.000 C 
ATOM     11  O   UNL     1       2.887   7.703  17.278  0.00  0.00    +0.000 OA
ATOM     12  C   UNL     1       2.236   7.179  19.955  0.00  0.00    +0.000 C 
ATOM     13  C   UNL     1       1.088   6.149  19.885  0.00  0.00    +0.000 C 
ATOM     14  O   UNL     1       1.352   5.042  20.767  0.00  0.00    +0.000 OA
ENDROOT
BRANCH  10  15
ATOM     15  C   UNL     1       4.624   6.141  17.063  0.00  0.00    +0.000 A 
ATOM     16  C   UNL     1       4.563   5.029  16.240  0.00  0.00    +0.000 A 
ATOM     17  C   UNL     1       5.818   4.700  15.635  0.00  0.00    +0.000 A 
ATOM     18  C   UNL     1       6.838   5.488  16.109  0.00  0.00    +0.000 A 
ATOM     19  S   UNL     1       6.275   6.650  17.224  0.00  0.00    +0.000 S 
ENDBRANCH  10  15
BRANCH  12  20
ATOM     20  C   UNL     1       1.704   8.603  19.609  0.00  0.00    +0.000 C 
BRANCH  20  21
ATOM     21  N   UNL     1       0.702   9.132  20.575  0.00  0.00    +0.000 NA
ATOM     22  C   UNL     1       1.179   9.202  21.950  0.00  0.00    +0.000 C 
ATOM     23  C   UNL     1       0.161  10.410  20.113  0.00  0.00    +0.000 C 
ENDBRANCH  20  21
ENDBRANCH  12  20
TORSDOF 3
ENDMDL
MODEL 9
REMARK VINA RESULT:      -5.6      4.739      7.837
REMARK  Name = 
REMARK  6 active torsions:
REMARK  status: ('A' for Active; 'I' for Inactive)
REMARK    1  A    between atoms: C_1  and  C_2
REMARK    2  A    between atoms: C_10  and  C_12
REMARK    3  A    between atoms: C_17  and  C_18
REMARK    4  A    between atoms: C_18  and  N_19
REMARK    5  A    between atoms: N_19  and  C_20
REMARK    6  A    between atoms: N_19  and  C_21
REMARK                            x       y       z     vdW  Elec       q    Type
REMARK                         _______ _______ _______ _____ _____    ______ ____
ROOT
ATOM      1  C   UNL     1      -1.824  12.894  23.233  0.00  0.00    +0.000 C 
ATOM      2  C   UNL     1      -1.252  11.667  22.583  0.00  0.00    +0.000 A 
ATOM      3  C   UNL     1      -0.796  10.594  23.356  0.00  0.00    +0.000 A 
ATOM      4  C   UNL     1      -0.267   9.464  22.740  0.00  0.00    +0.000 A 
ATOM      5  C   UNL     1      -0.172   9.412  21.354  0.00  0.00    +0.000 A 
ATOM      6  C   UNL     1      -0.657  10.451  20.553  0.00  0.00    +0.000 A 
ATOM      7  C   UNL     1      -1.191  11.583  21.186  0.00  0.00    +0.000 A 
ATOM      8  C   UNL     1      -0.645  10.342  19.053  0.00  0.00    +0.000 C 
ATOM      9  N   UNL     1       0.707  10.251  18.498  0.00  0.00    +0.000 N 
ATOM     10  C   UNL     1       1.545  11.382  18.373  0.00  0.00    +0.000 C 
ATOM     11  O   UNL     1       2.746  11.214  18.127  0.00  0.00    +0.000 OA
ATOM     12  C   UNL     1       1.294   8.869  18.633  0.00  0.00    +0.000 C 
ATOM     13  C   UNL     1       1.582   8.541  20.114  0.00  0.00    +0.000 C 
ATOM     14  O   UNL     1       0.354   8.271  20.817  0.00  0.00    +0.000 OA
ENDROOT
BRANCH  10  15
ATOM     15  C   UNL     1       1.024  12.750  18.552  0.00  0.00    +0.000 A 
ATOM     16  C   UNL     1      -0.138  13.390  18.152  0.00  0.00    +0.000 A 
ATOM     17  C   UNL     1      -0.235  14.739  18.621  0.00  0.00    +0.000 A 
ATOM     18  C   UNL     1       0.912  15.142  19.260  0.00  0.00    +0.000 A 
ATOM     19  S   UNL     1       2.066  13.887  19.344  0.00  0.00    +0.000 S 
ENDBRANCH  10  15
BRANCH  12  20
ATOM     20  C   UNL     1       2.519   8.485  17.748  0.00  0.00    +0.000 C 
BRANCH  20  21
ATOM     21  N   UNL     1       3.179   7.209  18.138  0.00  0.00    +0.000 NA
ATOM     22  C   UNL     1       2.311   6.041  18.058  0.00  0.00    +0.000 C 
ATOM     23  C   UNL     1       4.426   7.022  17.398  0.00  0.00    +0.000 C 
ENDBRANCH  20  21
ENDBRANCH  12  20
TORSDOF 3
ENDMDL
