MODEL 1
REMARK VINA RESULT:      -8.7      0.000      0.000
REMARK  Name = 
REMARK  2 active torsions:
REMARK  status: ('A' for Active; 'I' for Inactive)
REMARK    1  A    between atoms: C_4  and  C_5
REMARK    2  A    between atoms: C_5  and  C_6
REMARK                            x       y       z     vdW  Elec       q    Type
REMARK                         _______ _______ _______ _____ _____    ______ ____
ROOT
ATOM      1  O   UNL     1       0.873   3.422  20.825  0.00  0.00    +0.000 OA
ATOM      2  C   UNL     1       1.736   4.177  20.397  0.00  0.00    +0.000 A 
ATOM      3  C   UNL     1       3.071   3.702  20.041  0.00  0.00    +0.000 A 
ATOM      4  C   UNL     1       3.937   4.580  19.510  0.00  0.00    +0.000 A 
ATOM      5  N   UNL     1       3.626   5.908  19.266  0.00  0.00    +0.000 NA
ATOM      6  C   UNL     1       2.465   6.342  19.647  0.00  0.00    +0.000 A 
ATOM      7  N   UNL     1       2.022   7.636  19.521  0.00  0.00    +0.000 N 
ATOM      8  C   UNL     1       1.630   8.400  20.707  0.00  0.00    +0.000 C 
ATOM      9  C   UNL     1       0.321   9.107  20.397  0.00  0.00    +0.000 C 
ATOM     10  C   UNL     1       0.478  10.002  19.167  0.00  0.00    +0.000 C 
ATOM     11  C   UNL     1       1.105   9.255  17.981  0.00  0.00    +0.000 C 
ATOM     12  C   UNL     1       2.366   8.484  18.383  0.00  0.00    +0.000 C 
ATOM     13  O   UNL     1       1.295  11.132  19.525  0.00  0.00    +0.000 OA
ATOM     14  C   UNL     1       0.569  12.275  19.069  0.00  0.00    +0.000 C 
ATOM     15  C   UNL     1      -0.867  11.843  19.150  0.00  0.00    +0.000 C 
ATOM     16  O   UNL     1      -0.824  10.471  18.766  0.00  0.00    +0.000 OA
ATOM     17  N   UNL     1       1.539   5.507  20.210  0.00  0.00    +0.000 N 
ATOM     18  H   UNL     1       0.616   5.861  20.390  0.00  0.00    +0.000 HD
ENDROOT
BRANCH   4  19
ATOM     19  C   UNL     1       5.322   4.113  19.111  0.00  0.00    +0.000 C 
BRANCH  19  20
ATOM     20  C   UNL     1       5.697   4.479  17.699  0.00  0.00    +0.000 A 
ATOM     21  C   UNL     1       5.004   3.952  16.606  0.00  0.00    +0.000 A 
ATOM     22  F   UNL     1       3.963   3.132  16.807  0.00  0.00    +0.000 F 
ATOM     23  C   UNL     1       5.361   4.263  15.293  0.00  0.00    +0.000 A 
ATOM     24  C   UNL     1       6.435   5.117  15.052  0.00  0.00    +0.000 A 
ATOM     25  C   UNL     1       7.136   5.659  16.129  0.00  0.00    +0.000 A 
ATOM     26  C   UNL     1       6.763   5.338  17.435  0.00  0.00    +0.000 A 
ATOM     27  F   UNL     1       7.444   5.893  18.448  0.00  0.00    +0.000 F 
ENDBRANCH  19  20
ENDBRANCH   4  19
TORSDOF 2
ENDMDL
MODEL 2
REMARK VINA RESULT:      -8.7      0.046      1.616
REMARK  Name = 
REMARK  2 active torsions:
REMARK  status: ('A' for Active; 'I' for Inactive)
REMARK    1  A    between atoms: C_4  and  C_5
REMARK    2  A    between atoms: C_5  and  C_6
REMARK                            x       y       z     vdW  Elec       q    Type
REMARK                         _______ _______ _______ _____ _____    ______ ____
ROOT
ATOM      1  O   UNL     1       0.875   3.445  20.828  0.00  0.00    +0.000 OA
ATOM      2  C   UNL     1       1.739   4.199  20.400  0.00  0.00    +0.000 A 
ATOM      3  C   UNL     1       3.077   3.726  20.055  0.00  0.00    +0.000 A 
ATOM      4  C   UNL     1       3.943   4.603  19.524  0.00  0.00    +0.000 A 
ATOM      5  N   UNL     1       3.631   5.929  19.271  0.00  0.00    +0.000 NA
ATOM      6  C   UNL     1       2.467   6.362  19.644  0.00  0.00    +0.000 A 
ATOM      7  N   UNL     1       2.021   7.655  19.509  0.00  0.00    +0.000 N 
ATOM      8  C   UNL     1       1.620   8.423  20.687  0.00  0.00    +0.000 C 
ATOM      9  C   UNL     1       0.312   9.126  20.367  0.00  0.00    +0.000 C 
ATOM     10  C   UNL     1       0.474  10.015  19.133  0.00  0.00    +0.000 C 
ATOM     11  C   UNL     1       1.109   9.263  17.954  0.00  0.00    +0.000 C 
ATOM     12  C   UNL     1       2.370   8.498  18.368  0.00  0.00    +0.000 C 
ATOM     13  O   UNL     1       1.286  11.149  19.490  0.00  0.00    +0.000 OA
ATOM     14  C   UNL     1       0.560  12.288  19.024  0.00  0.00    +0.000 C 
ATOM     15  C   UNL     1      -0.876  11.853  19.098  0.00  0.00    +0.000 C 
ATOM     16  O   UNL     1      -0.828  10.479  18.722  0.00  0.00    +0.000 OA
ATOM     17  N   UNL     1       1.539   5.528  20.205  0.00  0.00    +0.000 N 
ATOM     18  H   UNL     1       0.615   5.881  20.378  0.00  0.00    +0.000 HD
ENDROOT
BRANCH   4  19
ATOM     19  C   UNL     1       5.332   4.137  19.135  0.00  0.00    +0.000 C 
BRANCH  19  20
ATOM     20  C   UNL     1       5.702   4.468  17.713  0.00  0.00    +0.000 A 
ATOM     21  C   UNL     1       6.739   5.359  17.424  0.00  0.00    +0.000 A 
ATOM     22  F   UNL     1       7.446   5.908  18.422  0.00  0.00    +0.000 F 
ATOM     23  C   UNL     1       7.072   5.694  16.111  0.00  0.00    +0.000 A 
ATOM     24  C   UNL     1       6.357   5.136  15.052  0.00  0.00    +0.000 A 
ATOM     25  C   UNL     1       5.324   4.240  15.319  0.00  0.00    +0.000 A 
ATOM     26  C   UNL     1       5.006   3.915  16.639  0.00  0.00    +0.000 A 
ATOM     27  F   UNL     1       4.020   3.034  16.860  0.00  0.00    +0.000 F 
ENDBRANCH  19  20
ENDBRANCH   4  19
TORSDOF 2
ENDMDL
MODEL 3
REMARK VINA RESULT:      -8.7      3.417      7.980
REMARK  Name = 
REMARK  2 active torsions:
REMARK  status: ('A' for Active; 'I' for Inactive)
REMARK    1  A    between atoms: C_4  and  C_5
REMARK    2  A    between atoms: C_5  and  C_6
REMARK                            x       y       z     vdW  Elec       q    Type
REMARK                         _______ _______ _______ _____ _____    ______ ____
ROOT
ATOM      1  O   UNL     1       1.271   9.534  23.373  0.00  0.00    +0.000 OA
ATOM      2  C   UNL     1       1.224   9.343  22.165  0.00  0.00    +0.000 A 
ATOM      3  C   UNL     1       0.753  10.368  21.237  0.00  0.00    +0.000 A 
ATOM      4  C   UNL     1       0.801  10.104  19.922  0.00  0.00    +0.000 A 
ATOM      5  N   UNL     1       1.290   8.919  19.397  0.00  0.00    +0.000 NA
ATOM      6  C   UNL     1       1.641   7.986  20.225  0.00  0.00    +0.000 A 
ATOM      7  N   UNL     1       2.101   6.741  19.868  0.00  0.00    +0.000 N 
ATOM      8  C   UNL     1       1.393   5.539  20.309  0.00  0.00    +0.000 C 
ATOM      9  C   UNL     1       2.425   4.543  20.811  0.00  0.00    +0.000 C 
ATOM     10  C   UNL     1       3.444   4.235  19.712  0.00  0.00    +0.000 C 
ATOM     11  C   UNL     1       4.027   5.510  19.086  0.00  0.00    +0.000 C 
ATOM     12  C   UNL     1       2.937   6.512  18.693  0.00  0.00    +0.000 C 
ATOM     13  O   UNL     1       2.799   3.439  18.701  0.00  0.00    +0.000 OA
ATOM     14  C   UNL     1       3.674   2.330  18.486  0.00  0.00    +0.000 C 
ATOM     15  C   UNL     1       4.352   2.145  19.814  0.00  0.00    +0.000 C 
ATOM     16  O   UNL     1       4.528   3.479  20.286  0.00  0.00    +0.000 OA
ATOM     17  N   UNL     1       1.604   8.179  21.579  0.00  0.00    +0.000 N 
ATOM     18  H   UNL     1       1.987   7.469  22.178  0.00  0.00    +0.000 HD
ENDROOT
BRANCH   4  19
ATOM     19  C   UNL     1       0.339  11.156  18.934  0.00  0.00    +0.000 C 
BRANCH  19  20
ATOM     20  C   UNL     1      -1.133  11.087  18.625  0.00  0.00    +0.000 A 
ATOM     21  C   UNL     1      -1.630  10.207  17.659  0.00  0.00    +0.000 A 
ATOM     22  F   UNL     1      -0.793   9.381  17.015  0.00  0.00    +0.000 F 
ATOM     23  C   UNL     1      -2.988  10.155  17.346  0.00  0.00    +0.000 A 
ATOM     24  C   UNL     1      -3.883  10.998  18.001  0.00  0.00    +0.000 A 
ATOM     25  C   UNL     1      -3.409  11.879  18.973  0.00  0.00    +0.000 A 
ATOM     26  C   UNL     1      -2.047  11.915  19.276  0.00  0.00    +0.000 A 
ATOM     27  F   UNL     1      -1.627  12.759  20.229  0.00  0.00    +0.000 F 
ENDBRANCH  19  20
ENDBRANCH   4  19
TORSDOF 2
ENDMDL
MODEL 4
REMARK VINA RESULT:      -8.6      3.414      8.060
REMARK  Name = 
REMARK  2 active torsions:
REMARK  status: ('A' for Active; 'I' for Inactive)
REMARK    1  A    between atoms: C_4  and  C_5
REMARK    2  A    between atoms: C_5  and  C_6
REMARK                            x       y       z     vdW  Elec       q    Type
REMARK                         _______ _______ _______ _____ _____    ______ ____
ROOT
ATOM      1  O   UNL     1       1.238   9.529  23.381  0.00  0.00    +0.000 OA
ATOM      2  C   UNL     1       1.206   9.344  22.172  0.00  0.00    +0.000 A 
ATOM      3  C   UNL     1       0.748  10.374  21.243  0.00  0.00    +0.000 A 
ATOM      4  C   UNL     1       0.811  10.116  19.928  0.00  0.00    +0.000 A 
ATOM      5  N   UNL     1       1.304   8.932  19.403  0.00  0.00    +0.000 NA
ATOM      6  C   UNL     1       1.643   7.994  20.231  0.00  0.00    +0.000 A 
ATOM      7  N   UNL     1       2.103   6.749  19.874  0.00  0.00    +0.000 N 
ATOM      8  C   UNL     1       1.386   5.548  20.301  0.00  0.00    +0.000 C 
ATOM      9  C   UNL     1       2.410   4.547  20.810  0.00  0.00    +0.000 C 
ATOM     10  C   UNL     1       3.442   4.241  19.723  0.00  0.00    +0.000 C 
ATOM     11  C   UNL     1       4.035   5.517  19.110  0.00  0.00    +0.000 C 
ATOM     12  C   UNL     1       2.953   6.524  18.708  0.00  0.00    +0.000 C 
ATOM     13  O   UNL     1       2.807   3.451  18.700  0.00  0.00    +0.000 OA
ATOM     14  C   UNL     1       3.682   2.341  18.490  0.00  0.00    +0.000 C 
ATOM     15  C   UNL     1       4.342   2.148  19.826  0.00  0.00    +0.000 C 
ATOM     16  O   UNL     1       4.517   3.479  20.307  0.00  0.00    +0.000 OA
ATOM     17  N   UNL     1       1.589   8.181  21.585  0.00  0.00    +0.000 N 
ATOM     18  H   UNL     1       1.963   7.468  22.186  0.00  0.00    +0.000 HD
ENDROOT
BRANCH   4  19
ATOM     19  C   UNL     1       0.364  11.174  18.939  0.00  0.00    +0.000 C 
BRANCH  19  20
ATOM     20  C   UNL     1      -1.105  11.112  18.613  0.00  0.00    +0.000 A 
ATOM     21  C   UNL     1      -2.023  11.952  19.249  0.00  0.00    +0.000 A 
ATOM     22  F   UNL     1      -1.594  12.857  20.140  0.00  0.00    +0.000 F 
ATOM     23  C   UNL     1      -3.389  11.884  18.975  0.00  0.00    +0.000 A 
ATOM     24  C   UNL     1      -3.864  10.957  18.050  0.00  0.00    +0.000 A 
ATOM     25  C   UNL     1      -2.964  10.114  17.400  0.00  0.00    +0.000 A 
ATOM     26  C   UNL     1      -1.600  10.198  17.684  0.00  0.00    +0.000 A 
ATOM     27  F   UNL     1      -0.760   9.387  17.027  0.00  0.00    +0.000 F 
ENDBRANCH  19  20
ENDBRANCH   4  19
TORSDOF 2
ENDMDL
MODEL 5
REMARK VINA RESULT:      -8.6      0.999      1.264
REMARK  Name = 
REMARK  2 active torsions:
REMARK  status: ('A' for Active; 'I' for Inactive)
REMARK    1  A    between atoms: C_4  and  C_5
REMARK    2  A    between atoms: C_5  and  C_6
REMARK                            x       y       z     vdW  Elec       q    Type
REMARK                         _______ _______ _______ _____ _____    ______ ____
ROOT
ATOM      1  O   UNL     1       0.915   3.330  21.049  0.00  0.00    +0.000 OA
ATOM      2  C   UNL     1       1.744   4.099  20.579  0.00  0.00    +0.000 A 
ATOM      3  C   UNL     1       3.057   3.642  20.131  0.00  0.00    +0.000 A 
ATOM      4  C   UNL     1       3.879   4.536  19.561  0.00  0.00    +0.000 A 
ATOM      5  N   UNL     1       3.543   5.866  19.360  0.00  0.00    +0.000 NA
ATOM      6  C   UNL     1       2.406   6.282  19.823  0.00  0.00    +0.000 A 
ATOM      7  N   UNL     1       1.946   7.575  19.748  0.00  0.00    +0.000 N 
ATOM      8  C   UNL     1       1.625   8.315  20.969  0.00  0.00    +0.000 C 
ATOM      9  C   UNL     1       0.294   9.016  20.756  0.00  0.00    +0.000 C 
ATOM     10  C   UNL     1       0.364   9.933  19.534  0.00  0.00    +0.000 C 
ATOM     11  C   UNL     1       0.919   9.211  18.298  0.00  0.00    +0.000 C 
ATOM     12  C   UNL     1       2.209   8.445  18.605  0.00  0.00    +0.000 C 
ATOM     13  O   UNL     1       1.194  11.064  19.859  0.00  0.00    +0.000 OA
ATOM     14  C   UNL     1       0.431  12.208  19.470  0.00  0.00    +0.000 C 
ATOM     15  C   UNL     1      -0.994  11.762  19.635  0.00  0.00    +0.000 C 
ATOM     16  O   UNL     1      -0.965  10.397  19.226  0.00  0.00    +0.000 OA
ATOM     17  N   UNL     1       1.524   5.430  20.429  0.00  0.00    +0.000 N 
ATOM     18  H   UNL     1       0.613   5.773  20.674  0.00  0.00    +0.000 HD
ENDROOT
BRANCH   4  19
ATOM     19  C   UNL     1       5.239   4.088  19.065  0.00  0.00    +0.000 C 
BRANCH  19  20
ATOM     20  C   UNL     1       6.025   5.181  18.390  0.00  0.00    +0.000 A 
ATOM     21  C   UNL     1       5.723   5.592  17.089  0.00  0.00    +0.000 A 
ATOM     22  F   UNL     1       4.695   5.033  16.434  0.00  0.00    +0.000 F 
ATOM     23  C   UNL     1       6.462   6.585  16.445  0.00  0.00    +0.000 A 
ATOM     24  C   UNL     1       7.533   7.187  17.102  0.00  0.00    +0.000 A 
ATOM     25  C   UNL     1       7.846   6.797  18.403  0.00  0.00    +0.000 A 
ATOM     26  C   UNL     1       7.094   5.804  19.033  0.00  0.00    +0.000 A 
ATOM     27  F   UNL     1       7.410   5.466  20.291  0.00  0.00    +0.000 F 
ENDBRANCH  19  20
ENDBRANCH   4  19
TORSDOF 2
ENDMDL
MODEL 6
REMARK VINA RESULT:      -8.6      1.887      2.368
REMARK  Name = 
REMARK  2 active torsions:
REMARK  status: ('A' for Active; 'I' for Inactive)
REMARK    1  A    between atoms: C_4  and  C_5
REMARK    2  A    between atoms: C_5  and  C_6
REMARK                            x       y       z     vdW  Elec       q    Type
REMARK                         _______ _______ _______ _____ _____    ______ ____
ROOT
ATOM      1  O   UNL     1       1.152   3.727  21.195  0.00  0.00    +0.000 OA
ATOM      2  C   UNL     1       1.671   4.630  20.552  0.00  0.00    +0.000 A 
ATOM      3  C   UNL     1       2.617   4.366  19.471  0.00  0.00    +0.000 A 
ATOM      4  C   UNL     1       3.086   5.409  18.769  0.00  0.00    +0.000 A 
ATOM      5  N   UNL     1       2.709   6.721  19.004  0.00  0.00    +0.000 NA
ATOM      6  C   UNL     1       1.924   6.958  20.008  0.00  0.00    +0.000 A 
ATOM      7  N   UNL     1       1.495   8.203  20.403  0.00  0.00    +0.000 N 
ATOM      8  C   UNL     1       1.790   8.691  21.751  0.00  0.00    +0.000 C 
ATOM      9  C   UNL     1       0.521   9.308  22.314  0.00  0.00    +0.000 C 
ATOM     10  C   UNL     1       0.021  10.426  21.398  0.00  0.00    +0.000 C 
ATOM     11  C   UNL     1      -0.075   9.977  19.933  0.00  0.00    +0.000 C 
ATOM     12  C   UNL     1       1.202   9.276  19.457  0.00  0.00    +0.000 C 
ATOM     13  O   UNL     1       0.917  11.547  21.513  0.00  0.00    +0.000 OA
ATOM     14  C   UNL     1       0.073  12.676  21.746  0.00  0.00    +0.000 C 
ATOM     15  C   UNL     1      -1.114  12.094  22.461  0.00  0.00    +0.000 C 
ATOM     16  O   UNL     1      -1.294  10.827  21.832  0.00  0.00    +0.000 OA
ATOM     17  N   UNL     1       1.420   5.945  20.777  0.00  0.00    +0.000 N 
ATOM     18  H   UNL     1       0.733   6.166  21.476  0.00  0.00    +0.000 HD
ENDROOT
BRANCH   4  19
ATOM     19  C   UNL     1       4.052   5.165  17.627  0.00  0.00    +0.000 C 
BRANCH  19  20
ATOM     20  C   UNL     1       5.419   5.753  17.858  0.00  0.00    +0.000 A 
ATOM     21  C   UNL     1       6.246   5.281  18.881  0.00  0.00    +0.000 A 
ATOM     22  F   UNL     1       5.839   4.265  19.655  0.00  0.00    +0.000 F 
ATOM     23  C   UNL     1       7.503   5.837  19.121  0.00  0.00    +0.000 A 
ATOM     24  C   UNL     1       7.956   6.891  18.331  0.00  0.00    +0.000 A 
ATOM     25  C   UNL     1       7.149   7.372  17.300  0.00  0.00    +0.000 A 
ATOM     26  C   UNL     1       5.896   6.802  17.073  0.00  0.00    +0.000 A 
ATOM     27  F   UNL     1       5.154   7.274  16.061  0.00  0.00    +0.000 F 
ENDBRANCH  19  20
ENDBRANCH   4  19
TORSDOF 2
ENDMDL
MODEL 7
REMARK VINA RESULT:      -8.6      1.052      1.914
REMARK  Name = 
REMARK  2 active torsions:
REMARK  status: ('A' for Active; 'I' for Inactive)
REMARK    1  A    between atoms: C_4  and  C_5
REMARK    2  A    between atoms: C_5  and  C_6
REMARK                            x       y       z     vdW  Elec       q    Type
REMARK                         _______ _______ _______ _____ _____    ______ ____
ROOT
ATOM      1  O   UNL     1       1.022   3.386  21.168  0.00  0.00    +0.000 OA
ATOM      2  C   UNL     1       1.826   4.145  20.643  0.00  0.00    +0.000 A 
ATOM      3  C   UNL     1       3.125   3.683  20.160  0.00  0.00    +0.000 A 
ATOM      4  C   UNL     1       3.919   4.564  19.533  0.00  0.00    +0.000 A 
ATOM      5  N   UNL     1       3.566   5.884  19.304  0.00  0.00    +0.000 NA
ATOM      6  C   UNL     1       2.444   6.308  19.795  0.00  0.00    +0.000 A 
ATOM      7  N   UNL     1       1.972   7.595  19.698  0.00  0.00    +0.000 N 
ATOM      8  C   UNL     1       1.691   8.370  20.907  0.00  0.00    +0.000 C 
ATOM      9  C   UNL     1       0.348   9.056  20.723  0.00  0.00    +0.000 C 
ATOM     10  C   UNL     1       0.366   9.935  19.471  0.00  0.00    +0.000 C 
ATOM     11  C   UNL     1       0.880   9.179  18.238  0.00  0.00    +0.000 C 
ATOM     12  C   UNL     1       2.187   8.431  18.520  0.00  0.00    +0.000 C 
ATOM     13  O   UNL     1       1.199  11.081  19.730  0.00  0.00    +0.000 OA
ATOM     14  C   UNL     1       0.415  12.208  19.335  0.00  0.00    +0.000 C 
ATOM     15  C   UNL     1      -1.000  11.758  19.567  0.00  0.00    +0.000 C 
ATOM     16  O   UNL     1      -0.977  10.381  19.199  0.00  0.00    +0.000 OA
ATOM     17  N   UNL     1       1.592   5.470  20.460  0.00  0.00    +0.000 N 
ATOM     18  H   UNL     1       0.687   5.815  20.729  0.00  0.00    +0.000 HD
ENDROOT
BRANCH   4  19
ATOM     19  C   UNL     1       5.263   4.109  19.001  0.00  0.00    +0.000 C 
BRANCH  19  20
ATOM     20  C   UNL     1       6.073   5.217  18.381  0.00  0.00    +0.000 A 
ATOM     21  C   UNL     1       7.149   5.794  19.061  0.00  0.00    +0.000 A 
ATOM     22  F   UNL     1       7.497   5.337  20.272  0.00  0.00    +0.000 F 
ATOM     23  C   UNL     1       7.888   6.840  18.508  0.00  0.00    +0.000 A 
ATOM     24  C   UNL     1       7.553   7.334  17.248  0.00  0.00    +0.000 A 
ATOM     25  C   UNL     1       6.488   6.768  16.551  0.00  0.00    +0.000 A 
ATOM     26  C   UNL     1       5.761   5.720  17.119  0.00  0.00    +0.000 A 
ATOM     27  F   UNL     1       4.755   5.184  16.413  0.00  0.00    +0.000 F 
ENDBRANCH  19  20
ENDBRANCH   4  19
TORSDOF 2
ENDMDL
MODEL 8
REMARK VINA RESULT:      -8.6      1.884      2.360
REMARK  Name = 
REMARK  2 active torsions:
REMARK  status: ('A' for Active; 'I' for Inactive)
REMARK    1  A    between atoms: C_4  and  C_5
REMARK    2  A    between atoms: C_5  and  C_6
REMARK                            x       y       z     vdW  Elec       q    Type
REMARK                         _______ _______ _______ _____ _____    ______ ____
ROOT
ATOM      1  O   UNL     1       1.098   3.705  21.182  0.00  0.00    +0.000 OA
ATOM      2  C   UNL     1       1.635   4.607  20.553  0.00  0.00    +0.000 A 
ATOM      3  C   UNL     1       2.596   4.341  19.486  0.00  0.00    +0.000 A 
ATOM      4  C   UNL     1       3.085   5.384  18.797  0.00  0.00    +0.000 A 
ATOM      5  N   UNL     1       2.713   6.698  19.031  0.00  0.00    +0.000 NA
ATOM      6  C   UNL     1       1.914   6.936  20.024  0.00  0.00    +0.000 A 
ATOM      7  N   UNL     1       1.488   8.182  20.417  0.00  0.00    +0.000 N 
ATOM      8  C   UNL     1       1.764   8.661  21.772  0.00  0.00    +0.000 C 
ATOM      9  C   UNL     1       0.491   9.286  22.317  0.00  0.00    +0.000 C 
ATOM     10  C   UNL     1       0.014  10.412  21.398  0.00  0.00    +0.000 C 
ATOM     11  C   UNL     1      -0.060   9.970  19.929  0.00  0.00    +0.000 C 
ATOM     12  C   UNL     1       1.219   9.262  19.472  0.00  0.00    +0.000 C 
ATOM     13  O   UNL     1       0.917  11.525  21.533  0.00  0.00    +0.000 OA
ATOM     14  C   UNL     1       0.077  12.659  21.758  0.00  0.00    +0.000 C 
ATOM     15  C   UNL     1      -1.125  12.083  22.450  0.00  0.00    +0.000 C 
ATOM     16  O   UNL     1      -1.304  10.821  21.812  0.00  0.00    +0.000 OA
ATOM     17  N   UNL     1       1.390   5.923  20.780  0.00  0.00    +0.000 N 
ATOM     18  H   UNL     1       0.692   6.146  21.468  0.00  0.00    +0.000 HD
ENDROOT
BRANCH   4  19
ATOM     19  C   UNL     1       4.068   5.137  17.670  0.00  0.00    +0.000 C 
BRANCH  19  20
ATOM     20  C   UNL     1       5.417   5.766  17.899  0.00  0.00    +0.000 A 
ATOM     21  C   UNL     1       5.876   6.809  17.090  0.00  0.00    +0.000 A 
ATOM     22  F   UNL     1       5.096   7.289  16.112  0.00  0.00    +0.000 F 
ATOM     23  C   UNL     1       7.136   7.379  17.276  0.00  0.00    +0.000 A 
ATOM     24  C   UNL     1       7.968   6.904  18.288  0.00  0.00    +0.000 A 
ATOM     25  C   UNL     1       7.526   5.869  19.110  0.00  0.00    +0.000 A 
ATOM     26  C   UNL     1       6.262   5.312  18.911  0.00  0.00    +0.000 A 
ATOM     27  F   UNL     1       5.860   4.332  19.732  0.00  0.00    +0.000 F 
ENDBRANCH  19  20
ENDBRANCH   4  19
TORSDOF 2
ENDMDL
MODEL 9
REMARK VINA RESULT:      -8.3      2.324      4.211
REMARK  Name = 
REMARK  2 active torsions:
REMARK  status: ('A' for Active; 'I' for Inactive)
REMARK    1  A    between atoms: C_4  and  C_5
REMARK    2  A    between atoms: C_5  and  C_6
REMARK                            x       y       z     vdW  Elec       q    Type
REMARK                         _______ _______ _______ _____ _____    ______ ____
ROOT
ATOM      1  O   UNL     1       6.102   7.159  16.367  0.00  0.00    +0.000 OA
ATOM      2  C   UNL     1       5.101   6.710  16.909  0.00  0.00    +0.000 A 
ATOM      3  C   UNL     1       4.880   5.273  17.056  0.00  0.00    +0.000 A 
ATOM      4  C   UNL     1       3.791   4.864  17.726  0.00  0.00    +0.000 A 
ATOM      5  N   UNL     1       2.875   5.731  18.300  0.00  0.00    +0.000 NA
ATOM      6  C   UNL     1       3.037   7.002  18.107  0.00  0.00    +0.000 A 
ATOM      7  N   UNL     1       2.196   7.988  18.567  0.00  0.00    +0.000 N 
ATOM      8  C   UNL     1       1.547   8.901  17.626  0.00  0.00    +0.000 C 
ATOM      9  C   UNL     1       1.675  10.311  18.177  0.00  0.00    +0.000 C 
ATOM     10  C   UNL     1       1.057  10.395  19.573  0.00  0.00    +0.000 C 
ATOM     11  C   UNL     1       1.572   9.288  20.504  0.00  0.00    +0.000 C 
ATOM     12  C   UNL     1       1.506   7.904  19.851  0.00  0.00    +0.000 C 
ATOM     13  O   UNL     1      -0.375  10.305  19.445  0.00  0.00    +0.000 OA
ATOM     14  C   UNL     1      -0.886  11.401  20.206  0.00  0.00    +0.000 C 
ATOM     15  C   UNL     1       0.198  12.437  20.115  0.00  0.00    +0.000 C 
ATOM     16  O   UNL     1       1.398  11.668  20.155  0.00  0.00    +0.000 OA
ATOM     17  N   UNL     1       4.115   7.491  17.421  0.00  0.00    +0.000 N 
ATOM     18  H   UNL     1       4.257   8.485  17.388  0.00  0.00    +0.000 HD
ENDROOT
BRANCH   4  19
ATOM     19  C   UNL     1       3.546   3.380  17.915  0.00  0.00    +0.000 C 
BRANCH  19  20
ATOM     20  C   UNL     1       2.795   3.050  19.178  0.00  0.00    +0.000 A 
ATOM     21  C   UNL     1       1.399   3.076  19.217  0.00  0.00    +0.000 A 
ATOM     22  F   UNL     1       0.704   3.366  18.107  0.00  0.00    +0.000 F 
ATOM     23  C   UNL     1       0.694   2.798  20.388  0.00  0.00    +0.000 A 
ATOM     24  C   UNL     1       1.387   2.489  21.556  0.00  0.00    +0.000 A 
ATOM     25  C   UNL     1       2.780   2.451  21.537  0.00  0.00    +0.000 A 
ATOM     26  C   UNL     1       3.469   2.729  20.355  0.00  0.00    +0.000 A 
ATOM     27  F   UNL     1       4.808   2.664  20.366  0.00  0.00    +0.000 F 
ENDBRANCH  19  20
ENDBRANCH   4  19
TORSDOF 2
ENDMDL
