MODEL 1
REMARK VINA RESULT:      -8.4      0.000      0.000
REMARK  Name = 
REMARK  6 active torsions:
REMARK  status: ('A' for Active; 'I' for Inactive)
REMARK    1  A    between atoms: C_1  and  C_2
REMARK    2  A    between atoms: C_2  and  C_3
REMARK    3  A    between atoms: C_2  and  O_4
REMARK    4  A    between atoms: C_2  and  C_5
REMARK    5  A    between atoms: C_5  and  N_6
REMARK    6  A    between atoms: C_5  and  C_25
REMARK                            x       y       z     vdW  Elec       q    Type
REMARK                         _______ _______ _______ _____ _____    ______ ____
ROOT
ATOM      1  N   UNL     1       9.854  10.300  18.918  0.00  0.00    +0.000 N 
ATOM      2  C   UNL     1       8.780   9.568  18.470  0.00  0.00    +0.000 C 
ATOM      3  O   UNL     1       7.832  10.067  17.874  0.00  0.00    +0.000 OA
ATOM      4  N   UNL     1       8.886   8.240  18.802  0.00  0.00    +0.000 N 
ATOM      5  C   UNL     1       7.895   7.317  18.438  0.00  0.00    +0.000 A 
ATOM      6  C   UNL     1       7.377   7.274  17.147  0.00  0.00    +0.000 A 
ATOM      7  C   UNL     1       6.390   6.314  16.934  0.00  0.00    +0.000 A 
ATOM      8  N   UNL     1       5.696   5.941  15.821  0.00  0.00    +0.000 N 
ATOM      9  N   UNL     1       4.813   4.952  16.025  0.00  0.00    +0.000 NA
ATOM     10  C   UNL     1       4.890   4.701  17.335  0.00  0.00    +0.000 A 
ATOM     11  N   UNL     1       4.155   3.753  17.968  0.00  0.00    +0.000 N 
ATOM     12  C   UNL     1       3.617   3.896  19.321  0.00  0.00    +0.000 C 
ATOM     13  C   UNL     1       3.897   2.591  20.080  0.00  0.00    +0.000 C 
ATOM     14  O   UNL     1       3.310   1.462  19.407  0.00  0.00    +0.000 OA
ATOM     15  C   UNL     1       3.810   1.351  18.058  0.00  0.00    +0.000 C 
ATOM     16  C   UNL     1       3.555   2.631  17.239  0.00  0.00    +0.000 C 
ATOM     17  C   UNL     1       5.918   5.490  17.946  0.00  0.00    +0.000 A 
ATOM     18  C   UNL     1       6.526   5.586  19.202  0.00  0.00    +0.000 A 
ATOM     19  N   UNL     1       7.532   6.472  19.424  0.00  0.00    +0.000 NA
ATOM     20  H   UNL     1      10.710   9.795  19.091  0.00  0.00    +0.000 HD
ATOM     21  H   UNL     1       9.236   8.066  19.732  0.00  0.00    +0.000 HD
ATOM     22  H   UNL     1       5.795   6.305  14.879  0.00  0.00    +0.000 HD
ENDROOT
BRANCH   1  23
ATOM     23  C   UNL     1       9.917  11.756  18.742  0.00  0.00    +0.000 C 
BRANCH  23  24
ATOM     24  C   UNL     1       9.390  12.482  19.989  0.00  0.00    +0.000 A 
ATOM     25  C   UNL     1       9.521  11.855  21.242  0.00  0.00    +0.000 A 
ATOM     26  C   UNL     1       9.014  12.442  22.405  0.00  0.00    +0.000 A 
ATOM     27  C   UNL     1       8.365  13.671  22.337  0.00  0.00    +0.000 A 
ATOM     28  C   UNL     1       8.225  14.311  21.108  0.00  0.00    +0.000 A 
ATOM     29  C   UNL     1       8.735  13.724  19.943  0.00  0.00    +0.000 A 
ENDBRANCH  23  24
BRANCH  23  31
ATOM     30  C   UNL     1      12.178  12.821  19.410  0.00  0.00    +0.000 C 
ATOM     31  C   UNL     1      11.314  12.301  18.251  0.00  0.00    +0.000 C 
ATOM     32  C   UNL     1      11.193  13.409  17.197  0.00  0.00    +0.000 C 
BRANCH  31  33
ATOM     33  O   UNL     1      12.058  11.213  17.665  0.00  0.00    +0.000 OA
ATOM     34  H   UNL     1      11.679  10.378  17.985  0.00  0.00    +0.000 HD
ENDBRANCH  31  33
ENDBRANCH  23  31
ENDBRANCH   1  23
TORSDOF 4
ENDMDL
MODEL 2
REMARK VINA RESULT:      -8.1      6.469      9.972
REMARK  Name = 
REMARK  6 active torsions:
REMARK  status: ('A' for Active; 'I' for Inactive)
REMARK    1  A    between atoms: C_1  and  C_2
REMARK    2  A    between atoms: C_2  and  C_3
REMARK    3  A    between atoms: C_2  and  O_4
REMARK    4  A    between atoms: C_2  and  C_5
REMARK    5  A    between atoms: C_5  and  N_6
REMARK    6  A    between atoms: C_5  and  C_25
REMARK                            x       y       z     vdW  Elec       q    Type
REMARK                         _______ _______ _______ _____ _____    ______ ____
ROOT
ATOM      1  N   UNL     1       2.996   6.091  18.989  0.00  0.00    +0.000 N 
ATOM      2  C   UNL     1       2.526   7.361  18.750  0.00  0.00    +0.000 C 
ATOM      3  O   UNL     1       2.792   7.992  17.733  0.00  0.00    +0.000 OA
ATOM      4  N   UNL     1       1.769   7.835  19.791  0.00  0.00    +0.000 N 
ATOM      5  C   UNL     1       1.192   9.113  19.750  0.00  0.00    +0.000 A 
ATOM      6  C   UNL     1       0.499   9.564  18.631  0.00  0.00    +0.000 A 
ATOM      7  C   UNL     1      -0.008  10.859  18.728  0.00  0.00    +0.000 A 
ATOM      8  N   UNL     1      -0.767  11.614  17.882  0.00  0.00    +0.000 N 
ATOM      9  N   UNL     1      -1.061  12.837  18.347  0.00  0.00    +0.000 NA
ATOM     10  C   UNL     1      -0.426  12.910  19.521  0.00  0.00    +0.000 A 
ATOM     11  N   UNL     1      -0.464  13.994  20.335  0.00  0.00    +0.000 N 
ATOM     12  C   UNL     1       0.666  14.459  21.140  0.00  0.00    +0.000 C 
ATOM     13  C   UNL     1       0.142  14.777  22.547  0.00  0.00    +0.000 C 
ATOM     14  O   UNL     1      -0.902  15.767  22.502  0.00  0.00    +0.000 OA
ATOM     15  C   UNL     1      -1.995  15.323  21.671  0.00  0.00    +0.000 C 
ATOM     16  C   UNL     1      -1.535  14.991  20.239  0.00  0.00    +0.000 C 
ATOM     17  C   UNL     1       0.201  11.662  19.840  0.00  0.00    +0.000 A 
ATOM     18  C   UNL     1       0.882  11.106  20.927  0.00  0.00    +0.000 A 
ATOM     19  N   UNL     1       1.337   9.826  20.885  0.00  0.00    +0.000 NA
ATOM     20  H   UNL     1       2.486   5.534  19.656  0.00  0.00    +0.000 HD
ATOM     21  H   UNL     1       2.131   7.618  20.708  0.00  0.00    +0.000 HD
ATOM     22  H   UNL     1      -1.141  11.344  16.979  0.00  0.00    +0.000 HD
ENDROOT
BRANCH   1  23
ATOM     23  C   UNL     1       3.891   5.413  18.043  0.00  0.00    +0.000 C 
BRANCH  23  24
ATOM     24  C   UNL     1       5.348   5.851  18.258  0.00  0.00    +0.000 A 
ATOM     25  C   UNL     1       5.941   6.716  17.320  0.00  0.00    +0.000 A 
ATOM     26  C   UNL     1       7.278   7.107  17.434  0.00  0.00    +0.000 A 
ATOM     27  C   UNL     1       8.051   6.639  18.492  0.00  0.00    +0.000 A 
ATOM     28  C   UNL     1       7.486   5.783  19.434  0.00  0.00    +0.000 A 
ATOM     29  C   UNL     1       6.145   5.394  19.322  0.00  0.00    +0.000 A 
ENDBRANCH  23  24
BRANCH  23  31
ATOM     30  C   UNL     1       2.473   3.431  17.176  0.00  0.00    +0.000 C 
ATOM     31  C   UNL     1       3.717   3.847  17.976  0.00  0.00    +0.000 C 
ATOM     32  C   UNL     1       3.650   3.188  19.359  0.00  0.00    +0.000 C 
BRANCH  31  33
ATOM     33  O   UNL     1       4.843   3.283  17.272  0.00  0.00    +0.000 OA
ATOM     34  H   UNL     1       5.139   3.927  16.607  0.00  0.00    +0.000 HD
ENDBRANCH  31  33
ENDBRANCH  23  31
ENDBRANCH   1  23
TORSDOF 4
ENDMDL
MODEL 3
REMARK VINA RESULT:      -8.0      6.468     10.312
REMARK  Name = 
REMARK  6 active torsions:
REMARK  status: ('A' for Active; 'I' for Inactive)
REMARK    1  A    between atoms: C_1  and  C_2
REMARK    2  A    between atoms: C_2  and  C_3
REMARK    3  A    between atoms: C_2  and  O_4
REMARK    4  A    between atoms: C_2  and  C_5
REMARK    5  A    between atoms: C_5  and  N_6
REMARK    6  A    between atoms: C_5  and  C_25
REMARK                            x       y       z     vdW  Elec       q    Type
REMARK                         _______ _______ _______ _____ _____    ______ ____
ROOT
ATOM      1  N   UNL     1       2.529   6.334  18.983  0.00  0.00    +0.000 N 
ATOM      2  C   UNL     1       2.174   7.635  18.716  0.00  0.00    +0.000 C 
ATOM      3  O   UNL     1       2.448   8.201  17.664  0.00  0.00    +0.000 OA
ATOM      4  N   UNL     1       1.521   8.220  19.773  0.00  0.00    +0.000 N 
ATOM      5  C   UNL     1       1.072   9.546  19.709  0.00  0.00    +0.000 A 
ATOM      6  C   UNL     1       0.370  10.025  18.607  0.00  0.00    +0.000 A 
ATOM      7  C   UNL     1      -0.001  11.367  18.677  0.00  0.00    +0.000 A 
ATOM      8  N   UNL     1      -0.724  12.165  17.839  0.00  0.00    +0.000 N 
ATOM      9  N   UNL     1      -0.872  13.427  18.268  0.00  0.00    +0.000 NA
ATOM     10  C   UNL     1      -0.174  13.476  19.407  0.00  0.00    +0.000 A 
ATOM     11  N   UNL     1      -0.064  14.586  20.178  0.00  0.00    +0.000 N 
ATOM     12  C   UNL     1       1.146  14.963  20.909  0.00  0.00    +0.000 C 
ATOM     13  C   UNL     1       0.730  15.381  22.326  0.00  0.00    +0.000 C 
ATOM     14  O   UNL     1      -0.213  16.468  22.291  0.00  0.00    +0.000 OA
ATOM     15  C   UNL     1      -1.386  16.108  21.532  0.00  0.00    +0.000 C 
ATOM     16  C   UNL     1      -1.035  15.682  20.094  0.00  0.00    +0.000 C 
ATOM     17  C   UNL     1       0.343  12.184  19.745  0.00  0.00    +0.000 A 
ATOM     18  C   UNL     1       1.020  11.600  20.820  0.00  0.00    +0.000 A 
ATOM     19  N   UNL     1       1.344  10.281  20.806  0.00  0.00    +0.000 NA
ATOM     20  H   UNL     1       2.001   5.854  19.696  0.00  0.00    +0.000 HD
ATOM     21  H   UNL     1       1.907   7.999  20.679  0.00  0.00    +0.000 HD
ATOM     22  H   UNL     1      -1.169  11.902  16.965  0.00  0.00    +0.000 HD
ENDROOT
BRANCH   1  23
ATOM     23  C   UNL     1       3.303   5.538  18.023  0.00  0.00    +0.000 C 
BRANCH  23  24
ATOM     24  C   UNL     1       4.809   5.791  18.191  0.00  0.00    +0.000 A 
ATOM     25  C   UNL     1       5.502   6.457  17.163  0.00  0.00    +0.000 A 
ATOM     26  C   UNL     1       6.882   6.669  17.235  0.00  0.00    +0.000 A 
ATOM     27  C   UNL     1       7.597   6.219  18.341  0.00  0.00    +0.000 A 
ATOM     28  C   UNL     1       6.933   5.558  19.371  0.00  0.00    +0.000 A 
ATOM     29  C   UNL     1       5.550   5.348  19.300  0.00  0.00    +0.000 A 
ENDBRANCH  23  24
BRANCH  23  31
ATOM     30  C   UNL     1       2.607   3.449  19.381  0.00  0.00    +0.000 C 
ATOM     31  C   UNL     1       2.932   4.005  17.986  0.00  0.00    +0.000 C 
ATOM     32  C   UNL     1       4.026   3.134  17.357  0.00  0.00    +0.000 C 
BRANCH  31  33
ATOM     33  O   UNL     1       1.730   3.836  17.207  0.00  0.00    +0.000 OA
ATOM     34  H   UNL     1       1.956   3.952  16.270  0.00  0.00    +0.000 HD
ENDBRANCH  31  33
ENDBRANCH  23  31
ENDBRANCH   1  23
TORSDOF 4
ENDMDL
MODEL 4
REMARK VINA RESULT:      -7.9      6.991     10.391
REMARK  Name = 
REMARK  6 active torsions:
REMARK  status: ('A' for Active; 'I' for Inactive)
REMARK    1  A    between atoms: C_1  and  C_2
REMARK    2  A    between atoms: C_2  and  C_3
REMARK    3  A    between atoms: C_2  and  O_4
REMARK    4  A    between atoms: C_2  and  C_5
REMARK    5  A    between atoms: C_5  and  N_6
REMARK    6  A    between atoms: C_5  and  C_25
REMARK                            x       y       z     vdW  Elec       q    Type
REMARK                         _______ _______ _______ _____ _____    ______ ____
ROOT
ATOM      1  N   UNL     1       2.783   6.577  19.341  0.00  0.00    +0.000 N 
ATOM      2  C   UNL     1       2.062   7.732  19.148  0.00  0.00    +0.000 C 
ATOM      3  O   UNL     1       1.900   8.243  18.045  0.00  0.00    +0.000 OA
ATOM      4  N   UNL     1       1.590   8.249  20.328  0.00  0.00    +0.000 N 
ATOM      5  C   UNL     1       0.827   9.426  20.355  0.00  0.00    +0.000 A 
ATOM      6  C   UNL     1      -0.236   9.625  19.481  0.00  0.00    +0.000 A 
ATOM      7  C   UNL     1      -0.894  10.847  19.614  0.00  0.00    +0.000 A 
ATOM      8  N   UNL     1      -1.985  11.375  18.990  0.00  0.00    +0.000 N 
ATOM      9  N   UNL     1      -2.320  12.605  19.408  0.00  0.00    +0.000 NA
ATOM     10  C   UNL     1      -1.380  12.920  20.304  0.00  0.00    +0.000 A 
ATOM     11  N   UNL     1      -1.345  14.094  20.982  0.00  0.00    +0.000 N 
ATOM     12  C   UNL     1      -0.116  14.805  21.334  0.00  0.00    +0.000 C 
ATOM     13  C   UNL     1      -0.232  15.249  22.799  0.00  0.00    +0.000 C 
ATOM     14  O   UNL     1      -1.388  16.084  22.999  0.00  0.00    +0.000 OA
ATOM     15  C   UNL     1      -2.594  15.395  22.608  0.00  0.00    +0.000 C 
ATOM     16  C   UNL     1      -2.542  14.926  21.142  0.00  0.00    +0.000 C 
ATOM     17  C   UNL     1      -0.491  11.818  20.520  0.00  0.00    +0.000 A 
ATOM     18  C   UNL     1       0.569  11.509  21.378  0.00  0.00    +0.000 A 
ATOM     19  N   UNL     1       1.192  10.304  21.312  0.00  0.00    +0.000 NA
ATOM     20  H   UNL     1       2.598   6.059  20.186  0.00  0.00    +0.000 HD
ATOM     21  H   UNL     1       2.244   8.209  21.096  0.00  0.00    +0.000 HD
ATOM     22  H   UNL     1      -2.567  10.936  18.283  0.00  0.00    +0.000 HD
ENDROOT
BRANCH   1  23
ATOM     23  C   UNL     1       3.447   5.891  18.226  0.00  0.00    +0.000 C 
BRANCH  23  24
ATOM     24  C   UNL     1       4.971   6.071  18.302  0.00  0.00    +0.000 A 
ATOM     25  C   UNL     1       5.610   6.849  17.318  0.00  0.00    +0.000 A 
ATOM     26  C   UNL     1       6.999   7.005  17.304  0.00  0.00    +0.000 A 
ATOM     27  C   UNL     1       7.778   6.386  18.277  0.00  0.00    +0.000 A 
ATOM     28  C   UNL     1       7.168   5.612  19.261  0.00  0.00    +0.000 A 
ATOM     29  C   UNL     1       5.775   5.458  19.277  0.00  0.00    +0.000 A 
ENDBRANCH  23  24
BRANCH  23  31
ATOM     30  C   UNL     1       3.885   3.662  16.987  0.00  0.00    +0.000 C 
ATOM     31  C   UNL     1       3.009   4.390  18.020  0.00  0.00    +0.000 C 
ATOM     32  C   UNL     1       1.540   4.242  17.604  0.00  0.00    +0.000 C 
BRANCH  31  33
ATOM     33  O   UNL     1       3.191   3.678  19.260  0.00  0.00    +0.000 OA
ATOM     34  H   UNL     1       2.334   3.636  19.716  0.00  0.00    +0.000 HD
ENDBRANCH  31  33
ENDBRANCH  23  31
ENDBRANCH   1  23
TORSDOF 4
ENDMDL
MODEL 5
REMARK VINA RESULT:      -7.9      6.505      9.694
REMARK  Name = 
REMARK  6 active torsions:
REMARK  status: ('A' for Active; 'I' for Inactive)
REMARK    1  A    between atoms: C_1  and  C_2
REMARK    2  A    between atoms: C_2  and  C_3
REMARK    3  A    between atoms: C_2  and  O_4
REMARK    4  A    between atoms: C_2  and  C_5
REMARK    5  A    between atoms: C_5  and  N_6
REMARK    6  A    between atoms: C_5  and  C_25
REMARK                            x       y       z     vdW  Elec       q    Type
REMARK                         _______ _______ _______ _____ _____    ______ ____
ROOT
ATOM      1  N   UNL     1       3.266   6.101  18.540  0.00  0.00    +0.000 N 
ATOM      2  C   UNL     1       2.706   7.349  18.402  0.00  0.00    +0.000 C 
ATOM      3  O   UNL     1       2.947   8.090  17.455  0.00  0.00    +0.000 OA
ATOM      4  N   UNL     1       1.890   7.668  19.458  0.00  0.00    +0.000 N 
ATOM      5  C   UNL     1       1.218   8.898  19.516  0.00  0.00    +0.000 A 
ATOM      6  C   UNL     1       0.520   9.398  18.421  0.00  0.00    +0.000 A 
ATOM      7  C   UNL     1      -0.087  10.637  18.620  0.00  0.00    +0.000 A 
ATOM      8  N   UNL     1      -0.881  11.409  17.823  0.00  0.00    +0.000 N 
ATOM      9  N   UNL     1      -1.278  12.559  18.387  0.00  0.00    +0.000 NA
ATOM     10  C   UNL     1      -0.680  12.570  19.582  0.00  0.00    +0.000 A 
ATOM     11  N   UNL     1      -0.820  13.567  20.489  0.00  0.00    +0.000 N 
ATOM     12  C   UNL     1       0.251  14.038  21.367  0.00  0.00    +0.000 C 
ATOM     13  C   UNL     1      -0.328  14.185  22.781  0.00  0.00    +0.000 C 
ATOM     14  O   UNL     1      -1.444  15.095  22.793  0.00  0.00    +0.000 OA
ATOM     15  C   UNL     1      -2.480  14.651  21.893  0.00  0.00    +0.000 C 
ATOM     16  C   UNL     1      -1.961  14.487  20.451  0.00  0.00    +0.000 C 
ATOM     17  C   UNL     1       0.033  11.348  19.806  0.00  0.00    +0.000 A 
ATOM     18  C   UNL     1       0.728  10.745  20.859  0.00  0.00    +0.000 A 
ATOM     19  N   UNL     1       1.281   9.512  20.714  0.00  0.00    +0.000 NA
ATOM     20  H   UNL     1       2.784   5.448  19.138  0.00  0.00    +0.000 HD
ATOM     21  H   UNL     1       2.246   7.394  20.362  0.00  0.00    +0.000 HD
ATOM     22  H   UNL     1      -1.212  11.197  16.887  0.00  0.00    +0.000 HD
ENDROOT
BRANCH   1  23
ATOM     23  C   UNL     1       4.233   5.583  17.564  0.00  0.00    +0.000 C 
BRANCH  23  24
ATOM     24  C   UNL     1       5.658   6.040  17.909  0.00  0.00    +0.000 A 
ATOM     25  C   UNL     1       6.300   5.469  19.024  0.00  0.00    +0.000 A 
ATOM     26  C   UNL     1       7.576   5.883  19.419  0.00  0.00    +0.000 A 
ATOM     27  C   UNL     1       8.236   6.878  18.704  0.00  0.00    +0.000 A 
ATOM     28  C   UNL     1       7.621   7.457  17.597  0.00  0.00    +0.000 A 
ATOM     29  C   UNL     1       6.344   7.040  17.199  0.00  0.00    +0.000 A 
ENDBRANCH  23  24
BRANCH  23  31
ATOM     30  C   UNL     1       4.966   3.594  16.080  0.00  0.00    +0.000 C 
ATOM     31  C   UNL     1       4.128   4.032  17.292  0.00  0.00    +0.000 C 
ATOM     32  C   UNL     1       2.686   3.552  17.086  0.00  0.00    +0.000 C 
BRANCH  31  33
ATOM     33  O   UNL     1       4.674   3.323  18.423  0.00  0.00    +0.000 OA
ATOM     34  H   UNL     1       5.026   2.475  18.108  0.00  0.00    +0.000 HD
ENDBRANCH  31  33
ENDBRANCH  23  31
ENDBRANCH   1  23
TORSDOF 4
ENDMDL
MODEL 6
REMARK VINA RESULT:      -7.9      6.017      7.491
REMARK  Name = 
REMARK  6 active torsions:
REMARK  status: ('A' for Active; 'I' for Inactive)
REMARK    1  A    between atoms: C_1  and  C_2
REMARK    2  A    between atoms: C_2  and  C_3
REMARK    3  A    between atoms: C_2  and  O_4
REMARK    4  A    between atoms: C_2  and  C_5
REMARK    5  A    between atoms: C_5  and  N_6
REMARK    6  A    between atoms: C_5  and  C_25
REMARK                            x       y       z     vdW  Elec       q    Type
REMARK                         _______ _______ _______ _____ _____    ______ ____
ROOT
ATOM      1  N   UNL     1       0.762  13.536  18.747  0.00  0.00    +0.000 N 
ATOM      2  C   UNL     1       1.214  12.327  19.220  0.00  0.00    +0.000 C 
ATOM      3  O   UNL     1       1.756  12.196  20.312  0.00  0.00    +0.000 OA
ATOM      4  N   UNL     1       1.021  11.314  18.314  0.00  0.00    +0.000 N 
ATOM      5  C   UNL     1       1.411   9.997  18.599  0.00  0.00    +0.000 A 
ATOM      6  C   UNL     1       1.102   9.392  19.813  0.00  0.00    +0.000 A 
ATOM      7  C   UNL     1       1.566   8.086  19.961  0.00  0.00    +0.000 A 
ATOM      8  N   UNL     1       1.424   7.168  20.960  0.00  0.00    +0.000 N 
ATOM      9  N   UNL     1       2.028   5.995  20.723  0.00  0.00    +0.000 NA
ATOM     10  C   UNL     1       2.637   6.164  19.545  0.00  0.00    +0.000 A 
ATOM     11  N   UNL     1       3.368   5.204  18.927  0.00  0.00    +0.000 N 
ATOM     12  C   UNL     1       4.581   5.465  18.152  0.00  0.00    +0.000 C 
ATOM     13  C   UNL     1       4.489   4.661  16.847  0.00  0.00    +0.000 C 
ATOM     14  O   UNL     1       4.338   3.255  17.113  0.00  0.00    +0.000 OA
ATOM     15  C   UNL     1       3.164   3.006  17.915  0.00  0.00    +0.000 C 
ATOM     16  C   UNL     1       3.198   3.783  19.245  0.00  0.00    +0.000 C 
ATOM     17  C   UNL     1       2.323   7.447  18.989  0.00  0.00    +0.000 A 
ATOM     18  C   UNL     1       2.552   8.127  17.789  0.00  0.00    +0.000 A 
ATOM     19  N   UNL     1       2.063   9.379  17.593  0.00  0.00    +0.000 NA
ATOM     20  H   UNL     1       0.060  13.510  18.024  0.00  0.00    +0.000 HD
ATOM     21  H   UNL     1       1.218  11.563  17.356  0.00  0.00    +0.000 HD
ATOM     22  H   UNL     1       0.903   7.271  21.825  0.00  0.00    +0.000 HD
ENDROOT
BRANCH   1  23
ATOM     23  C   UNL     1       0.935  14.774  19.517  0.00  0.00    +0.000 C 
BRANCH  23  24
ATOM     24  C   UNL     1       2.262  15.460  19.160  0.00  0.00    +0.000 A 
ATOM     25  C   UNL     1       2.881  15.140  17.938  0.00  0.00    +0.000 A 
ATOM     26  C   UNL     1       4.115  15.692  17.581  0.00  0.00    +0.000 A 
ATOM     27  C   UNL     1       4.756  16.578  18.443  0.00  0.00    +0.000 A 
ATOM     28  C   UNL     1       4.161  16.910  19.658  0.00  0.00    +0.000 A 
ATOM     29  C   UNL     1       2.923  16.359  20.014  0.00  0.00    +0.000 A 
ENDBRANCH  23  24
BRANCH  23  31
ATOM     30  C   UNL     1      -0.292  16.654  18.231  0.00  0.00    +0.000 C 
ATOM     31  C   UNL     1      -0.301  15.754  19.477  0.00  0.00    +0.000 C 
ATOM     32  C   UNL     1      -0.405  16.645  20.721  0.00  0.00    +0.000 C 
BRANCH  31  33
ATOM     33  O   UNL     1      -1.510  14.974  19.389  0.00  0.00    +0.000 OA
ATOM     34  H   UNL     1      -1.832  14.809  20.290  0.00  0.00    +0.000 HD
ENDBRANCH  31  33
ENDBRANCH  23  31
ENDBRANCH   1  23
TORSDOF 4
ENDMDL
MODEL 7
REMARK VINA RESULT:      -7.8      8.002     11.020
REMARK  Name = 
REMARK  6 active torsions:
REMARK  status: ('A' for Active; 'I' for Inactive)
REMARK    1  A    between atoms: C_1  and  C_2
REMARK    2  A    between atoms: C_2  and  C_3
REMARK    3  A    between atoms: C_2  and  O_4
REMARK    4  A    between atoms: C_2  and  C_5
REMARK    5  A    between atoms: C_5  and  N_6
REMARK    6  A    between atoms: C_5  and  C_25
REMARK                            x       y       z     vdW  Elec       q    Type
REMARK                         _______ _______ _______ _____ _____    ______ ____
ROOT
ATOM      1  N   UNL     1       2.556   7.442  18.394  0.00  0.00    +0.000 N 
ATOM      2  C   UNL     1       1.850   8.286  19.218  0.00  0.00    +0.000 C 
ATOM      3  O   UNL     1       1.842   8.177  20.439  0.00  0.00    +0.000 OA
ATOM      4  N   UNL     1       1.141   9.224  18.510  0.00  0.00    +0.000 N 
ATOM      5  C   UNL     1       0.353  10.185  19.159  0.00  0.00    +0.000 A 
ATOM      6  C   UNL     1       0.836  10.913  20.242  0.00  0.00    +0.000 A 
ATOM      7  C   UNL     1      -0.064  11.823  20.795  0.00  0.00    +0.000 A 
ATOM      8  N   UNL     1       0.053  12.731  21.807  0.00  0.00    +0.000 N 
ATOM      9  N   UNL     1      -1.060  13.440  22.044  0.00  0.00    +0.000 NA
ATOM     10  C   UNL     1      -1.961  12.943  21.191  0.00  0.00    +0.000 A 
ATOM     11  N   UNL     1      -3.238  13.389  21.096  0.00  0.00    +0.000 N 
ATOM     12  C   UNL     1      -4.391  12.530  20.827  0.00  0.00    +0.000 C 
ATOM     13  C   UNL     1      -5.254  13.219  19.762  0.00  0.00    +0.000 C 
ATOM     14  O   UNL     1      -5.673  14.526  20.198  0.00  0.00    +0.000 OA
ATOM     15  C   UNL     1      -4.533  15.356  20.504  0.00  0.00    +0.000 C 
ATOM     16  C   UNL     1      -3.627  14.719  21.575  0.00  0.00    +0.000 C 
ATOM     17  C   UNL     1      -1.365  11.963  20.334  0.00  0.00    +0.000 A 
ATOM     18  C   UNL     1      -1.745  11.210  19.219  0.00  0.00    +0.000 A 
ATOM     19  N   UNL     1      -0.872  10.357  18.622  0.00  0.00    +0.000 NA
ATOM     20  H   UNL     1       2.776   7.783  17.471  0.00  0.00    +0.000 HD
ATOM     21  H   UNL     1       0.691   8.871  17.678  0.00  0.00    +0.000 HD
ATOM     22  H   UNL     1       0.877  12.935  22.362  0.00  0.00    +0.000 HD
ENDROOT
BRANCH   1  23
ATOM     23  C   UNL     1       3.327   6.313  18.931  0.00  0.00    +0.000 C 
BRANCH  23  24
ATOM     24  C   UNL     1       2.415   5.109  19.208  0.00  0.00    +0.000 A 
ATOM     25  C   UNL     1       2.297   4.638  20.529  0.00  0.00    +0.000 A 
ATOM     26  C   UNL     1       1.524   3.515  20.835  0.00  0.00    +0.000 A 
ATOM     27  C   UNL     1       0.851   2.838  19.822  0.00  0.00    +0.000 A 
ATOM     28  C   UNL     1       0.951   3.286  18.507  0.00  0.00    +0.000 A 
ATOM     29  C   UNL     1       1.724   4.414  18.201  0.00  0.00    +0.000 A 
ENDBRANCH  23  24
BRANCH  23  31
ATOM     30  C   UNL     1       4.322   4.897  17.008  0.00  0.00    +0.000 C 
ATOM     31  C   UNL     1       4.614   5.939  18.100  0.00  0.00    +0.000 C 
ATOM     32  C   UNL     1       5.766   5.422  18.970  0.00  0.00    +0.000 C 
BRANCH  31  33
ATOM     33  O   UNL     1       5.078   7.115  17.405  0.00  0.00    +0.000 OA
ATOM     34  H   UNL     1       6.039   7.039  17.287  0.00  0.00    +0.000 HD
ENDBRANCH  31  33
ENDBRANCH  23  31
ENDBRANCH   1  23
TORSDOF 4
ENDMDL
MODEL 8
REMARK VINA RESULT:      -7.7      6.795      8.281
REMARK  Name = 
REMARK  6 active torsions:
REMARK  status: ('A' for Active; 'I' for Inactive)
REMARK    1  A    between atoms: C_1  and  C_2
REMARK    2  A    between atoms: C_2  and  C_3
REMARK    3  A    between atoms: C_2  and  O_4
REMARK    4  A    between atoms: C_2  and  C_5
REMARK    5  A    between atoms: C_5  and  N_6
REMARK    6  A    between atoms: C_5  and  C_25
REMARK                            x       y       z     vdW  Elec       q    Type
REMARK                         _______ _______ _______ _____ _____    ______ ____
ROOT
ATOM      1  N   UNL     1       0.246  13.346  19.365  0.00  0.00    +0.000 N 
ATOM      2  C   UNL     1       0.849  12.153  19.685  0.00  0.00    +0.000 C 
ATOM      3  O   UNL     1       1.433  11.961  20.746  0.00  0.00    +0.000 OA
ATOM      4  N   UNL     1       0.748  11.235  18.669  0.00  0.00    +0.000 N 
ATOM      5  C   UNL     1       1.296   9.950  18.791  0.00  0.00    +0.000 A 
ATOM      6  C   UNL     1       1.095   9.177  19.929  0.00  0.00    +0.000 A 
ATOM      7  C   UNL     1       1.710   7.926  19.915  0.00  0.00    +0.000 A 
ATOM      8  N   UNL     1       1.704   6.889  20.801  0.00  0.00    +0.000 N 
ATOM      9  N   UNL     1       2.433   5.830  20.418  0.00  0.00    +0.000 NA
ATOM     10  C   UNL     1       2.984   6.206  19.259  0.00  0.00    +0.000 A 
ATOM     11  N   UNL     1       3.804   5.417  18.521  0.00  0.00    +0.000 N 
ATOM     12  C   UNL     1       4.956   5.908  17.765  0.00  0.00    +0.000 C 
ATOM     13  C   UNL     1       4.920   5.254  16.376  0.00  0.00    +0.000 C 
ATOM     14  O   UNL     1       4.941   3.819  16.476  0.00  0.00    +0.000 OA
ATOM     15  C   UNL     1       3.828   3.342  17.261  0.00  0.00    +0.000 C 
ATOM     16  C   UNL     1       3.809   3.959  18.673  0.00  0.00    +0.000 C 
ATOM     17  C   UNL     1       2.509   7.498  18.864  0.00  0.00    +0.000 A 
ATOM     18  C   UNL     1       2.623   8.334  17.749  0.00  0.00    +0.000 A 
ATOM     19  N   UNL     1       1.986   9.534  17.709  0.00  0.00    +0.000 NA
ATOM     20  H   UNL     1      -0.469  13.321  18.654  0.00  0.00    +0.000 HD
ATOM     21  H   UNL     1       0.887  11.615  17.744  0.00  0.00    +0.000 HD
ATOM     22  H   UNL     1       1.199   6.828  21.679  0.00  0.00    +0.000 HD
ENDROOT
BRANCH   1  23
ATOM     23  C   UNL     1       0.296  14.499  20.273  0.00  0.00    +0.000 C 
BRANCH  23  24
ATOM     24  C   UNL     1       0.431  15.811  19.486  0.00  0.00    +0.000 A 
ATOM     25  C   UNL     1       1.500  16.675  19.790  0.00  0.00    +0.000 A 
ATOM     26  C   UNL     1       1.646  17.906  19.145  0.00  0.00    +0.000 A 
ATOM     27  C   UNL     1       0.723  18.298  18.180  0.00  0.00    +0.000 A 
ATOM     28  C   UNL     1      -0.342  17.459  17.861  0.00  0.00    +0.000 A 
ATOM     29  C   UNL     1      -0.486  16.224  18.505  0.00  0.00    +0.000 A 
ENDBRANCH  23  24
BRANCH  23  31
ATOM     30  C   UNL     1      -2.185  13.997  20.807  0.00  0.00    +0.000 C 
ATOM     31  C   UNL     1      -0.854  14.538  21.352  0.00  0.00    +0.000 C 
ATOM     32  C   UNL     1      -1.096  15.940  21.925  0.00  0.00    +0.000 C 
BRANCH  31  33
ATOM     33  O   UNL     1      -0.496  13.669  22.446  0.00  0.00    +0.000 OA
ATOM     34  H   UNL     1      -0.743  14.109  23.277  0.00  0.00    +0.000 HD
ENDBRANCH  31  33
ENDBRANCH  23  31
ENDBRANCH   1  23
TORSDOF 4
ENDMDL
MODEL 9
REMARK VINA RESULT:      -7.6      6.781      8.044
REMARK  Name = 
REMARK  6 active torsions:
REMARK  status: ('A' for Active; 'I' for Inactive)
REMARK    1  A    between atoms: C_1  and  C_2
REMARK    2  A    between atoms: C_2  and  C_3
REMARK    3  A    between atoms: C_2  and  O_4
REMARK    4  A    between atoms: C_2  and  C_5
REMARK    5  A    between atoms: C_5  and  N_6
REMARK    6  A    between atoms: C_5  and  C_25
REMARK                            x       y       z     vdW  Elec       q    Type
REMARK                         _______ _______ _______ _____ _____    ______ ____
ROOT
ATOM      1  N   UNL     1       8.474  15.570  17.757  0.00  0.00    +0.000 N 
ATOM      2  C   UNL     1       7.491  15.239  18.659  0.00  0.00    +0.000 C 
ATOM      3  O   UNL     1       7.725  14.949  19.827  0.00  0.00    +0.000 OA
ATOM      4  N   UNL     1       6.243  15.239  18.087  0.00  0.00    +0.000 N 
ATOM      5  C   UNL     1       5.098  14.928  18.834  0.00  0.00    +0.000 A 
ATOM      6  C   UNL     1       4.867  15.497  20.083  0.00  0.00    +0.000 A 
ATOM      7  C   UNL     1       3.695  15.085  20.715  0.00  0.00    +0.000 A 
ATOM      8  N   UNL     1       3.112  15.447  21.894  0.00  0.00    +0.000 N 
ATOM      9  N   UNL     1       1.959  14.813  22.158  0.00  0.00    +0.000 NA
ATOM     10  C   UNL     1       1.805  13.963  21.139  0.00  0.00    +0.000 A 
ATOM     11  N   UNL     1       0.749  13.121  21.009  0.00  0.00    +0.000 N 
ATOM     12  C   UNL     1       0.839  11.767  20.462  0.00  0.00    +0.000 C 
ATOM     13  C   UNL     1      -0.323  11.580  19.476  0.00  0.00    +0.000 C 
ATOM     14  O   UNL     1      -1.592  11.794  20.121  0.00  0.00    +0.000 OA
ATOM     15  C   UNL     1      -1.659  13.115  20.698  0.00  0.00    +0.000 C 
ATOM     16  C   UNL     1      -0.519  13.365  21.704  0.00  0.00    +0.000 C 
ATOM     17  C   UNL     1       2.841  14.140  20.166  0.00  0.00    +0.000 A 
ATOM     18  C   UNL     1       3.144  13.651  18.891  0.00  0.00    +0.000 A 
ATOM     19  N   UNL     1       4.248  14.078  18.224  0.00  0.00    +0.000 NA
ATOM     20  H   UNL     1       8.190  16.099  16.947  0.00  0.00    +0.000 HD
ATOM     21  H   UNL     1       6.206  14.837  17.161  0.00  0.00    +0.000 HD
ATOM     22  H   UNL     1       3.437  16.142  22.558  0.00  0.00    +0.000 HD
ENDROOT
BRANCH   1  23
ATOM     23  C   UNL     1       9.894  15.561  18.131  0.00  0.00    +0.000 C 
BRANCH  23  24
ATOM     24  C   UNL     1      10.390  14.124  18.358  0.00  0.00    +0.000 A 
ATOM     25  C   UNL     1      11.050  13.820  19.564  0.00  0.00    +0.000 A 
ATOM     26  C   UNL     1      11.569  12.545  19.806  0.00  0.00    +0.000 A 
ATOM     27  C   UNL     1      11.439  11.547  18.844  0.00  0.00    +0.000 A 
ATOM     28  C   UNL     1      10.790  11.825  17.644  0.00  0.00    +0.000 A 
ATOM     29  C   UNL     1      10.266  13.102  17.403  0.00  0.00    +0.000 A 
ENDBRANCH  23  24
BRANCH  23  31
ATOM     30  C   UNL     1      12.322  16.104  17.420  0.00  0.00    +0.000 C 
ATOM     31  C   UNL     1      10.832  16.398  17.179  0.00  0.00    +0.000 C 
ATOM     32  C   UNL     1      10.611  17.911  17.292  0.00  0.00    +0.000 C 
BRANCH  31  33
ATOM     33  O   UNL     1      10.573  16.014  15.814  0.00  0.00    +0.000 OA
ATOM     34  H   UNL     1      10.402  15.057  15.794  0.00  0.00    +0.000 HD
ENDBRANCH  31  33
ENDBRANCH  23  31
ENDBRANCH   1  23
TORSDOF 4
ENDMDL
