MODEL 1
REMARK VINA RESULT:      -8.0      0.000      0.000
REMARK  Name = 
REMARK  10 active torsions:
REMARK  status: ('A' for Active; 'I' for Inactive)
REMARK    1  A    between atoms: C_2  and  C_3
REMARK    2  A    between atoms: C_7  and  N_8
REMARK    3  A    between atoms: C_9  and  C_11
REMARK    4  A    between atoms: C_11  and  O_12
REMARK    5  A    between atoms: O_12  and  C_13
REMARK    6  A    between atoms: C_13  and  C_15
REMARK    7  A    between atoms: C_15  and  C_16
REMARK    8  A    between atoms: C_16  and  C_17
REMARK    9  A    between atoms: C_20  and  S_21
REMARK   10  A    between atoms: S_21  and  N_24
REMARK                            x       y       z     vdW  Elec       q    Type
REMARK                         _______ _______ _______ _____ _____    ______ ____
ROOT
ATOM      1  C   UNL     1       7.545   8.296  17.558  0.00  0.00    +0.000 C 
ENDROOT
BRANCH   1   2
ATOM      2  C   UNL     1       7.306   6.822  17.333  0.00  0.00    +0.000 C 
ATOM      3  O   UNL     1       7.642   5.930  18.096  0.00  0.00    +0.000 OA
BRANCH   2   4
ATOM      4  O   UNL     1       6.650   6.650  16.151  0.00  0.00    +0.000 OA
BRANCH   4   5
ATOM      5  C   UNL     1       5.276   7.056  16.127  0.00  0.00    +0.000 C 
BRANCH   5   7
ATOM      6  N   UNL     1       4.485   4.866  16.858  0.00  0.00    +0.000 N 
ATOM      7  C   UNL     1       4.430   6.233  17.097  0.00  0.00    +0.000 C 
ATOM      8  O   UNL     1       3.810   6.785  18.002  0.00  0.00    +0.000 OA
ATOM      9  H   UNL     1       4.939   4.590  15.993  0.00  0.00    +0.000 HD
BRANCH   6  14
ATOM     10  C   UNL     1       3.985   2.290  19.489  0.00  0.00    +0.000 A 
ATOM     11  C   UNL     1       2.721   1.798  19.171  0.00  0.00    +0.000 A 
ATOM     12  C   UNL     1       2.021   2.336  18.094  0.00  0.00    +0.000 A 
ATOM     13  C   UNL     1       2.587   3.351  17.323  0.00  0.00    +0.000 A 
ATOM     14  C   UNL     1       3.864   3.854  17.619  0.00  0.00    +0.000 A 
ATOM     15  C   UNL     1       4.550   3.329  18.720  0.00  0.00    +0.000 A 
BRANCH  10  17
ATOM     16  N   UNL     1       5.304   1.280  21.484  0.00  0.00    +0.000 NA
ATOM     17  C   UNL     1       4.717   1.733  20.590  0.00  0.00    +0.000 C 
ENDBRANCH  10  17
ENDBRANCH   6  14
ENDBRANCH   5   7
ENDBRANCH   4   5
ENDBRANCH   2   4
ENDBRANCH   1   2
BRANCH   1  18
ATOM     18  C   UNL     1       8.631   8.530  18.603  0.00  0.00    +0.000 C 
BRANCH  18  19
ATOM     19  C   UNL     1       8.905   9.999  18.837  0.00  0.00    +0.000 A 
ATOM     20  C   UNL     1       9.382  10.455  20.073  0.00  0.00    +0.000 A 
ATOM     21  C   UNL     1       9.753  11.796  20.242  0.00  0.00    +0.000 A 
ATOM     22  C   UNL     1       9.661  12.683  19.164  0.00  0.00    +0.000 A 
ATOM     23  C   UNL     1       9.046  12.271  17.978  0.00  0.00    +0.000 A 
ATOM     24  C   UNL     1       8.701  10.926  17.806  0.00  0.00    +0.000 A 
BRANCH  22  25
ATOM     25  S   UNL     1      10.269  14.360  19.318  0.00  0.00    +0.000 S 
ATOM     26  O   UNL     1       9.453  15.005  20.324  0.00  0.00    +0.000 OA
ATOM     27  O   UNL     1      11.707  14.268  19.471  0.00  0.00    +0.000 OA
BRANCH  25  28
ATOM     28  N   UNL     1       9.968  15.139  17.840  0.00  0.00    +0.000 NA
ATOM     29  C   UNL     1      11.082  15.462  16.915  0.00  0.00    +0.000 C 
ATOM     30  C   UNL     1      11.659  16.845  17.224  0.00  0.00    +0.000 C 
ATOM     31  O   UNL     1      10.657  17.873  17.267  0.00  0.00    +0.000 OA
ATOM     32  C   UNL     1       9.527  17.555  18.094  0.00  0.00    +0.000 C 
ATOM     33  C   UNL     1       8.926  16.191  17.753  0.00  0.00    +0.000 C 
ENDBRANCH  25  28
ENDBRANCH  22  25
ENDBRANCH  18  19
ENDBRANCH   1  18
TORSDOF 10
ENDMDL
MODEL 2
REMARK VINA RESULT:      -8.0      6.484      8.133
REMARK  Name = 
REMARK  10 active torsions:
REMARK  status: ('A' for Active; 'I' for Inactive)
REMARK    1  A    between atoms: C_2  and  C_3
REMARK    2  A    between atoms: C_7  and  N_8
REMARK    3  A    between atoms: C_9  and  C_11
REMARK    4  A    between atoms: C_11  and  O_12
REMARK    5  A    between atoms: O_12  and  C_13
REMARK    6  A    between atoms: C_13  and  C_15
REMARK    7  A    between atoms: C_15  and  C_16
REMARK    8  A    between atoms: C_16  and  C_17
REMARK    9  A    between atoms: C_20  and  S_21
REMARK   10  A    between atoms: S_21  and  N_24
REMARK                            x       y       z     vdW  Elec       q    Type
REMARK                         _______ _______ _______ _____ _____    ______ ____
ROOT
ATOM      1  C   UNL     1       1.379   4.076  20.522  0.00  0.00    +0.000 C 
ENDROOT
BRANCH   1   2
ATOM      2  C   UNL     1       1.828   2.700  20.950  0.00  0.00    +0.000 C 
ATOM      3  O   UNL     1       2.346   2.429  22.022  0.00  0.00    +0.000 OA
BRANCH   2   4
ATOM      4  O   UNL     1       1.553   1.809  19.955  0.00  0.00    +0.000 OA
BRANCH   4   5
ATOM      5  C   UNL     1       1.605   2.323  18.618  0.00  0.00    +0.000 C 
BRANCH   5   7
ATOM      6  N   UNL     1       3.414   3.583  17.570  0.00  0.00    +0.000 N 
ATOM      7  C   UNL     1       3.036   2.348  18.081  0.00  0.00    +0.000 C 
ATOM      8  O   UNL     1       3.744   1.348  18.155  0.00  0.00    +0.000 OA
ATOM      9  H   UNL     1       2.667   4.262  17.468  0.00  0.00    +0.000 HD
BRANCH   6  14
ATOM     10  C   UNL     1       6.159   4.163  15.133  0.00  0.00    +0.000 A 
ATOM     11  C   UNL     1       7.201   4.562  15.966  0.00  0.00    +0.000 A 
ATOM     12  C   UNL     1       6.989   4.661  17.339  0.00  0.00    +0.000 A 
ATOM     13  C   UNL     1       5.745   4.346  17.884  0.00  0.00    +0.000 A 
ATOM     14  C   UNL     1       4.684   3.931  17.064  0.00  0.00    +0.000 A 
ATOM     15  C   UNL     1       4.894   3.861  15.682  0.00  0.00    +0.000 A 
BRANCH  10  17
ATOM     16  N   UNL     1       6.547   3.949  12.576  0.00  0.00    +0.000 NA
ATOM     17  C   UNL     1       6.373   4.048  13.720  0.00  0.00    +0.000 C 
ENDBRANCH  10  17
ENDBRANCH   6  14
ENDBRANCH   5   7
ENDBRANCH   4   5
ENDBRANCH   2   4
ENDBRANCH   1   2
BRANCH   1  18
ATOM     18  C   UNL     1       2.171   5.166  21.237  0.00  0.00    +0.000 C 
BRANCH  18  19
ATOM     19  C   UNL     1       2.028   6.518  20.574  0.00  0.00    +0.000 A 
ATOM     20  C   UNL     1       2.585   6.764  19.311  0.00  0.00    +0.000 A 
ATOM     21  C   UNL     1       2.341   7.975  18.650  0.00  0.00    +0.000 A 
ATOM     22  C   UNL     1       1.523   8.941  19.248  0.00  0.00    +0.000 A 
ATOM     23  C   UNL     1       1.092   8.763  20.565  0.00  0.00    +0.000 A 
ATOM     24  C   UNL     1       1.316   7.543  21.212  0.00  0.00    +0.000 A 
BRANCH  22  25
ATOM     25  S   UNL     1       1.080  10.428  18.356  0.00  0.00    +0.000 S 
ATOM     26  O   UNL     1       2.190  10.730  17.477  0.00  0.00    +0.000 OA
ATOM     27  O   UNL     1      -0.252  10.215  17.827  0.00  0.00    +0.000 OA
BRANCH  25  28
ATOM     28  N   UNL     1       0.976  11.683  19.495  0.00  0.00    +0.000 NA
ATOM     29  C   UNL     1      -0.344  12.209  19.922  0.00  0.00    +0.000 C 
ATOM     30  C   UNL     1      -0.791  13.354  19.012  0.00  0.00    +0.000 C 
ATOM     31  O   UNL     1       0.201  14.384  18.880  0.00  0.00    +0.000 OA
ATOM     32  C   UNL     1       1.510  13.898  18.545  0.00  0.00    +0.000 C 
ATOM     33  C   UNL     1       1.971  12.782  19.483  0.00  0.00    +0.000 C 
ENDBRANCH  25  28
ENDBRANCH  22  25
ENDBRANCH  18  19
ENDBRANCH   1  18
TORSDOF 10
ENDMDL
MODEL 3
REMARK VINA RESULT:      -7.8      5.850      8.187
REMARK  Name = 
REMARK  10 active torsions:
REMARK  status: ('A' for Active; 'I' for Inactive)
REMARK    1  A    between atoms: C_2  and  C_3
REMARK    2  A    between atoms: C_7  and  N_8
REMARK    3  A    between atoms: C_9  and  C_11
REMARK    4  A    between atoms: C_11  and  O_12
REMARK    5  A    between atoms: O_12  and  C_13
REMARK    6  A    between atoms: C_13  and  C_15
REMARK    7  A    between atoms: C_15  and  C_16
REMARK    8  A    between atoms: C_16  and  C_17
REMARK    9  A    between atoms: C_20  and  S_21
REMARK   10  A    between atoms: S_21  and  N_24
REMARK                            x       y       z     vdW  Elec       q    Type
REMARK                         _______ _______ _______ _____ _____    ______ ____
ROOT
ATOM      1  C   UNL     1       1.309   4.829  20.533  0.00  0.00    +0.000 C 
ENDROOT
BRANCH   1   2
ATOM      2  C   UNL     1       1.710   3.403  20.822  0.00  0.00    +0.000 C 
ATOM      3  O   UNL     1       2.235   3.013  21.853  0.00  0.00    +0.000 OA
BRANCH   2   4
ATOM      4  O   UNL     1       1.385   2.620  19.753  0.00  0.00    +0.000 OA
BRANCH   4   5
ATOM      5  C   UNL     1       2.482   1.998  19.072  0.00  0.00    +0.000 C 
BRANCH   5   7
ATOM      6  N   UNL     1       4.374   3.240  18.160  0.00  0.00    +0.000 N 
ATOM      7  C   UNL     1       3.042   2.897  17.970  0.00  0.00    +0.000 C 
ATOM      8  O   UNL     1       2.339   3.221  17.017  0.00  0.00    +0.000 OA
ATOM      9  H   UNL     1       4.766   2.995  19.063  0.00  0.00    +0.000 HD
BRANCH   6  14
ATOM     10  C   UNL     1       6.689   5.893  16.970  0.00  0.00    +0.000 A 
ATOM     11  C   UNL     1       6.776   5.608  15.610  0.00  0.00    +0.000 A 
ATOM     12  C   UNL     1       6.083   4.519  15.087  0.00  0.00    +0.000 A 
ATOM     13  C   UNL     1       5.289   3.726  15.915  0.00  0.00    +0.000 A 
ATOM     14  C   UNL     1       5.178   4.002  17.286  0.00  0.00    +0.000 A 
ATOM     15  C   UNL     1       5.900   5.080  17.812  0.00  0.00    +0.000 A 
BRANCH  10  17
ATOM     16  N   UNL     1       7.965   7.928  17.956  0.00  0.00    +0.000 NA
ATOM     17  C   UNL     1       7.391   7.020  17.515  0.00  0.00    +0.000 C 
ENDBRANCH  10  17
ENDBRANCH   6  14
ENDBRANCH   5   7
ENDBRANCH   4   5
ENDBRANCH   2   4
ENDBRANCH   1   2
BRANCH   1  18
ATOM     18  C   UNL     1       2.486   5.640  20.000  0.00  0.00    +0.000 C 
BRANCH  18  19
ATOM     19  C   UNL     1       2.116   7.076  19.706  0.00  0.00    +0.000 A 
ATOM     20  C   UNL     1       1.545   7.891  20.694  0.00  0.00    +0.000 A 
ATOM     21  C   UNL     1       1.323   9.253  20.453  0.00  0.00    +0.000 A 
ATOM     22  C   UNL     1       1.687   9.809  19.221  0.00  0.00    +0.000 A 
ATOM     23  C   UNL     1       2.113   8.974  18.184  0.00  0.00    +0.000 A 
ATOM     24  C   UNL     1       2.358   7.621  18.437  0.00  0.00    +0.000 A 
BRANCH  22  25
ATOM     25  S   UNL     1       1.548  11.572  18.948  0.00  0.00    +0.000 S 
ATOM     26  O   UNL     1       1.613  12.199  20.251  0.00  0.00    +0.000 OA
ATOM     27  O   UNL     1       2.503  11.909  17.912  0.00  0.00    +0.000 OA
BRANCH  25  28
ATOM     28  N   UNL     1      -0.002  11.862  18.320  0.00  0.00    +0.000 NA
ATOM     29  C   UNL     1      -0.557  13.238  18.282  0.00  0.00    +0.000 C 
ATOM     30  C   UNL     1      -1.310  13.554  19.575  0.00  0.00    +0.000 C 
ATOM     31  O   UNL     1      -2.299  12.565  19.903  0.00  0.00    +0.000 OA
ATOM     32  C   UNL     1      -1.810  11.215  19.871  0.00  0.00    +0.000 C 
ATOM     33  C   UNL     1      -1.095  10.889  18.559  0.00  0.00    +0.000 C 
ENDBRANCH  25  28
ENDBRANCH  22  25
ENDBRANCH  18  19
ENDBRANCH   1  18
TORSDOF 10
ENDMDL
MODEL 4
REMARK VINA RESULT:      -7.7      6.678      8.422
REMARK  Name = 
REMARK  10 active torsions:
REMARK  status: ('A' for Active; 'I' for Inactive)
REMARK    1  A    between atoms: C_2  and  C_3
REMARK    2  A    between atoms: C_7  and  N_8
REMARK    3  A    between atoms: C_9  and  C_11
REMARK    4  A    between atoms: C_11  and  O_12
REMARK    5  A    between atoms: O_12  and  C_13
REMARK    6  A    between atoms: C_13  and  C_15
REMARK    7  A    between atoms: C_15  and  C_16
REMARK    8  A    between atoms: C_16  and  C_17
REMARK    9  A    between atoms: C_20  and  S_21
REMARK   10  A    between atoms: S_21  and  N_24
REMARK                            x       y       z     vdW  Elec       q    Type
REMARK                         _______ _______ _______ _____ _____    ______ ____
ROOT
ATOM      1  C   UNL     1       1.452   4.578  20.446  0.00  0.00    +0.000 C 
ENDROOT
BRANCH   1   2
ATOM      2  C   UNL     1       1.977   3.300  21.053  0.00  0.00    +0.000 C 
ATOM      3  O   UNL     1       1.584   2.801  22.096  0.00  0.00    +0.000 OA
BRANCH   2   4
ATOM      4  O   UNL     1       2.952   2.789  20.248  0.00  0.00    +0.000 OA
BRANCH   4   5
ATOM      5  C   UNL     1       2.519   2.277  18.982  0.00  0.00    +0.000 C 
BRANCH   5   7
ATOM      6  N   UNL     1       4.465   3.352  17.974  0.00  0.00    +0.000 N 
ATOM      7  C   UNL     1       3.113   3.073  17.820  0.00  0.00    +0.000 C 
ATOM      8  O   UNL     1       2.415   3.377  16.857  0.00  0.00    +0.000 OA
ATOM      9  H   UNL     1       4.855   3.141  18.886  0.00  0.00    +0.000 HD
BRANCH   6  14
ATOM     10  C   UNL     1       6.132   4.183  14.759  0.00  0.00    +0.000 A 
ATOM     11  C   UNL     1       6.960   5.240  15.131  0.00  0.00    +0.000 A 
ATOM     12  C   UNL     1       6.950   5.694  16.447  0.00  0.00    +0.000 A 
ATOM     13  C   UNL     1       6.130   5.085  17.397  0.00  0.00    +0.000 A 
ATOM     14  C   UNL     1       5.297   4.011  17.046  0.00  0.00    +0.000 A 
ATOM     15  C   UNL     1       5.289   3.578  15.715  0.00  0.00    +0.000 A 
BRANCH  10  17
ATOM     16  N   UNL     1       6.148   3.314  12.312  0.00  0.00    +0.000 NA
ATOM     17  C   UNL     1       6.144   3.702  13.407  0.00  0.00    +0.000 C 
ENDBRANCH  10  17
ENDBRANCH   6  14
ENDBRANCH   5   7
ENDBRANCH   4   5
ENDBRANCH   2   4
ENDBRANCH   1   2
BRANCH   1  18
ATOM     18  C   UNL     1       2.580   5.567  20.171  0.00  0.00    +0.000 C 
BRANCH  18  19
ATOM     19  C   UNL     1       2.089   6.992  20.055  0.00  0.00    +0.000 A 
ATOM     20  C   UNL     1       2.270   7.724  18.873  0.00  0.00    +0.000 A 
ATOM     21  C   UNL     1       1.701   8.996  18.729  0.00  0.00    +0.000 A 
ATOM     22  C   UNL     1       0.933   9.535  19.768  0.00  0.00    +0.000 A 
ATOM     23  C   UNL     1       0.876   8.878  21.000  0.00  0.00    +0.000 A 
ATOM     24  C   UNL     1       1.423   7.598  21.131  0.00  0.00    +0.000 A 
BRANCH  22  25
ATOM     25  S   UNL     1       0.077  11.092  19.546  0.00  0.00    +0.000 S 
ATOM     26  O   UNL     1       0.689  11.742  18.407  0.00  0.00    +0.000 OA
ATOM     27  O   UNL     1      -1.340  10.792  19.559  0.00  0.00    +0.000 OA
BRANCH  25  28
ATOM     28  N   UNL     1       0.405  12.043  20.913  0.00  0.00    +0.000 NA
ATOM     29  C   UNL     1      -0.645  12.290  21.932  0.00  0.00    +0.000 C 
ATOM     30  C   UNL     1      -1.455  13.540  21.583  0.00  0.00    +0.000 C 
ATOM     31  O   UNL     1      -0.631  14.692  21.344  0.00  0.00    +0.000 OA
ATOM     32  C   UNL     1       0.445  14.462  20.420  0.00  0.00    +0.000 C 
ATOM     33  C   UNL     1       1.278  13.236  20.796  0.00  0.00    +0.000 C 
ENDBRANCH  25  28
ENDBRANCH  22  25
ENDBRANCH  18  19
ENDBRANCH   1  18
TORSDOF 10
ENDMDL
MODEL 5
REMARK VINA RESULT:      -7.6      7.245     10.845
REMARK  Name = 
REMARK  10 active torsions:
REMARK  status: ('A' for Active; 'I' for Inactive)
REMARK    1  A    between atoms: C_2  and  C_3
REMARK    2  A    between atoms: C_7  and  N_8
REMARK    3  A    between atoms: C_9  and  C_11
REMARK    4  A    between atoms: C_11  and  O_12
REMARK    5  A    between atoms: O_12  and  C_13
REMARK    6  A    between atoms: C_13  and  C_15
REMARK    7  A    between atoms: C_15  and  C_16
REMARK    8  A    between atoms: C_16  and  C_17
REMARK    9  A    between atoms: C_20  and  S_21
REMARK   10  A    between atoms: S_21  and  N_24
REMARK                            x       y       z     vdW  Elec       q    Type
REMARK                         _______ _______ _______ _____ _____    ______ ____
ROOT
ATOM      1  C   UNL     1       0.511   9.531  20.807  0.00  0.00    +0.000 C 
ENDROOT
BRANCH   1   2
ATOM      2  C   UNL     1       0.310  10.597  21.857  0.00  0.00    +0.000 C 
ATOM      3  O   UNL     1       0.155  10.391  23.050  0.00  0.00    +0.000 OA
BRANCH   2   4
ATOM      4  O   UNL     1       0.339  11.824  21.262  0.00  0.00    +0.000 OA
BRANCH   4   5
ATOM      5  C   UNL     1      -0.633  12.771  21.723  0.00  0.00    +0.000 C 
BRANCH   5   7
ATOM      6  N   UNL     1      -2.142  11.917  20.005  0.00  0.00    +0.000 N 
ATOM      7  C   UNL     1      -1.689  13.057  20.656  0.00  0.00    +0.000 C 
ATOM      8  O   UNL     1      -2.081  14.205  20.464  0.00  0.00    +0.000 OA
ATOM      9  H   UNL     1      -1.621  11.067  20.194  0.00  0.00    +0.000 HD
BRANCH   6  14
ATOM     10  C   UNL     1      -3.794  11.302  16.734  0.00  0.00    +0.000 A 
ATOM     11  C   UNL     1      -5.094  11.735  16.984  0.00  0.00    +0.000 A 
ATOM     12  C   UNL     1      -5.432  12.213  18.248  0.00  0.00    +0.000 A 
ATOM     13  C   UNL     1      -4.471  12.276  19.257  0.00  0.00    +0.000 A 
ATOM     14  C   UNL     1      -3.153  11.855  19.023  0.00  0.00    +0.000 A 
ATOM     15  C   UNL     1      -2.826  11.348  17.759  0.00  0.00    +0.000 A 
BRANCH  10  17
ATOM     16  N   UNL     1      -3.149  10.432  14.375  0.00  0.00    +0.000 NA
ATOM     17  C   UNL     1      -3.437  10.818  15.432  0.00  0.00    +0.000 C 
ENDBRANCH  10  17
ENDBRANCH   6  14
ENDBRANCH   5   7
ENDBRANCH   4   5
ENDBRANCH   2   4
ENDBRANCH   1   2
BRANCH   1  18
ATOM     18  C   UNL     1       0.989   8.223  21.428  0.00  0.00    +0.000 C 
BRANCH  18  19
ATOM     19  C   UNL     1       1.654   7.311  20.422  0.00  0.00    +0.000 A 
ATOM     20  C   UNL     1       2.095   7.802  19.185  0.00  0.00    +0.000 A 
ATOM     21  C   UNL     1       2.822   6.981  18.312  0.00  0.00    +0.000 A 
ATOM     22  C   UNL     1       3.124   5.666  18.684  0.00  0.00    +0.000 A 
ATOM     23  C   UNL     1       2.560   5.128  19.844  0.00  0.00    +0.000 A 
ATOM     24  C   UNL     1       1.856   5.957  20.724  0.00  0.00    +0.000 A 
BRANCH  22  25
ATOM     25  S   UNL     1       4.176   4.652  17.650  0.00  0.00    +0.000 S 
ATOM     26  O   UNL     1       5.244   4.166  18.497  0.00  0.00    +0.000 OA
ATOM     27  O   UNL     1       3.306   3.731  16.947  0.00  0.00    +0.000 OA
BRANCH  25  28
ATOM     28  N   UNL     1       4.873   5.675  16.488  0.00  0.00    +0.000 NA
ATOM     29  C   UNL     1       5.395   5.125  15.213  0.00  0.00    +0.000 C 
ATOM     30  C   UNL     1       6.865   4.725  15.358  0.00  0.00    +0.000 C 
ATOM     31  O   UNL     1       7.683   5.782  15.884  0.00  0.00    +0.000 OA
ATOM     32  C   UNL     1       7.161   6.389  17.077  0.00  0.00    +0.000 C 
ATOM     33  C   UNL     1       5.705   6.826  16.914  0.00  0.00    +0.000 C 
ENDBRANCH  25  28
ENDBRANCH  22  25
ENDBRANCH  18  19
ENDBRANCH   1  18
TORSDOF 10
ENDMDL
MODEL 6
REMARK VINA RESULT:      -7.6      5.731      7.765
REMARK  Name = 
REMARK  10 active torsions:
REMARK  status: ('A' for Active; 'I' for Inactive)
REMARK    1  A    between atoms: C_2  and  C_3
REMARK    2  A    between atoms: C_7  and  N_8
REMARK    3  A    between atoms: C_9  and  C_11
REMARK    4  A    between atoms: C_11  and  O_12
REMARK    5  A    between atoms: O_12  and  C_13
REMARK    6  A    between atoms: C_13  and  C_15
REMARK    7  A    between atoms: C_15  and  C_16
REMARK    8  A    between atoms: C_16  and  C_17
REMARK    9  A    between atoms: C_20  and  S_21
REMARK   10  A    between atoms: S_21  and  N_24
REMARK                            x       y       z     vdW  Elec       q    Type
REMARK                         _______ _______ _______ _____ _____    ______ ____
ROOT
ATOM      1  C   UNL     1       2.595   5.279  20.648  0.00  0.00    +0.000 C 
ENDROOT
BRANCH   1   2
ATOM      2  C   UNL     1       1.728   4.093  20.302  0.00  0.00    +0.000 C 
ATOM      3  O   UNL     1       0.528   4.138  20.080  0.00  0.00    +0.000 OA
BRANCH   2   4
ATOM      4  O   UNL     1       2.498   2.968  20.270  0.00  0.00    +0.000 OA
BRANCH   4   5
ATOM      5  C   UNL     1       2.486   2.231  19.041  0.00  0.00    +0.000 C 
BRANCH   5   7
ATOM      6  N   UNL     1       4.442   3.334  18.083  0.00  0.00    +0.000 N 
ATOM      7  C   UNL     1       3.098   3.038  17.896  0.00  0.00    +0.000 C 
ATOM      8  O   UNL     1       2.420   3.335  16.916  0.00  0.00    +0.000 OA
ATOM      9  H   UNL     1       4.812   3.126  19.005  0.00  0.00    +0.000 HD
BRANCH   6  14
ATOM     10  C   UNL     1       6.722   5.925  16.707  0.00  0.00    +0.000 A 
ATOM     11  C   UNL     1       6.960   5.443  15.422  0.00  0.00    +0.000 A 
ATOM     12  C   UNL     1       6.380   4.244  15.016  0.00  0.00    +0.000 A 
ATOM     13  C   UNL     1       5.550   3.534  15.882  0.00  0.00    +0.000 A 
ATOM     14  C   UNL     1       5.288   4.007  17.178  0.00  0.00    +0.000 A 
ATOM     15  C   UNL     1       5.897   5.198  17.591  0.00  0.00    +0.000 A 
BRANCH  10  17
ATOM     16  N   UNL     1       7.787   8.166  17.471  0.00  0.00    +0.000 NA
ATOM     17  C   UNL     1       7.307   7.165  17.130  0.00  0.00    +0.000 C 
ENDBRANCH  10  17
ENDBRANCH   6  14
ENDBRANCH   5   7
ENDBRANCH   4   5
ENDBRANCH   2   4
ENDBRANCH   1   2
BRANCH   1  18
ATOM     18  C   UNL     1       2.631   6.292  19.509  0.00  0.00    +0.000 C 
BRANCH  18  19
ATOM     19  C   UNL     1       1.889   7.567  19.842  0.00  0.00    +0.000 A 
ATOM     20  C   UNL     1       1.438   7.819  21.145  0.00  0.00    +0.000 A 
ATOM     21  C   UNL     1       0.866   9.055  21.473  0.00  0.00    +0.000 A 
ATOM     22  C   UNL     1       0.756  10.052  20.496  0.00  0.00    +0.000 A 
ATOM     23  C   UNL     1       1.064   9.754  19.166  0.00  0.00    +0.000 A 
ATOM     24  C   UNL     1       1.658   8.528  18.848  0.00  0.00    +0.000 A 
BRANCH  22  25
ATOM     25  S   UNL     1       0.166  11.684  20.931  0.00  0.00    +0.000 S 
ATOM     26  O   UNL     1      -0.798  12.059  19.918  0.00  0.00    +0.000 OA
ATOM     27  O   UNL     1      -0.207  11.633  22.330  0.00  0.00    +0.000 OA
BRANCH  25  28
ATOM     28  N   UNL     1       1.484  12.746  20.798  0.00  0.00    +0.000 NA
ATOM     29  C   UNL     1       1.444  14.084  21.439  0.00  0.00    +0.000 C 
ATOM     30  C   UNL     1       0.850  15.123  20.487  0.00  0.00    +0.000 C 
ATOM     31  O   UNL     1       1.496  15.141  19.204  0.00  0.00    +0.000 OA
ATOM     32  C   UNL     1       1.620  13.847  18.593  0.00  0.00    +0.000 C 
ATOM     33  C   UNL     1       2.254  12.821  19.533  0.00  0.00    +0.000 C 
ENDBRANCH  25  28
ENDBRANCH  22  25
ENDBRANCH  18  19
ENDBRANCH   1  18
TORSDOF 10
ENDMDL
MODEL 7
REMARK VINA RESULT:      -7.6      6.491      8.206
REMARK  Name = 
REMARK  10 active torsions:
REMARK  status: ('A' for Active; 'I' for Inactive)
REMARK    1  A    between atoms: C_2  and  C_3
REMARK    2  A    between atoms: C_7  and  N_8
REMARK    3  A    between atoms: C_9  and  C_11
REMARK    4  A    between atoms: C_11  and  O_12
REMARK    5  A    between atoms: O_12  and  C_13
REMARK    6  A    between atoms: C_13  and  C_15
REMARK    7  A    between atoms: C_15  and  C_16
REMARK    8  A    between atoms: C_16  and  C_17
REMARK    9  A    between atoms: C_20  and  S_21
REMARK   10  A    between atoms: S_21  and  N_24
REMARK                            x       y       z     vdW  Elec       q    Type
REMARK                         _______ _______ _______ _____ _____    ______ ____
ROOT
ATOM      1  C   UNL     1       1.249   5.056  20.499  0.00  0.00    +0.000 C 
ENDROOT
BRANCH   1   2
ATOM      2  C   UNL     1       1.819   3.715  20.894  0.00  0.00    +0.000 C 
ATOM      3  O   UNL     1       2.119   3.384  22.030  0.00  0.00    +0.000 OA
BRANCH   2   4
ATOM      4  O   UNL     1       1.936   2.933  19.783  0.00  0.00    +0.000 OA
BRANCH   4   5
ATOM      5  C   UNL     1       3.087   2.080  19.732  0.00  0.00    +0.000 C 
BRANCH   5   7
ATOM      6  N   UNL     1       4.159   3.211  17.853  0.00  0.00    +0.000 N 
ATOM      7  C   UNL     1       4.306   2.814  19.176  0.00  0.00    +0.000 C 
ATOM      8  O   UNL     1       5.280   3.030  19.893  0.00  0.00    +0.000 OA
ATOM      9  H   UNL     1       3.347   2.840  17.372  0.00  0.00    +0.000 HD
BRANCH   6  14
ATOM     10  C   UNL     1       6.186   4.329  14.947  0.00  0.00    +0.000 A 
ATOM     11  C   UNL     1       6.937   5.362  15.502  0.00  0.00    +0.000 A 
ATOM     12  C   UNL     1       6.756   5.706  16.840  0.00  0.00    +0.000 A 
ATOM     13  C   UNL     1       5.841   5.009  17.628  0.00  0.00    +0.000 A 
ATOM     14  C   UNL     1       5.083   3.957  17.092  0.00  0.00    +0.000 A 
ATOM     15  C   UNL     1       5.247   3.636  15.739  0.00  0.00    +0.000 A 
BRANCH  10  17
ATOM     16  N   UNL     1       6.529   3.672  12.459  0.00  0.00    +0.000 NA
ATOM     17  C   UNL     1       6.374   3.963  13.573  0.00  0.00    +0.000 C 
ENDBRANCH  10  17
ENDBRANCH   6  14
ENDBRANCH   5   7
ENDBRANCH   4   5
ENDBRANCH   2   4
ENDBRANCH   1   2
BRANCH   1  18
ATOM     18  C   UNL     1       2.345   6.107  20.360  0.00  0.00    +0.000 C 
BRANCH  18  19
ATOM     19  C   UNL     1       1.793   7.499  20.154  0.00  0.00    +0.000 A 
ATOM     20  C   UNL     1       1.940   8.159  18.925  0.00  0.00    +0.000 A 
ATOM     21  C   UNL     1       1.317   9.394  18.702  0.00  0.00    +0.000 A 
ATOM     22  C   UNL     1       0.530   9.967  19.706  0.00  0.00    +0.000 A 
ATOM     23  C   UNL     1       0.504   9.390  20.979  0.00  0.00    +0.000 A 
ATOM     24  C   UNL     1       1.106   8.145  21.191  0.00  0.00    +0.000 A 
BRANCH  22  25
ATOM     25  S   UNL     1      -0.392  11.468  19.388  0.00  0.00    +0.000 S 
ATOM     26  O   UNL     1      -0.971  11.326  18.069  0.00  0.00    +0.000 OA
ATOM     27  O   UNL     1      -1.231  11.695  20.547  0.00  0.00    +0.000 OA
BRANCH  25  28
ATOM     28  N   UNL     1       0.729  12.740  19.319  0.00  0.00    +0.000 NA
ATOM     29  C   UNL     1       1.610  13.035  20.476  0.00  0.00    +0.000 C 
ATOM     30  C   UNL     1       0.940  14.028  21.427  0.00  0.00    +0.000 C 
ATOM     31  O   UNL     1       0.480  15.215  20.763  0.00  0.00    +0.000 OA
ATOM     32  C   UNL     1      -0.311  14.962  19.591  0.00  0.00    +0.000 C 
ATOM     33  C   UNL     1       0.380  14.002  18.622  0.00  0.00    +0.000 C 
ENDBRANCH  25  28
ENDBRANCH  22  25
ENDBRANCH  18  19
ENDBRANCH   1  18
TORSDOF 10
ENDMDL
MODEL 8
REMARK VINA RESULT:      -7.6      6.002      8.373
REMARK  Name = 
REMARK  10 active torsions:
REMARK  status: ('A' for Active; 'I' for Inactive)
REMARK    1  A    between atoms: C_2  and  C_3
REMARK    2  A    between atoms: C_7  and  N_8
REMARK    3  A    between atoms: C_9  and  C_11
REMARK    4  A    between atoms: C_11  and  O_12
REMARK    5  A    between atoms: O_12  and  C_13
REMARK    6  A    between atoms: C_13  and  C_15
REMARK    7  A    between atoms: C_15  and  C_16
REMARK    8  A    between atoms: C_16  and  C_17
REMARK    9  A    between atoms: C_20  and  S_21
REMARK   10  A    between atoms: S_21  and  N_24
REMARK                            x       y       z     vdW  Elec       q    Type
REMARK                         _______ _______ _______ _____ _____    ______ ____
ROOT
ATOM      1  C   UNL     1       1.099   4.689  20.096  0.00  0.00    +0.000 C 
ENDROOT
BRANCH   1   2
ATOM      2  C   UNL     1       1.462   3.538  19.190  0.00  0.00    +0.000 C 
ATOM      3  O   UNL     1       1.111   3.418  18.027  0.00  0.00    +0.000 OA
BRANCH   2   4
ATOM      4  O   UNL     1       2.251   2.661  19.874  0.00  0.00    +0.000 OA
BRANCH   4   5
ATOM      5  C   UNL     1       3.175   1.899  19.087  0.00  0.00    +0.000 C 
BRANCH   5   7
ATOM      6  N   UNL     1       4.389   3.042  17.304  0.00  0.00    +0.000 N 
ATOM      7  C   UNL     1       4.377   2.740  18.660  0.00  0.00    +0.000 C 
ATOM      8  O   UNL     1       5.201   3.111  19.492  0.00  0.00    +0.000 OA
ATOM      9  H   UNL     1       3.704   2.550  16.740  0.00  0.00    +0.000 HD
BRANCH   6  14
ATOM     10  C   UNL     1       6.814   5.786  16.673  0.00  0.00    +0.000 A 
ATOM     11  C   UNL     1       7.185   5.542  15.353  0.00  0.00    +0.000 A 
ATOM     12  C   UNL     1       6.646   4.451  14.675  0.00  0.00    +0.000 A 
ATOM     13  C   UNL     1       5.726   3.615  15.305  0.00  0.00    +0.000 A 
ATOM     14  C   UNL     1       5.330   3.849  16.631  0.00  0.00    +0.000 A 
ATOM     15  C   UNL     1       5.896   4.929  17.317  0.00  0.00    +0.000 A 
BRANCH  10  17
ATOM     16  N   UNL     1       7.799   7.823  17.946  0.00  0.00    +0.000 NA
ATOM     17  C   UNL     1       7.356   6.914  17.375  0.00  0.00    +0.000 C 
ENDBRANCH  10  17
ENDBRANCH   6  14
ENDBRANCH   5   7
ENDBRANCH   4   5
ENDBRANCH   2   4
ENDBRANCH   1   2
BRANCH   1  18
ATOM     18  C   UNL     1       2.287   5.619  20.317  0.00  0.00    +0.000 C 
BRANCH  18  19
ATOM     19  C   UNL     1       1.951   7.067  20.038  0.00  0.00    +0.000 A 
ATOM     20  C   UNL     1       2.260   7.654  18.803  0.00  0.00    +0.000 A 
ATOM     21  C   UNL     1       1.832   8.955  18.507  0.00  0.00    +0.000 A 
ATOM     22  C   UNL     1       1.078   9.670  19.445  0.00  0.00    +0.000 A 
ATOM     23  C   UNL     1       0.898   9.149  20.729  0.00  0.00    +0.000 A 
ATOM     24  C   UNL     1       1.304   7.841  21.012  0.00  0.00    +0.000 A 
BRANCH  22  25
ATOM     25  S   UNL     1       0.398  11.272  19.028  0.00  0.00    +0.000 S 
ATOM     26  O   UNL     1       1.484  12.050  18.469  0.00  0.00    +0.000 OA
ATOM     27  O   UNL     1      -0.809  11.026  18.266  0.00  0.00    +0.000 OA
BRANCH  25  28
ATOM     28  N   UNL     1      -0.064  12.014  20.483  0.00  0.00    +0.000 NA
ATOM     29  C   UNL     1      -1.491  12.056  20.890  0.00  0.00    +0.000 C 
ATOM     30  C   UNL     1      -2.174  13.310  20.341  0.00  0.00    +0.000 C 
ATOM     31  O   UNL     1      -1.469  14.518  20.663  0.00  0.00    +0.000 OA
ATOM     32  C   UNL     1      -0.066  14.479  20.353  0.00  0.00    +0.000 C 
ATOM     33  C   UNL     1       0.622  13.246  20.940  0.00  0.00    +0.000 C 
ENDBRANCH  25  28
ENDBRANCH  22  25
ENDBRANCH  18  19
ENDBRANCH   1  18
TORSDOF 10
ENDMDL
MODEL 9
REMARK VINA RESULT:      -7.5      5.735      7.898
REMARK  Name = 
REMARK  10 active torsions:
REMARK  status: ('A' for Active; 'I' for Inactive)
REMARK    1  A    between atoms: C_2  and  C_3
REMARK    2  A    between atoms: C_7  and  N_8
REMARK    3  A    between atoms: C_9  and  C_11
REMARK    4  A    between atoms: C_11  and  O_12
REMARK    5  A    between atoms: O_12  and  C_13
REMARK    6  A    between atoms: C_13  and  C_15
REMARK    7  A    between atoms: C_15  and  C_16
REMARK    8  A    between atoms: C_16  and  C_17
REMARK    9  A    between atoms: C_20  and  S_21
REMARK   10  A    between atoms: S_21  and  N_24
REMARK                            x       y       z     vdW  Elec       q    Type
REMARK                         _______ _______ _______ _____ _____    ______ ____
ROOT
ATOM      1  C   UNL     1       2.531   4.687  21.230  0.00  0.00    +0.000 C 
ENDROOT
BRANCH   1   2
ATOM      2  C   UNL     1       2.270   3.201  21.266  0.00  0.00    +0.000 C 
ATOM      3  O   UNL     1       1.414   2.651  21.942  0.00  0.00    +0.000 OA
BRANCH   2   4
ATOM      4  O   UNL     1       3.135   2.573  20.419  0.00  0.00    +0.000 OA
BRANCH   4   5
ATOM      5  C   UNL     1       2.583   2.120  19.176  0.00  0.00    +0.000 C 
BRANCH   5   7
ATOM      6  N   UNL     1       4.479   3.298  18.188  0.00  0.00    +0.000 N 
ATOM      7  C   UNL     1       3.168   2.884  17.989  0.00  0.00    +0.000 C 
ATOM      8  O   UNL     1       2.501   3.054  16.972  0.00  0.00    +0.000 OA
ATOM      9  H   UNL     1       4.834   3.188  19.132  0.00  0.00    +0.000 HD
BRANCH   6  14
ATOM     10  C   UNL     1       6.682   5.905  16.719  0.00  0.00    +0.000 A 
ATOM     11  C   UNL     1       6.919   5.393  15.445  0.00  0.00    +0.000 A 
ATOM     12  C   UNL     1       6.365   4.169  15.077  0.00  0.00    +0.000 A 
ATOM     13  C   UNL     1       5.561   3.464  15.972  0.00  0.00    +0.000 A 
ATOM     14  C   UNL     1       5.300   3.966  17.256  0.00  0.00    +0.000 A 
ATOM     15  C   UNL     1       5.883   5.182  17.630  0.00  0.00    +0.000 A 
BRANCH  10  17
ATOM     16  N   UNL     1       7.689   8.197  17.405  0.00  0.00    +0.000 NA
ATOM     17  C   UNL     1       7.240   7.170  17.100  0.00  0.00    +0.000 C 
ENDBRANCH  10  17
ENDBRANCH   6  14
ENDBRANCH   5   7
ENDBRANCH   4   5
ENDBRANCH   2   4
ENDBRANCH   1   2
BRANCH   1  18
ATOM     18  C   UNL     1       1.870   5.337  20.019  0.00  0.00    +0.000 C 
BRANCH  18  19
ATOM     19  C   UNL     1       1.671   6.826  20.196  0.00  0.00    +0.000 A 
ATOM     20  C   UNL     1       1.995   7.724  19.169  0.00  0.00    +0.000 A 
ATOM     21  C   UNL     1       1.691   9.086  19.292  0.00  0.00    +0.000 A 
ATOM     22  C   UNL     1       1.044   9.552  20.443  0.00  0.00    +0.000 A 
ATOM     23  C   UNL     1       0.856   8.692  21.528  0.00  0.00    +0.000 A 
ATOM     24  C   UNL     1       1.138   7.329  21.391  0.00  0.00    +0.000 A 
BRANCH  22  25
ATOM     25  S   UNL     1       0.514  11.258  20.554  0.00  0.00    +0.000 S 
ATOM     26  O   UNL     1      -0.908  11.233  20.822  0.00  0.00    +0.000 OA
ATOM     27  O   UNL     1       1.430  11.920  21.461  0.00  0.00    +0.000 OA
BRANCH  25  28
ATOM     28  N   UNL     1       0.732  11.952  19.021  0.00  0.00    +0.000 NA
ATOM     29  C   UNL     1       2.052  12.499  18.619  0.00  0.00    +0.000 C 
ATOM     30  C   UNL     1       2.169  13.973  19.011  0.00  0.00    +0.000 C 
ATOM     31  O   UNL     1       1.071  14.768  18.537  0.00  0.00    +0.000 OA
ATOM     32  C   UNL     1      -0.222  14.222  18.842  0.00  0.00    +0.000 C 
ATOM     33  C   UNL     1      -0.350  12.761  18.409  0.00  0.00    +0.000 C 
ENDBRANCH  25  28
ENDBRANCH  22  25
ENDBRANCH  18  19
ENDBRANCH   1  18
TORSDOF 10
ENDMDL
