MODEL 1
REMARK VINA RESULT:      -7.5      0.000      0.000
REMARK  Name = 
REMARK  9 active torsions:
REMARK  status: ('A' for Active; 'I' for Inactive)
REMARK    1  A    between atoms: C_2  and  C_3
REMARK    2  A    between atoms: C_3  and  O_4
REMARK    3  A    between atoms: O_4  and  C_5
REMARK    4  A    between atoms: N_12  and  CA_13
REMARK    5  A    between atoms: CA_13  and  C_14
REMARK    6  A    between atoms: CA_13  and  C_16
REMARK    7  A    between atoms: C_14  and  O_15
REMARK    8  A    between atoms: C_16  and  O_17
REMARK    9  A    between atoms: C_16  and  C_18
REMARK                            x       y       z     vdW  Elec       q    Type
REMARK                         _______ _______ _______ _____ _____    ______ ____
ROOT
ATOM      1  O   UNL     1       4.557   3.812  17.844  0.00  0.00    +0.000 OA
ATOM      2  C   UNL     1       4.352   4.866  17.250  0.00  0.00    +0.000 C 
ATOM      3  N   UNL     1       4.829   5.123  15.979  0.00  0.00    +0.000 N 
ATOM      4  H   UNL     1       5.097   6.101  15.843  0.00  0.00    +0.000 HD
ENDROOT
BRANCH   2   5
ATOM      5  C   UNL     1       3.465   5.983  17.811  0.00  0.00    +0.000 C 
BRANCH   5   6
ATOM      6  O   UNL     1       2.112   5.613  18.040  0.00  0.00    +0.000 OA
BRANCH   6   7
ATOM      7  C   UNL     1       1.909   4.764  19.107  0.00  0.00    +0.000 A 
ATOM      8  C   UNL     1       2.448   5.193  20.322  0.00  0.00    +0.000 A 
ATOM      9  C   UNL     1       2.315   4.414  21.479  0.00  0.00    +0.000 A 
ATOM     10  C   UNL     1       1.641   3.193  21.434  0.00  0.00    +0.000 A 
ATOM     11  C   UNL     1       1.097   2.757  20.230  0.00  0.00    +0.000 A 
ATOM     12  C   UNL     1       1.228   3.537  19.083  0.00  0.00    +0.000 A 
ATOM     13  F   UNL     1       0.665   3.061  17.961  0.00  0.00    +0.000 F 
ENDBRANCH   6   7
ENDBRANCH   5   6
ENDBRANCH   2   5
BRANCH   3  14
ATOM     14  CA  UNL     1       5.703   4.164  15.266  0.00  0.00    +0.000 C 
BRANCH  14  15
ATOM     15  C   UNL     1       5.343   4.065  13.763  0.00  0.00    +0.000 C 
BRANCH  15  16
ATOM     16  O   UNL     1       6.193   3.171  13.051  0.00  0.00    +0.000 OA
ATOM     17  H   UNL     1       6.983   3.045  13.603  0.00  0.00    +0.000 HD
ENDBRANCH  15  16
ENDBRANCH  14  15
BRANCH  14  18
ATOM     18  C   UNL     1       7.202   4.544  15.443  0.00  0.00    +0.000 C 
BRANCH  18  19
ATOM     19  C   UNL     1       7.429   5.394  16.684  0.00  0.00    +0.000 A 
ATOM     20  C   UNL     1       7.753   4.792  17.898  0.00  0.00    +0.000 A 
ATOM     21  C   UNL     1       8.026   5.602  18.997  0.00  0.00    +0.000 A 
ATOM     22  C   UNL     1       7.972   6.982  18.858  0.00  0.00    +0.000 A 
ATOM     23  C   UNL     1       7.634   7.505  17.620  0.00  0.00    +0.000 A 
ATOM     24  N   UNL     1       7.361   6.749  16.532  0.00  0.00    +0.000 NA
ENDBRANCH  18  19
BRANCH  18  25
ATOM     25  O   UNL     1       7.698   5.285  14.322  0.00  0.00    +0.000 OA
ATOM     26  H   UNL     1       6.995   5.256  13.652  0.00  0.00    +0.000 HD
ENDBRANCH  18  25
ENDBRANCH  14  18
ENDBRANCH   3  14
TORSDOF 9
ENDMDL
MODEL 2
REMARK VINA RESULT:      -7.4      1.630      3.382
REMARK  Name = 
REMARK  9 active torsions:
REMARK  status: ('A' for Active; 'I' for Inactive)
REMARK    1  A    between atoms: C_2  and  C_3
REMARK    2  A    between atoms: C_3  and  O_4
REMARK    3  A    between atoms: O_4  and  C_5
REMARK    4  A    between atoms: N_12  and  CA_13
REMARK    5  A    between atoms: CA_13  and  C_14
REMARK    6  A    between atoms: CA_13  and  C_16
REMARK    7  A    between atoms: C_14  and  O_15
REMARK    8  A    between atoms: C_16  and  O_17
REMARK    9  A    between atoms: C_16  and  C_18
REMARK                            x       y       z     vdW  Elec       q    Type
REMARK                         _______ _______ _______ _____ _____    ______ ____
ROOT
ATOM      1  O   UNL     1       5.167   5.513  19.040  0.00  0.00    +0.000 OA
ATOM      2  C   UNL     1       4.623   6.040  18.074  0.00  0.00    +0.000 C 
ATOM      3  N   UNL     1       5.306   6.412  16.932  0.00  0.00    +0.000 N 
ATOM      4  H   UNL     1       4.942   7.270  16.511  0.00  0.00    +0.000 HD
ENDROOT
BRANCH   2   5
ATOM      5  C   UNL     1       3.109   6.260  17.985  0.00  0.00    +0.000 C 
BRANCH   5   6
ATOM      6  O   UNL     1       2.430   6.254  19.233  0.00  0.00    +0.000 OA
BRANCH   6   7
ATOM      7  C   UNL     1       2.029   5.012  19.676  0.00  0.00    +0.000 A 
ATOM      8  C   UNL     1       2.331   4.729  21.010  0.00  0.00    +0.000 A 
ATOM      9  C   UNL     1       1.982   3.496  21.577  0.00  0.00    +0.000 A 
ATOM     10  C   UNL     1       1.327   2.528  20.815  0.00  0.00    +0.000 A 
ATOM     11  C   UNL     1       1.018   2.800  19.486  0.00  0.00    +0.000 A 
ATOM     12  C   UNL     1       1.362   4.030  18.927  0.00  0.00    +0.000 A 
ATOM     13  F   UNL     1       1.020   4.229  17.645  0.00  0.00    +0.000 F 
ENDBRANCH   6   7
ENDBRANCH   5   6
ENDBRANCH   2   5
BRANCH   3  14
ATOM     14  CA  UNL     1       6.776   6.275  16.824  0.00  0.00    +0.000 C 
BRANCH  14  15
ATOM     15  C   UNL     1       7.490   6.676  18.138  0.00  0.00    +0.000 C 
BRANCH  15  16
ATOM     16  O   UNL     1       8.004   5.554  18.849  0.00  0.00    +0.000 OA
ATOM     17  H   UNL     1       7.292   4.892  18.870  0.00  0.00    +0.000 HD
ENDBRANCH  15  16
ENDBRANCH  14  15
BRANCH  14  18
ATOM     18  C   UNL     1       7.168   4.826  16.410  0.00  0.00    +0.000 C 
BRANCH  18  19
ATOM     19  C   UNL     1       7.112   4.632  14.903  0.00  0.00    +0.000 A 
ATOM     20  C   UNL     1       6.187   3.755  14.341  0.00  0.00    +0.000 A 
ATOM     21  C   UNL     1       6.113   3.654  12.955  0.00  0.00    +0.000 A 
ATOM     22  C   UNL     1       6.956   4.427  12.168  0.00  0.00    +0.000 A 
ATOM     23  C   UNL     1       7.855   5.270  12.802  0.00  0.00    +0.000 A 
ATOM     24  N   UNL     1       7.956   5.392  14.144  0.00  0.00    +0.000 NA
ENDBRANCH  18  19
BRANCH  18  25
ATOM     25  O   UNL     1       6.297   3.852  16.997  0.00  0.00    +0.000 OA
ATOM     26  H   UNL     1       5.409   4.047  16.652  0.00  0.00    +0.000 HD
ENDBRANCH  18  25
ENDBRANCH  14  18
ENDBRANCH   3  14
TORSDOF 9
ENDMDL
MODEL 3
REMARK VINA RESULT:      -7.3      1.989      3.699
REMARK  Name = 
REMARK  9 active torsions:
REMARK  status: ('A' for Active; 'I' for Inactive)
REMARK    1  A    between atoms: C_2  and  C_3
REMARK    2  A    between atoms: C_3  and  O_4
REMARK    3  A    between atoms: O_4  and  C_5
REMARK    4  A    between atoms: N_12  and  CA_13
REMARK    5  A    between atoms: CA_13  and  C_14
REMARK    6  A    between atoms: CA_13  and  C_16
REMARK    7  A    between atoms: C_14  and  O_15
REMARK    8  A    between atoms: C_16  and  O_17
REMARK    9  A    between atoms: C_16  and  C_18
REMARK                            x       y       z     vdW  Elec       q    Type
REMARK                         _______ _______ _______ _____ _____    ______ ____
ROOT
ATOM      1  O   UNL     1       4.605   6.975  16.347  0.00  0.00    +0.000 OA
ATOM      2  C   UNL     1       4.474   6.698  17.536  0.00  0.00    +0.000 C 
ATOM      3  N   UNL     1       5.528   6.321  18.345  0.00  0.00    +0.000 N 
ATOM      4  H   UNL     1       5.266   5.620  19.042  0.00  0.00    +0.000 HD
ENDROOT
BRANCH   2   5
ATOM      5  C   UNL     1       3.142   6.829  18.282  0.00  0.00    +0.000 C 
BRANCH   5   6
ATOM      6  O   UNL     1       2.125   5.934  17.852  0.00  0.00    +0.000 OA
BRANCH   6   7
ATOM      7  C   UNL     1       1.898   4.859  18.685  0.00  0.00    +0.000 A 
ATOM      8  C   UNL     1       1.890   3.611  18.059  0.00  0.00    +0.000 A 
ATOM      9  C   UNL     1       1.663   2.442  18.798  0.00  0.00    +0.000 A 
ATOM     10  C   UNL     1       1.439   2.508  20.173  0.00  0.00    +0.000 A 
ATOM     11  C   UNL     1       1.449   3.746  20.808  0.00  0.00    +0.000 A 
ATOM     12  C   UNL     1       1.680   4.906  20.071  0.00  0.00    +0.000 A 
ATOM     13  F   UNL     1       1.691   6.063  20.751  0.00  0.00    +0.000 F 
ENDBRANCH   6   7
ENDBRANCH   5   6
ENDBRANCH   2   5
BRANCH   3  14
ATOM     14  CA  UNL     1       6.896   6.143  17.809  0.00  0.00    +0.000 C 
BRANCH  14  15
ATOM     15  C   UNL     1       7.976   6.576  18.831  0.00  0.00    +0.000 C 
BRANCH  15  16
ATOM     16  O   UNL     1       8.450   7.900  18.604  0.00  0.00    +0.000 OA
ATOM     17  H   UNL     1       7.983   8.471  19.237  0.00  0.00    +0.000 HD
ENDBRANCH  15  16
ENDBRANCH  14  15
BRANCH  14  18
ATOM     18  C   UNL     1       7.129   4.669  17.363  0.00  0.00    +0.000 C 
BRANCH  18  19
ATOM     19  C   UNL     1       6.886   4.483  15.874  0.00  0.00    +0.000 A 
ATOM     20  C   UNL     1       5.848   3.668  15.428  0.00  0.00    +0.000 A 
ATOM     21  C   UNL     1       5.606   3.575  14.060  0.00  0.00    +0.000 A 
ATOM     22  C   UNL     1       6.399   4.295  13.176  0.00  0.00    +0.000 A 
ATOM     23  C   UNL     1       7.418   5.077  13.697  0.00  0.00    +0.000 A 
ATOM     24  N   UNL     1       7.682   5.188  15.018  0.00  0.00    +0.000 NA
ENDBRANCH  18  19
BRANCH  18  25
ATOM     25  O   UNL     1       6.260   3.762  18.053  0.00  0.00    +0.000 OA
ATOM     26  H   UNL     1       5.806   4.293  18.730  0.00  0.00    +0.000 HD
ENDBRANCH  18  25
ENDBRANCH  14  18
ENDBRANCH   3  14
TORSDOF 9
ENDMDL
MODEL 4
REMARK VINA RESULT:      -7.2      2.696      6.798
REMARK  Name = 
REMARK  9 active torsions:
REMARK  status: ('A' for Active; 'I' for Inactive)
REMARK    1  A    between atoms: C_2  and  C_3
REMARK    2  A    between atoms: C_3  and  O_4
REMARK    3  A    between atoms: O_4  and  C_5
REMARK    4  A    between atoms: N_12  and  CA_13
REMARK    5  A    between atoms: CA_13  and  C_14
REMARK    6  A    between atoms: CA_13  and  C_16
REMARK    7  A    between atoms: C_14  and  O_15
REMARK    8  A    between atoms: C_16  and  O_17
REMARK    9  A    between atoms: C_16  and  C_18
REMARK                            x       y       z     vdW  Elec       q    Type
REMARK                         _______ _______ _______ _____ _____    ______ ____
ROOT
ATOM      1  O   UNL     1       6.372   4.510  18.815  0.00  0.00    +0.000 OA
ATOM      2  C   UNL     1       6.286   4.935  17.667  0.00  0.00    +0.000 C 
ATOM      3  N   UNL     1       5.249   5.738  17.234  0.00  0.00    +0.000 N 
ATOM      4  H   UNL     1       4.978   5.553  16.265  0.00  0.00    +0.000 HD
ENDROOT
BRANCH   2   5
ATOM      5  C   UNL     1       7.368   4.703  16.606  0.00  0.00    +0.000 C 
BRANCH   5   6
ATOM      6  O   UNL     1       7.292   5.562  15.477  0.00  0.00    +0.000 OA
BRANCH   6   7
ATOM      7  C   UNL     1       7.016   4.936  14.280  0.00  0.00    +0.000 A 
ATOM      8  C   UNL     1       5.897   4.100  14.289  0.00  0.00    +0.000 A 
ATOM      9  C   UNL     1       5.517   3.401  13.135  0.00  0.00    +0.000 A 
ATOM     10  C   UNL     1       6.254   3.529  11.957  0.00  0.00    +0.000 A 
ATOM     11  C   UNL     1       7.368   4.362  11.936  0.00  0.00    +0.000 A 
ATOM     12  C   UNL     1       7.740   5.059  13.084  0.00  0.00    +0.000 A 
ATOM     13  F   UNL     1       8.816   5.855  12.986  0.00  0.00    +0.000 F 
ENDBRANCH   6   7
ENDBRANCH   5   6
ENDBRANCH   2   5
BRANCH   3  14
ATOM     14  CA  UNL     1       4.108   6.080  18.113  0.00  0.00    +0.000 C 
BRANCH  14  15
ATOM     15  C   UNL     1       3.544   7.488  17.803  0.00  0.00    +0.000 C 
BRANCH  15  16
ATOM     16  O   UNL     1       2.125   7.550  17.913  0.00  0.00    +0.000 OA
ATOM     17  H   UNL     1       1.772   7.319  17.037  0.00  0.00    +0.000 HD
ENDBRANCH  15  16
ENDBRANCH  14  15
BRANCH  14  18
ATOM     18  C   UNL     1       2.985   5.007  18.005  0.00  0.00    +0.000 C 
BRANCH  18  19
ATOM     19  C   UNL     1       2.850   4.197  19.285  0.00  0.00    +0.000 A 
ATOM     20  C   UNL     1       1.997   4.623  20.300  0.00  0.00    +0.000 A 
ATOM     21  C   UNL     1       1.840   3.822  21.427  0.00  0.00    +0.000 A 
ATOM     22  C   UNL     1       2.533   2.621  21.513  0.00  0.00    +0.000 A 
ATOM     23  C   UNL     1       3.369   2.270  20.466  0.00  0.00    +0.000 A 
ATOM     24  N   UNL     1       3.547   3.025  19.358  0.00  0.00    +0.000 NA
ENDBRANCH  18  19
BRANCH  18  25
ATOM     25  O   UNL     1       3.234   4.082  16.940  0.00  0.00    +0.000 OA
ATOM     26  H   UNL     1       4.201   3.997  16.883  0.00  0.00    +0.000 HD
ENDBRANCH  18  25
ENDBRANCH  14  18
ENDBRANCH   3  14
TORSDOF 9
ENDMDL
MODEL 5
REMARK VINA RESULT:      -7.2      2.037      3.592
REMARK  Name = 
REMARK  9 active torsions:
REMARK  status: ('A' for Active; 'I' for Inactive)
REMARK    1  A    between atoms: C_2  and  C_3
REMARK    2  A    between atoms: C_3  and  O_4
REMARK    3  A    between atoms: O_4  and  C_5
REMARK    4  A    between atoms: N_12  and  CA_13
REMARK    5  A    between atoms: CA_13  and  C_14
REMARK    6  A    between atoms: CA_13  and  C_16
REMARK    7  A    between atoms: C_14  and  O_15
REMARK    8  A    between atoms: C_16  and  O_17
REMARK    9  A    between atoms: C_16  and  C_18
REMARK                            x       y       z     vdW  Elec       q    Type
REMARK                         _______ _______ _______ _____ _____    ______ ____
ROOT
ATOM      1  O   UNL     1       3.029   3.694  16.749  0.00  0.00    +0.000 OA
ATOM      2  C   UNL     1       3.990   3.105  17.234  0.00  0.00    +0.000 C 
ATOM      3  N   UNL     1       5.246   3.670  17.343  0.00  0.00    +0.000 N 
ATOM      4  H   UNL     1       6.002   2.994  17.205  0.00  0.00    +0.000 HD
ENDROOT
BRANCH   2   5
ATOM      5  C   UNL     1       3.887   1.710  17.861  0.00  0.00    +0.000 C 
BRANCH   5   6
ATOM      6  O   UNL     1       3.618   1.700  19.256  0.00  0.00    +0.000 OA
BRANCH   6   7
ATOM      7  C   UNL     1       2.714   2.648  19.686  0.00  0.00    +0.000 A 
ATOM      8  C   UNL     1       3.264   3.713  20.404  0.00  0.00    +0.000 A 
ATOM      9  C   UNL     1       2.447   4.737  20.902  0.00  0.00    +0.000 A 
ATOM     10  C   UNL     1       1.069   4.709  20.687  0.00  0.00    +0.000 A 
ATOM     11  C   UNL     1       0.511   3.655  19.970  0.00  0.00    +0.000 A 
ATOM     12  C   UNL     1       1.327   2.641  19.473  0.00  0.00    +0.000 A 
ATOM     13  F   UNL     1       0.723   1.665  18.777  0.00  0.00    +0.000 F 
ENDBRANCH   6   7
ENDBRANCH   5   6
ENDBRANCH   2   5
BRANCH   3  14
ATOM     14  CA  UNL     1       5.546   5.014  16.800  0.00  0.00    +0.000 C 
BRANCH  14  15
ATOM     15  C   UNL     1       5.315   6.125  17.854  0.00  0.00    +0.000 C 
BRANCH  15  16
ATOM     16  O   UNL     1       3.948   6.510  17.958  0.00  0.00    +0.000 OA
ATOM     17  H   UNL     1       3.693   6.369  18.886  0.00  0.00    +0.000 HD
ENDBRANCH  15  16
ENDBRANCH  14  15
BRANCH  14  18
ATOM     18  C   UNL     1       7.002   5.077  16.252  0.00  0.00    +0.000 C 
BRANCH  18  19
ATOM     19  C   UNL     1       7.061   4.769  14.764  0.00  0.00    +0.000 A 
ATOM     20  C   UNL     1       6.203   3.822  14.208  0.00  0.00    +0.000 A 
ATOM     21  C   UNL     1       6.232   3.616  12.831  0.00  0.00    +0.000 A 
ATOM     22  C   UNL     1       7.109   4.355  12.048  0.00  0.00    +0.000 A 
ATOM     23  C   UNL     1       7.937   5.272  12.677  0.00  0.00    +0.000 A 
ATOM     24  N   UNL     1       7.936   5.497  14.010  0.00  0.00    +0.000 NA
ENDBRANCH  18  19
BRANCH  18  25
ATOM     25  O   UNL     1       7.861   4.141  16.915  0.00  0.00    +0.000 OA
ATOM     26  H   UNL     1       7.420   3.925  17.754  0.00  0.00    +0.000 HD
ENDBRANCH  18  25
ENDBRANCH  14  18
ENDBRANCH   3  14
TORSDOF 9
ENDMDL
MODEL 6
REMARK VINA RESULT:      -7.2      2.982      7.185
REMARK  Name = 
REMARK  9 active torsions:
REMARK  status: ('A' for Active; 'I' for Inactive)
REMARK    1  A    between atoms: C_2  and  C_3
REMARK    2  A    between atoms: C_3  and  O_4
REMARK    3  A    between atoms: O_4  and  C_5
REMARK    4  A    between atoms: N_12  and  CA_13
REMARK    5  A    between atoms: CA_13  and  C_14
REMARK    6  A    between atoms: CA_13  and  C_16
REMARK    7  A    between atoms: C_14  and  O_15
REMARK    8  A    between atoms: C_16  and  O_17
REMARK    9  A    between atoms: C_16  and  C_18
REMARK                            x       y       z     vdW  Elec       q    Type
REMARK                         _______ _______ _______ _____ _____    ______ ____
ROOT
ATOM      1  O   UNL     1       6.964   5.977  18.466  0.00  0.00    +0.000 OA
ATOM      2  C   UNL     1       6.885   4.996  17.733  0.00  0.00    +0.000 C 
ATOM      3  N   UNL     1       5.959   3.987  17.919  0.00  0.00    +0.000 N 
ATOM      4  H   UNL     1       6.323   3.062  17.676  0.00  0.00    +0.000 HD
ENDROOT
BRANCH   2   5
ATOM      5  C   UNL     1       7.740   4.822  16.473  0.00  0.00    +0.000 C 
BRANCH   5   6
ATOM      6  O   UNL     1       7.372   5.654  15.382  0.00  0.00    +0.000 OA
BRANCH   6   7
ATOM      7  C   UNL     1       7.044   4.988  14.220  0.00  0.00    +0.000 A 
ATOM      8  C   UNL     1       5.915   4.170  14.300  0.00  0.00    +0.000 A 
ATOM      9  C   UNL     1       5.484   3.434  13.188  0.00  0.00    +0.000 A 
ATOM     10  C   UNL     1       6.180   3.507  11.981  0.00  0.00    +0.000 A 
ATOM     11  C   UNL     1       7.304   4.321  11.889  0.00  0.00    +0.000 A 
ATOM     12  C   UNL     1       7.727   5.055  12.995  0.00  0.00    +0.000 A 
ATOM     13  F   UNL     1       8.810   5.831  12.830  0.00  0.00    +0.000 F 
ENDBRANCH   6   7
ENDBRANCH   5   6
ENDBRANCH   2   5
BRANCH   3  14
ATOM     14  CA  UNL     1       5.040   3.977  19.079  0.00  0.00    +0.000 C 
BRANCH  14  15
ATOM     15  C   UNL     1       3.881   4.989  18.904  0.00  0.00    +0.000 C 
BRANCH  15  16
ATOM     16  O   UNL     1       3.775   5.898  19.995  0.00  0.00    +0.000 OA
ATOM     17  H   UNL     1       4.518   5.701  20.591  0.00  0.00    +0.000 HD
ENDBRANCH  15  16
ENDBRANCH  14  15
BRANCH  14  18
ATOM     18  C   UNL     1       4.479   2.546  19.328  0.00  0.00    +0.000 C 
BRANCH  18  19
ATOM     19  C   UNL     1       3.001   2.569  19.685  0.00  0.00    +0.000 A 
ATOM     20  C   UNL     1       2.600   2.782  21.002  0.00  0.00    +0.000 A 
ATOM     21  C   UNL     1       1.240   2.871  21.284  0.00  0.00    +0.000 A 
ATOM     22  C   UNL     1       0.319   2.749  20.252  0.00  0.00    +0.000 A 
ATOM     23  C   UNL     1       0.797   2.530  18.970  0.00  0.00    +0.000 A 
ATOM     24  N   UNL     1       2.110   2.437  18.660  0.00  0.00    +0.000 NA
ENDBRANCH  18  19
BRANCH  18  25
ATOM     25  O   UNL     1       5.166   1.885  20.399  0.00  0.00    +0.000 OA
ATOM     26  H   UNL     1       5.629   1.133  19.993  0.00  0.00    +0.000 HD
ENDBRANCH  18  25
ENDBRANCH  14  18
ENDBRANCH   3  14
TORSDOF 9
ENDMDL
MODEL 7
REMARK VINA RESULT:      -7.1      2.802      6.996
REMARK  Name = 
REMARK  9 active torsions:
REMARK  status: ('A' for Active; 'I' for Inactive)
REMARK    1  A    between atoms: C_2  and  C_3
REMARK    2  A    between atoms: C_3  and  O_4
REMARK    3  A    between atoms: O_4  and  C_5
REMARK    4  A    between atoms: N_12  and  CA_13
REMARK    5  A    between atoms: CA_13  and  C_14
REMARK    6  A    between atoms: CA_13  and  C_16
REMARK    7  A    between atoms: C_14  and  O_15
REMARK    8  A    between atoms: C_16  and  O_17
REMARK    9  A    between atoms: C_16  and  C_18
REMARK                            x       y       z     vdW  Elec       q    Type
REMARK                         _______ _______ _______ _____ _____    ______ ____
ROOT
ATOM      1  O   UNL     1       7.105   4.428  18.740  0.00  0.00    +0.000 OA
ATOM      2  C   UNL     1       6.725   4.745  17.616  0.00  0.00    +0.000 C 
ATOM      3  N   UNL     1       5.414   5.064  17.324  0.00  0.00    +0.000 N 
ATOM      4  H   UNL     1       5.125   4.753  16.393  0.00  0.00    +0.000 HD
ENDROOT
BRANCH   2   5
ATOM      5  C   UNL     1       7.679   4.914  16.429  0.00  0.00    +0.000 C 
BRANCH   5   6
ATOM      6  O   UNL     1       7.164   5.689  15.354  0.00  0.00    +0.000 OA
BRANCH   6   7
ATOM      7  C   UNL     1       6.950   4.996  14.181  0.00  0.00    +0.000 A 
ATOM      8  C   UNL     1       5.824   4.171  14.173  0.00  0.00    +0.000 A 
ATOM      9  C   UNL     1       5.503   3.409  13.042  0.00  0.00    +0.000 A 
ATOM     10  C   UNL     1       6.307   3.463  11.903  0.00  0.00    +0.000 A 
ATOM     11  C   UNL     1       7.430   4.285  11.898  0.00  0.00    +0.000 A 
ATOM     12  C   UNL     1       7.743   5.044  13.024  0.00  0.00    +0.000 A 
ATOM     13  F   UNL     1       8.831   5.826  12.943  0.00  0.00    +0.000 F 
ENDBRANCH   6   7
ENDBRANCH   5   6
ENDBRANCH   2   5
BRANCH   3  14
ATOM     14  CA  UNL     1       4.342   4.966  18.340  0.00  0.00    +0.000 C 
BRANCH  14  15
ATOM     15  C   UNL     1       3.477   6.249  18.391  0.00  0.00    +0.000 C 
BRANCH  15  16
ATOM     16  O   UNL     1       3.111   6.615  19.718  0.00  0.00    +0.000 OA
ATOM     17  H   UNL     1       3.416   7.530  19.844  0.00  0.00    +0.000 HD
ENDBRANCH  15  16
ENDBRANCH  14  15
BRANCH  14  18
ATOM     18  C   UNL     1       3.449   3.716  18.084  0.00  0.00    +0.000 C 
BRANCH  18  19
ATOM     19  C   UNL     1       2.692   3.295  19.334  0.00  0.00    +0.000 A 
ATOM     20  C   UNL     1       3.377   2.763  20.425  0.00  0.00    +0.000 A 
ATOM     21  C   UNL     1       2.665   2.455  21.580  0.00  0.00    +0.000 A 
ATOM     22  C   UNL     1       1.296   2.685  21.620  0.00  0.00    +0.000 A 
ATOM     23  C   UNL     1       0.685   3.208  20.491  0.00  0.00    +0.000 A 
ATOM     24  N   UNL     1       1.345   3.517  19.352  0.00  0.00    +0.000 NA
ENDBRANCH  18  19
BRANCH  18  25
ATOM     25  O   UNL     1       4.223   2.589  17.654  0.00  0.00    +0.000 OA
ATOM     26  H   UNL     1       4.047   2.495  16.703  0.00  0.00    +0.000 HD
ENDBRANCH  18  25
ENDBRANCH  14  18
ENDBRANCH   3  14
TORSDOF 9
ENDMDL
MODEL 8
REMARK VINA RESULT:      -7.1      2.939      6.930
REMARK  Name = 
REMARK  9 active torsions:
REMARK  status: ('A' for Active; 'I' for Inactive)
REMARK    1  A    between atoms: C_2  and  C_3
REMARK    2  A    between atoms: C_3  and  O_4
REMARK    3  A    between atoms: O_4  and  C_5
REMARK    4  A    between atoms: N_12  and  CA_13
REMARK    5  A    between atoms: CA_13  and  C_14
REMARK    6  A    between atoms: CA_13  and  C_16
REMARK    7  A    between atoms: C_14  and  O_15
REMARK    8  A    between atoms: C_16  and  O_17
REMARK    9  A    between atoms: C_16  and  C_18
REMARK                            x       y       z     vdW  Elec       q    Type
REMARK                         _______ _______ _______ _____ _____    ______ ____
ROOT
ATOM      1  O   UNL     1       6.828   6.342  18.485  0.00  0.00    +0.000 OA
ATOM      2  C   UNL     1       6.193   5.645  17.700  0.00  0.00    +0.000 C 
ATOM      3  N   UNL     1       4.814   5.669  17.613  0.00  0.00    +0.000 N 
ATOM      4  H   UNL     1       4.410   4.752  17.408  0.00  0.00    +0.000 HD
ENDROOT
BRANCH   2   5
ATOM      5  C   UNL     1       6.858   4.737  16.660  0.00  0.00    +0.000 C 
BRANCH   5   6
ATOM      6  O   UNL     1       7.395   5.413  15.532  0.00  0.00    +0.000 OA
BRANCH   6   7
ATOM      7  C   UNL     1       7.079   4.857  14.310  0.00  0.00    +0.000 A 
ATOM      8  C   UNL     1       5.966   4.013  14.308  0.00  0.00    +0.000 A 
ATOM      9  C   UNL     1       5.548   3.382  13.129  0.00  0.00    +0.000 A 
ATOM     10  C   UNL     1       6.241   3.587  11.935  0.00  0.00    +0.000 A 
ATOM     11  C   UNL     1       7.348   4.429  11.924  0.00  0.00    +0.000 A 
ATOM     12  C   UNL     1       7.757   5.059  13.098  0.00  0.00    +0.000 A 
ATOM     13  F   UNL     1       8.824   5.869  13.009  0.00  0.00    +0.000 F 
ENDBRANCH   6   7
ENDBRANCH   5   6
ENDBRANCH   2   5
BRANCH   3  14
ATOM     14  CA  UNL     1       3.990   6.488  18.531  0.00  0.00    +0.000 C 
BRANCH  14  15
ATOM     15  C   UNL     1       2.889   7.270  17.773  0.00  0.00    +0.000 C 
BRANCH  15  16
ATOM     16  O   UNL     1       2.407   8.392  18.505  0.00  0.00    +0.000 OA
ATOM     17  H   UNL     1       3.190   8.907  18.766  0.00  0.00    +0.000 HD
ENDBRANCH  15  16
ENDBRANCH  14  15
BRANCH  14  18
ATOM     18  C   UNL     1       3.360   5.604  19.647  0.00  0.00    +0.000 C 
BRANCH  18  19
ATOM     19  C   UNL     1       3.235   4.151  19.217  0.00  0.00    +0.000 A 
ATOM     20  C   UNL     1       2.156   3.739  18.438  0.00  0.00    +0.000 A 
ATOM     21  C   UNL     1       2.109   2.419  18.000  0.00  0.00    +0.000 A 
ATOM     22  C   UNL     1       3.134   1.548  18.345  0.00  0.00    +0.000 A 
ATOM     23  C   UNL     1       4.169   2.031  19.130  0.00  0.00    +0.000 A 
ATOM     24  N   UNL     1       4.246   3.305  19.575  0.00  0.00    +0.000 NA
ENDBRANCH  18  19
BRANCH  18  25
ATOM     25  O   UNL     1       2.049   6.056  20.006  0.00  0.00    +0.000 OA
ATOM     26  H   UNL     1       2.061   6.165  20.972  0.00  0.00    +0.000 HD
ENDBRANCH  18  25
ENDBRANCH  14  18
ENDBRANCH   3  14
TORSDOF 9
ENDMDL
MODEL 9
REMARK VINA RESULT:      -7.1      2.293      3.805
REMARK  Name = 
REMARK  9 active torsions:
REMARK  status: ('A' for Active; 'I' for Inactive)
REMARK    1  A    between atoms: C_2  and  C_3
REMARK    2  A    between atoms: C_3  and  O_4
REMARK    3  A    between atoms: O_4  and  C_5
REMARK    4  A    between atoms: N_12  and  CA_13
REMARK    5  A    between atoms: CA_13  and  C_14
REMARK    6  A    between atoms: CA_13  and  C_16
REMARK    7  A    between atoms: C_14  and  O_15
REMARK    8  A    between atoms: C_16  and  O_17
REMARK    9  A    between atoms: C_16  and  C_18
REMARK                            x       y       z     vdW  Elec       q    Type
REMARK                         _______ _______ _______ _____ _____    ______ ____
ROOT
ATOM      1  O   UNL     1       3.150   3.495  16.761  0.00  0.00    +0.000 OA
ATOM      2  C   UNL     1       4.133   3.125  17.396  0.00  0.00    +0.000 C 
ATOM      3  N   UNL     1       5.334   3.809  17.394  0.00  0.00    +0.000 N 
ATOM      4  H   UNL     1       6.147   3.190  17.439  0.00  0.00    +0.000 HD
ENDROOT
BRANCH   2   5
ATOM      5  C   UNL     1       4.116   1.915  18.335  0.00  0.00    +0.000 C 
BRANCH   5   6
ATOM      6  O   UNL     1       3.979   2.230  19.714  0.00  0.00    +0.000 OA
BRANCH   6   7
ATOM      7  C   UNL     1       2.972   3.124  20.013  0.00  0.00    +0.000 A 
ATOM      8  C   UNL     1       1.694   2.570  20.115  0.00  0.00    +0.000 A 
ATOM      9  C   UNL     1       0.586   3.377  20.408  0.00  0.00    +0.000 A 
ATOM     10  C   UNL     1       0.744   4.749  20.602  0.00  0.00    +0.000 A 
ATOM     11  C   UNL     1       2.013   5.311  20.507  0.00  0.00    +0.000 A 
ATOM     12  C   UNL     1       3.113   4.505  20.220  0.00  0.00    +0.000 A 
ATOM     13  F   UNL     1       4.308   5.112  20.159  0.00  0.00    +0.000 F 
ENDBRANCH   6   7
ENDBRANCH   5   6
ENDBRANCH   2   5
BRANCH   3  14
ATOM     14  CA  UNL     1       5.547   5.007  16.552  0.00  0.00    +0.000 C 
BRANCH  14  15
ATOM     15  C   UNL     1       5.198   6.312  17.309  0.00  0.00    +0.000 C 
BRANCH  15  16
ATOM     16  O   UNL     1       6.122   7.365  17.048  0.00  0.00    +0.000 OA
ATOM     17  H   UNL     1       5.617   8.194  17.102  0.00  0.00    +0.000 HD
ENDBRANCH  15  16
ENDBRANCH  14  15
BRANCH  14  18
ATOM     18  C   UNL     1       7.010   5.059  16.023  0.00  0.00    +0.000 C 
BRANCH  18  19
ATOM     19  C   UNL     1       7.085   4.773  14.532  0.00  0.00    +0.000 A 
ATOM     20  C   UNL     1       6.262   3.805  13.960  0.00  0.00    +0.000 A 
ATOM     21  C   UNL     1       6.302   3.618  12.581  0.00  0.00    +0.000 A 
ATOM     22  C   UNL     1       7.155   4.397  11.811  0.00  0.00    +0.000 A 
ATOM     23  C   UNL     1       7.949   5.333  12.455  0.00  0.00    +0.000 A 
ATOM     24  N   UNL     1       7.938   5.539  13.791  0.00  0.00    +0.000 NA
ENDBRANCH  18  19
BRANCH  18  25
ATOM     25  O   UNL     1       7.848   4.101  16.683  0.00  0.00    +0.000 OA
ATOM     26  H   UNL     1       7.575   3.232  16.343  0.00  0.00    +0.000 HD
ENDBRANCH  18  25
ENDBRANCH  14  18
ENDBRANCH   3  14
TORSDOF 9
ENDMDL
