MODEL 1
REMARK VINA RESULT:      -7.1      0.000      0.000
REMARK  Name = 
REMARK  7 active torsions:
REMARK  status: ('A' for Active; 'I' for Inactive)
REMARK    1  A    between atoms: C_1  and  C_2
REMARK    2  A    between atoms: C_5  and  S_6
REMARK    3  A    between atoms: S_6  and  C_7
REMARK    4  A    between atoms: C_7  and  C_8
REMARK    5  A    between atoms: N_10  and  C_11
REMARK    6  A    between atoms: C_11  and  C_12
REMARK    7  A    between atoms: C_18  and  O_19
REMARK                            x       y       z     vdW  Elec       q    Type
REMARK                         _______ _______ _______ _____ _____    ______ ____
ROOT
ATOM      1  C   UNL     1       5.602   5.813  18.260  0.00  0.00    +0.000 C 
ENDROOT
BRANCH   1   2
ATOM      2  C   UNL     1       5.092   4.436  18.646  0.00  0.00    +0.000 C 
ATOM      3  O   UNL     1       5.701   3.722  19.441  0.00  0.00    +0.000 OA
ATOM      4  N   UNL     1       3.948   4.011  18.007  0.00  0.00    +0.000 N 
ATOM      5  H   UNL     1       3.376   4.667  17.485  0.00  0.00    +0.000 HD
BRANCH   4   6
ATOM      6  C   UNL     1       3.371   2.736  18.357  0.00  0.00    +0.000 C 
BRANCH   6   7
ATOM      7  C   UNL     1       2.547   2.801  19.591  0.00  0.00    +0.000 A 
ATOM      8  C   UNL     1       1.209   3.095  19.784  0.00  0.00    +0.000 A 
ATOM      9  C   UNL     1       0.969   2.991  21.173  0.00  0.00    +0.000 A 
ATOM     10  C   UNL     1       2.169   2.640  21.743  0.00  0.00    +0.000 A 
ATOM     11  O   UNL     1       3.136   2.519  20.793  0.00  0.00    +0.000 OA
ENDBRANCH   6   7
ENDBRANCH   4   6
ENDBRANCH   1   2
BRANCH   1  12
ATOM     12  S   UNL     1       7.306   5.709  17.634  0.00  0.00    +0.000 S 
BRANCH  12  17
ATOM     13  C   UNL     1       6.248   3.440  12.230  0.00  0.00    +0.000 C 
ATOM     14  C   UNL     1       6.520   3.999  13.585  0.00  0.00    +0.000 A 
ATOM     15  N   UNL     1       5.888   3.468  14.647  0.00  0.00    +0.000 NA
ATOM     16  N   UNL     1       6.135   3.991  15.887  0.00  0.00    +0.000 NA
ATOM     17  C   UNL     1       7.003   5.018  16.023  0.00  0.00    +0.000 A 
ATOM     18  N   UNL     1       7.660   5.586  14.996  0.00  0.00    +0.000 NA
ATOM     19  C   UNL     1       7.389   5.047  13.800  0.00  0.00    +0.000 A 
BRANCH  19  20
ATOM     20  O   UNL     1       8.062   5.636  12.775  0.00  0.00    +0.000 OA
ATOM     21  H   UNL     1       7.627   6.507  12.746  0.00  0.00    +0.000 HD
ENDBRANCH  19  20
ENDBRANCH  12  17
ENDBRANCH   1  12
TORSDOF 6
ENDMDL
MODEL 2
REMARK VINA RESULT:      -7.1      3.260      5.138
REMARK  Name = 
REMARK  7 active torsions:
REMARK  status: ('A' for Active; 'I' for Inactive)
REMARK    1  A    between atoms: C_1  and  C_2
REMARK    2  A    between atoms: C_5  and  S_6
REMARK    3  A    between atoms: S_6  and  C_7
REMARK    4  A    between atoms: C_7  and  C_8
REMARK    5  A    between atoms: N_10  and  C_11
REMARK    6  A    between atoms: C_11  and  C_12
REMARK    7  A    between atoms: C_18  and  O_19
REMARK                            x       y       z     vdW  Elec       q    Type
REMARK                         _______ _______ _______ _____ _____    ______ ____
ROOT
ATOM      1  C   UNL     1       2.876   2.977  20.576  0.00  0.00    +0.000 C 
ENDROOT
BRANCH   1   2
ATOM      2  C   UNL     1       1.976   4.199  20.547  0.00  0.00    +0.000 C 
ATOM      3  O   UNL     1       0.772   4.108  20.311  0.00  0.00    +0.000 OA
ATOM      4  N   UNL     1       2.596   5.415  20.737  0.00  0.00    +0.000 N 
ATOM      5  H   UNL     1       3.546   5.459  21.088  0.00  0.00    +0.000 HD
BRANCH   4   6
ATOM      6  C   UNL     1       1.801   6.619  20.776  0.00  0.00    +0.000 C 
BRANCH   6   7
ATOM      7  C   UNL     1       2.015   7.483  19.586  0.00  0.00    +0.000 A 
ATOM      8  C   UNL     1       2.719   7.271  18.415  0.00  0.00    +0.000 A 
ATOM      9  C   UNL     1       2.563   8.438  17.632  0.00  0.00    +0.000 A 
ATOM     10  C   UNL     1       1.775   9.289  18.369  0.00  0.00    +0.000 A 
ATOM     11  O   UNL     1       1.432   8.721  19.558  0.00  0.00    +0.000 OA
ENDBRANCH   6   7
ENDBRANCH   4   6
ENDBRANCH   1   2
BRANCH   1  12
ATOM     12  S   UNL     1       3.269   2.435  18.885  0.00  0.00    +0.000 S 
BRANCH  12  17
ATOM     13  C   UNL     1       7.112   6.715  17.340  0.00  0.00    +0.000 C 
ATOM     14  C   UNL     1       6.156   5.636  17.721  0.00  0.00    +0.000 A 
ATOM     15  N   UNL     1       5.239   5.232  16.824  0.00  0.00    +0.000 NA
ATOM     16  N   UNL     1       4.360   4.247  17.182  0.00  0.00    +0.000 NA
ATOM     17  C   UNL     1       4.427   3.701  18.416  0.00  0.00    +0.000 A 
ATOM     18  N   UNL     1       5.323   4.068  19.350  0.00  0.00    +0.000 NA
ATOM     19  C   UNL     1       6.164   5.034  18.961  0.00  0.00    +0.000 A 
BRANCH  19  20
ATOM     20  O   UNL     1       7.060   5.392  19.921  0.00  0.00    +0.000 OA
ATOM     21  H   UNL     1       7.027   6.364  19.848  0.00  0.00    +0.000 HD
ENDBRANCH  19  20
ENDBRANCH  12  17
ENDBRANCH   1  12
TORSDOF 6
ENDMDL
MODEL 3
REMARK VINA RESULT:      -6.9      1.669      1.735
REMARK  Name = 
REMARK  7 active torsions:
REMARK  status: ('A' for Active; 'I' for Inactive)
REMARK    1  A    between atoms: C_1  and  C_2
REMARK    2  A    between atoms: C_5  and  S_6
REMARK    3  A    between atoms: S_6  and  C_7
REMARK    4  A    between atoms: C_7  and  C_8
REMARK    5  A    between atoms: N_10  and  C_11
REMARK    6  A    between atoms: C_11  and  C_12
REMARK    7  A    between atoms: C_18  and  O_19
REMARK                            x       y       z     vdW  Elec       q    Type
REMARK                         _______ _______ _______ _____ _____    ______ ____
ROOT
ATOM      1  C   UNL     1       4.940   6.996  17.448  0.00  0.00    +0.000 C 
ENDROOT
BRANCH   1   2
ATOM      2  C   UNL     1       3.553   6.529  17.855  0.00  0.00    +0.000 C 
ATOM      3  O   UNL     1       2.705   7.316  18.271  0.00  0.00    +0.000 OA
ATOM      4  N   UNL     1       3.326   5.172  17.791  0.00  0.00    +0.000 N 
ATOM      5  H   UNL     1       3.971   4.565  17.297  0.00  0.00    +0.000 HD
BRANCH   4   6
ATOM      6  C   UNL     1       2.017   4.656  18.111  0.00  0.00    +0.000 C 
BRANCH   6   7
ATOM      7  C   UNL     1       1.955   4.060  19.471  0.00  0.00    +0.000 A 
ATOM      8  C   UNL     1       2.339   4.553  20.704  0.00  0.00    +0.000 A 
ATOM      9  C   UNL     1       2.030   3.552  21.654  0.00  0.00    +0.000 A 
ATOM     10  C   UNL     1       1.478   2.512  20.946  0.00  0.00    +0.000 A 
ATOM     11  O   UNL     1       1.424   2.808  19.618  0.00  0.00    +0.000 OA
ENDBRANCH   6   7
ENDBRANCH   4   6
ENDBRANCH   1   2
BRANCH   1  12
ATOM     12  S   UNL     1       6.163   5.680  17.731  0.00  0.00    +0.000 S 
BRANCH  12  17
ATOM     13  C   UNL     1       6.648   3.587  12.176  0.00  0.00    +0.000 C 
ATOM     14  C   UNL     1       6.532   4.102  13.571  0.00  0.00    +0.000 A 
ATOM     15  N   UNL     1       5.592   3.583  14.380  0.00  0.00    +0.000 NA
ATOM     16  N   UNL     1       5.485   4.064  15.656  0.00  0.00    +0.000 NA
ATOM     17  C   UNL     1       6.318   5.041  16.078  0.00  0.00    +0.000 A 
ATOM     18  N   UNL     1       7.274   5.595  15.311  0.00  0.00    +0.000 NA
ATOM     19  C   UNL     1       7.345   5.097  14.070  0.00  0.00    +0.000 A 
BRANCH  19  20
ATOM     20  O   UNL     1       8.317   5.672  13.310  0.00  0.00    +0.000 OA
ATOM     21  H   UNL     1       8.751   6.243  13.969  0.00  0.00    +0.000 HD
ENDBRANCH  19  20
ENDBRANCH  12  17
ENDBRANCH   1  12
TORSDOF 6
ENDMDL
MODEL 4
REMARK VINA RESULT:      -6.9      1.039      1.217
REMARK  Name = 
REMARK  7 active torsions:
REMARK  status: ('A' for Active; 'I' for Inactive)
REMARK    1  A    between atoms: C_1  and  C_2
REMARK    2  A    between atoms: C_5  and  S_6
REMARK    3  A    between atoms: S_6  and  C_7
REMARK    4  A    between atoms: C_7  and  C_8
REMARK    5  A    between atoms: N_10  and  C_11
REMARK    6  A    between atoms: C_11  and  C_12
REMARK    7  A    between atoms: C_18  and  O_19
REMARK                            x       y       z     vdW  Elec       q    Type
REMARK                         _______ _______ _______ _____ _____    ______ ____
ROOT
ATOM      1  C   UNL     1       5.523   6.061  18.071  0.00  0.00    +0.000 C 
ENDROOT
BRANCH   1   2
ATOM      2  C   UNL     1       4.468   4.968  18.061  0.00  0.00    +0.000 C 
ATOM      3  O   UNL     1       3.370   5.137  17.535  0.00  0.00    +0.000 OA
ATOM      4  N   UNL     1       4.791   3.807  18.728  0.00  0.00    +0.000 N 
ATOM      5  H   UNL     1       5.748   3.624  19.011  0.00  0.00    +0.000 HD
BRANCH   4   6
ATOM      6  C   UNL     1       3.863   2.702  18.719  0.00  0.00    +0.000 C 
BRANCH   6   7
ATOM      7  C   UNL     1       2.851   2.798  19.803  0.00  0.00    +0.000 A 
ATOM      8  C   UNL     1       2.946   2.590  21.166  0.00  0.00    +0.000 A 
ATOM      9  C   UNL     1       1.663   2.840  21.705  0.00  0.00    +0.000 A 
ATOM     10  C   UNL     1       0.864   3.185  20.642  0.00  0.00    +0.000 A 
ATOM     11  O   UNL     1       1.573   3.166  19.480  0.00  0.00    +0.000 OA
ENDBRANCH   6   7
ENDBRANCH   4   6
ENDBRANCH   1   2
BRANCH   1  12
ATOM     12  S   UNL     1       7.168   5.361  17.739  0.00  0.00    +0.000 S 
BRANCH  12  17
ATOM     13  C   UNL     1       6.355   3.565  12.119  0.00  0.00    +0.000 C 
ATOM     14  C   UNL     1       6.566   4.006  13.527  0.00  0.00    +0.000 A 
ATOM     15  N   UNL     1       5.897   3.380  14.512  0.00  0.00    +0.000 NA
ATOM     16  N   UNL     1       6.089   3.794  15.802  0.00  0.00    +0.000 NA
ATOM     17  C   UNL     1       6.938   4.812  16.063  0.00  0.00    +0.000 A 
ATOM     18  N   UNL     1       7.629   5.472  15.117  0.00  0.00    +0.000 NA
ATOM     19  C   UNL     1       7.414   5.038  13.869  0.00  0.00    +0.000 A 
BRANCH  19  20
ATOM     20  O   UNL     1       8.121   5.720  12.927  0.00  0.00    +0.000 OA
ATOM     21  H   UNL     1       8.105   5.083  12.189  0.00  0.00    +0.000 HD
ENDBRANCH  19  20
ENDBRANCH  12  17
ENDBRANCH   1  12
TORSDOF 6
ENDMDL
MODEL 5
REMARK VINA RESULT:      -6.9      1.804      2.099
REMARK  Name = 
REMARK  7 active torsions:
REMARK  status: ('A' for Active; 'I' for Inactive)
REMARK    1  A    between atoms: C_1  and  C_2
REMARK    2  A    between atoms: C_5  and  S_6
REMARK    3  A    between atoms: S_6  and  C_7
REMARK    4  A    between atoms: C_7  and  C_8
REMARK    5  A    between atoms: N_10  and  C_11
REMARK    6  A    between atoms: C_11  and  C_12
REMARK    7  A    between atoms: C_18  and  O_19
REMARK                            x       y       z     vdW  Elec       q    Type
REMARK                         _______ _______ _______ _____ _____    ______ ____
ROOT
ATOM      1  C   UNL     1       4.704   6.901  17.477  0.00  0.00    +0.000 C 
ENDROOT
BRANCH   1   2
ATOM      2  C   UNL     1       3.360   6.275  17.808  0.00  0.00    +0.000 C 
ATOM      3  O   UNL     1       2.421   6.949  18.229  0.00  0.00    +0.000 OA
ATOM      4  N   UNL     1       3.277   4.907  17.669  0.00  0.00    +0.000 N 
ATOM      5  H   UNL     1       3.998   4.395  17.172  0.00  0.00    +0.000 HD
BRANCH   4   6
ATOM      6  C   UNL     1       2.019   4.244  17.914  0.00  0.00    +0.000 C 
BRANCH   6   7
ATOM      7  C   UNL     1       1.923   3.692  19.290  0.00  0.00    +0.000 A 
ATOM      8  C   UNL     1       0.846   3.551  20.146  0.00  0.00    +0.000 A 
ATOM      9  C   UNL     1       1.342   2.947  21.324  0.00  0.00    +0.000 A 
ATOM     10  C   UNL     1       2.687   2.756  21.117  0.00  0.00    +0.000 A 
ATOM     11  O   UNL     1       3.053   3.202  19.884  0.00  0.00    +0.000 OA
ENDBRANCH   6   7
ENDBRANCH   4   6
ENDBRANCH   1   2
BRANCH   1  12
ATOM     12  S   UNL     1       6.042   5.690  17.699  0.00  0.00    +0.000 S 
BRANCH  12  17
ATOM     13  C   UNL     1       7.358   4.465  12.021  0.00  0.00    +0.000 C 
ATOM     14  C   UNL     1       7.025   4.783  13.439  0.00  0.00    +0.000 A 
ATOM     15  N   UNL     1       7.898   5.500  14.168  0.00  0.00    +0.000 NA
ATOM     16  N   UNL     1       7.592   5.782  15.471  0.00  0.00    +0.000 NA
ATOM     17  C   UNL     1       6.428   5.341  15.998  0.00  0.00    +0.000 A 
ATOM     18  N   UNL     1       5.521   4.620  15.315  0.00  0.00    +0.000 NA
ATOM     19  C   UNL     1       5.859   4.365  14.045  0.00  0.00    +0.000 A 
BRANCH  19  20
ATOM     20  O   UNL     1       4.930   3.633  13.372  0.00  0.00    +0.000 OA
ATOM     21  H   UNL     1       4.683   4.256  12.664  0.00  0.00    +0.000 HD
ENDBRANCH  19  20
ENDBRANCH  12  17
ENDBRANCH   1  12
TORSDOF 6
ENDMDL
MODEL 6
REMARK VINA RESULT:      -6.9      3.138      4.815
REMARK  Name = 
REMARK  7 active torsions:
REMARK  status: ('A' for Active; 'I' for Inactive)
REMARK    1  A    between atoms: C_1  and  C_2
REMARK    2  A    between atoms: C_5  and  S_6
REMARK    3  A    between atoms: S_6  and  C_7
REMARK    4  A    between atoms: C_7  and  C_8
REMARK    5  A    between atoms: N_10  and  C_11
REMARK    6  A    between atoms: C_11  and  C_12
REMARK    7  A    between atoms: C_18  and  O_19
REMARK                            x       y       z     vdW  Elec       q    Type
REMARK                         _______ _______ _______ _____ _____    ______ ____
ROOT
ATOM      1  C   UNL     1       2.770   2.756  20.625  0.00  0.00    +0.000 C 
ENDROOT
BRANCH   1   2
ATOM      2  C   UNL     1       1.933   4.017  20.501  0.00  0.00    +0.000 C 
ATOM      3  O   UNL     1       0.757   3.978  20.141  0.00  0.00    +0.000 OA
ATOM      4  N   UNL     1       2.584   5.205  20.753  0.00  0.00    +0.000 N 
ATOM      5  H   UNL     1       3.494   5.208  21.201  0.00  0.00    +0.000 HD
BRANCH   4   6
ATOM      6  C   UNL     1       1.845   6.443  20.708  0.00  0.00    +0.000 C 
BRANCH   6   7
ATOM      7  C   UNL     1       2.169   7.258  19.509  0.00  0.00    +0.000 A 
ATOM      8  C   UNL     1       1.693   8.483  19.078  0.00  0.00    +0.000 A 
ATOM      9  C   UNL     1       2.372   8.780  17.874  0.00  0.00    +0.000 A 
ATOM     10  C   UNL     1       3.218   7.723  17.642  0.00  0.00    +0.000 A 
ATOM     11  O   UNL     1       3.108   6.792  18.629  0.00  0.00    +0.000 OA
ENDBRANCH   6   7
ENDBRANCH   4   6
ENDBRANCH   1   2
BRANCH   1  12
ATOM     12  S   UNL     1       3.219   2.126  18.980  0.00  0.00    +0.000 S 
BRANCH  12  17
ATOM     13  C   UNL     1       7.249   6.188  17.328  0.00  0.00    +0.000 C 
ATOM     14  C   UNL     1       6.234   5.179  17.746  0.00  0.00    +0.000 A 
ATOM     15  N   UNL     1       6.252   4.724  19.012  0.00  0.00    +0.000 NA
ATOM     16  N   UNL     1       5.323   3.793  19.388  0.00  0.00    +0.000 NA
ATOM     17  C   UNL     1       4.411   3.352  18.493  0.00  0.00    +0.000 A 
ATOM     18  N   UNL     1       4.350   3.773  17.217  0.00  0.00    +0.000 NA
ATOM     19  C   UNL     1       5.276   4.683  16.888  0.00  0.00    +0.000 A 
BRANCH  19  20
ATOM     20  O   UNL     1       5.198   5.093  15.593  0.00  0.00    +0.000 OA
ATOM     21  H   UNL     1       6.135   5.047  15.330  0.00  0.00    +0.000 HD
ENDBRANCH  19  20
ENDBRANCH  12  17
ENDBRANCH   1  12
TORSDOF 6
ENDMDL
MODEL 7
REMARK VINA RESULT:      -6.8      1.687      2.133
REMARK  Name = 
REMARK  7 active torsions:
REMARK  status: ('A' for Active; 'I' for Inactive)
REMARK    1  A    between atoms: C_1  and  C_2
REMARK    2  A    between atoms: C_5  and  S_6
REMARK    3  A    between atoms: S_6  and  C_7
REMARK    4  A    between atoms: C_7  and  C_8
REMARK    5  A    between atoms: N_10  and  C_11
REMARK    6  A    between atoms: C_11  and  C_12
REMARK    7  A    between atoms: C_18  and  O_19
REMARK                            x       y       z     vdW  Elec       q    Type
REMARK                         _______ _______ _______ _____ _____    ______ ____
ROOT
ATOM      1  C   UNL     1       6.459   6.819  17.791  0.00  0.00    +0.000 C 
ENDROOT
BRANCH   1   2
ATOM      2  C   UNL     1       4.998   6.641  17.415  0.00  0.00    +0.000 C 
ATOM      3  O   UNL     1       4.573   6.964  16.307  0.00  0.00    +0.000 OA
ATOM      4  N   UNL     1       4.171   6.158  18.406  0.00  0.00    +0.000 N 
ATOM      5  H   UNL     1       4.561   5.749  19.248  0.00  0.00    +0.000 HD
BRANCH   4   6
ATOM      6  C   UNL     1       2.780   5.913  18.112  0.00  0.00    +0.000 C 
BRANCH   6   7
ATOM      7  C   UNL     1       2.431   4.470  18.167  0.00  0.00    +0.000 A 
ATOM      8  C   UNL     1       2.715   3.425  17.306  0.00  0.00    +0.000 A 
ATOM      9  C   UNL     1       2.140   2.265  17.874  0.00  0.00    +0.000 A 
ATOM     10  C   UNL     1       1.541   2.669  19.043  0.00  0.00    +0.000 A 
ATOM     11  O   UNL     1       1.712   4.006  19.235  0.00  0.00    +0.000 OA
ENDBRANCH   6   7
ENDBRANCH   4   6
ENDBRANCH   1   2
BRANCH   1  12
ATOM     12  S   UNL     1       7.322   5.219  17.767  0.00  0.00    +0.000 S 
BRANCH  12  17
ATOM     13  C   UNL     1       6.083   3.524  12.193  0.00  0.00    +0.000 C 
ATOM     14  C   UNL     1       6.400   3.939  13.590  0.00  0.00    +0.000 A 
ATOM     15  N   UNL     1       5.769   3.330  14.609  0.00  0.00    +0.000 NA
ATOM     16  N   UNL     1       6.058   3.720  15.888  0.00  0.00    +0.000 NA
ATOM     17  C   UNL     1       6.964   4.699  16.104  0.00  0.00    +0.000 A 
ATOM     18  N   UNL     1       7.622   5.340  15.122  0.00  0.00    +0.000 NA
ATOM     19  C   UNL     1       7.311   4.930  13.886  0.00  0.00    +0.000 A 
BRANCH  19  20
ATOM     20  O   UNL     1       7.986   5.593  12.908  0.00  0.00    +0.000 OA
ATOM     21  H   UNL     1       8.744   5.942  13.413  0.00  0.00    +0.000 HD
ENDBRANCH  19  20
ENDBRANCH  12  17
ENDBRANCH   1  12
TORSDOF 6
ENDMDL
MODEL 8
REMARK VINA RESULT:      -6.8      1.817      2.209
REMARK  Name = 
REMARK  7 active torsions:
REMARK  status: ('A' for Active; 'I' for Inactive)
REMARK    1  A    between atoms: C_1  and  C_2
REMARK    2  A    between atoms: C_5  and  S_6
REMARK    3  A    between atoms: S_6  and  C_7
REMARK    4  A    between atoms: C_7  and  C_8
REMARK    5  A    between atoms: N_10  and  C_11
REMARK    6  A    between atoms: C_11  and  C_12
REMARK    7  A    between atoms: C_18  and  O_19
REMARK                            x       y       z     vdW  Elec       q    Type
REMARK                         _______ _______ _______ _____ _____    ______ ____
ROOT
ATOM      1  C   UNL     1       5.383   5.980  18.159  0.00  0.00    +0.000 C 
ENDROOT
BRANCH   1   2
ATOM      2  C   UNL     1       3.903   5.794  18.446  0.00  0.00    +0.000 C 
ATOM      3  O   UNL     1       3.143   5.295  17.617  0.00  0.00    +0.000 OA
ATOM      4  N   UNL     1       3.455   6.274  19.657  0.00  0.00    +0.000 N 
ATOM      5  H   UNL     1       4.113   6.530  20.385  0.00  0.00    +0.000 HD
BRANCH   4   6
ATOM      6  C   UNL     1       2.073   6.089  20.026  0.00  0.00    +0.000 C 
BRANCH   6   7
ATOM      7  C   UNL     1       1.800   4.728  20.556  0.00  0.00    +0.000 A 
ATOM      8  C   UNL     1       0.916   3.747  20.147  0.00  0.00    +0.000 A 
ATOM      9  C   UNL     1       1.101   2.647  21.016  0.00  0.00    +0.000 A 
ATOM     10  C   UNL     1       2.083   3.022  21.901  0.00  0.00    +0.000 A 
ATOM     11  O   UNL     1       2.519   4.283  21.631  0.00  0.00    +0.000 OA
ENDBRANCH   6   7
ENDBRANCH   4   6
ENDBRANCH   1   2
BRANCH   1  12
ATOM     12  S   UNL     1       6.178   4.374  17.851  0.00  0.00    +0.000 S 
BRANCH  12  17
ATOM     13  C   UNL     1       7.631   4.953  12.105  0.00  0.00    +0.000 C 
ATOM     14  C   UNL     1       7.261   4.817  13.543  0.00  0.00    +0.000 A 
ATOM     15  N   UNL     1       7.863   5.610  14.447  0.00  0.00    +0.000 NA
ATOM     16  N   UNL     1       7.525   5.475  15.766  0.00  0.00    +0.000 NA
ATOM     17  C   UNL     1       6.600   4.561  16.134  0.00  0.00    +0.000 A 
ATOM     18  N   UNL     1       5.969   3.744  15.271  0.00  0.00    +0.000 NA
ATOM     19  C   UNL     1       6.329   3.906  13.991  0.00  0.00    +0.000 A 
BRANCH  19  20
ATOM     20  O   UNL     1       5.681   3.070  13.136  0.00  0.00    +0.000 OA
ATOM     21  H   UNL     1       4.812   3.000  13.571  0.00  0.00    +0.000 HD
ENDBRANCH  19  20
ENDBRANCH  12  17
ENDBRANCH   1  12
TORSDOF 6
ENDMDL
MODEL 9
REMARK VINA RESULT:      -6.8      4.511      7.938
REMARK  Name = 
REMARK  7 active torsions:
REMARK  status: ('A' for Active; 'I' for Inactive)
REMARK    1  A    between atoms: C_1  and  C_2
REMARK    2  A    between atoms: C_5  and  S_6
REMARK    3  A    between atoms: S_6  and  C_7
REMARK    4  A    between atoms: C_7  and  C_8
REMARK    5  A    between atoms: N_10  and  C_11
REMARK    6  A    between atoms: C_11  and  C_12
REMARK    7  A    between atoms: C_18  and  O_19
REMARK                            x       y       z     vdW  Elec       q    Type
REMARK                         _______ _______ _______ _____ _____    ______ ____
ROOT
ATOM      1  C   UNL     1       7.658   5.896  18.740  0.00  0.00    +0.000 C 
ENDROOT
BRANCH   1   2
ATOM      2  C   UNL     1       7.729   7.232  18.021  0.00  0.00    +0.000 C 
ATOM      3  O   UNL     1       7.232   7.393  16.908  0.00  0.00    +0.000 OA
ATOM      4  N   UNL     1       8.434   8.228  18.660  0.00  0.00    +0.000 N 
ATOM      5  H   UNL     1       8.694   8.131  19.636  0.00  0.00    +0.000 HD
BRANCH   4   6
ATOM      6  C   UNL     1       8.503   9.541  18.067  0.00  0.00    +0.000 C 
BRANCH   6   7
ATOM      7  C   UNL     1       9.315  10.490  18.871  0.00  0.00    +0.000 A 
ATOM      8  C   UNL     1      10.232  11.456  18.498  0.00  0.00    +0.000 A 
ATOM      9  C   UNL     1      10.683  12.067  19.690  0.00  0.00    +0.000 A 
ATOM     10  C   UNL     1      10.018  11.441  20.717  0.00  0.00    +0.000 A 
ATOM     11  O   UNL     1       9.181  10.482  20.233  0.00  0.00    +0.000 OA
ENDBRANCH   6   7
ENDBRANCH   4   6
ENDBRANCH   1   2
BRANCH   1  12
ATOM     12  S   UNL     1       6.752   4.681  17.736  0.00  0.00    +0.000 S 
BRANCH  12  17
ATOM     13  C   UNL     1       1.844   4.120  21.062  0.00  0.00    +0.000 C 
ATOM     14  C   UNL     1       3.067   4.256  20.220  0.00  0.00    +0.000 A 
ATOM     15  N   UNL     1       3.792   3.158  19.944  0.00  0.00    +0.000 NA
ATOM     16  N   UNL     1       4.918   3.291  19.178  0.00  0.00    +0.000 NA
ATOM     17  C   UNL     1       5.277   4.508  18.714  0.00  0.00    +0.000 A 
ATOM     18  N   UNL     1       4.588   5.637  18.961  0.00  0.00    +0.000 NA
ATOM     19  C   UNL     1       3.495   5.465  19.715  0.00  0.00    +0.000 A 
BRANCH  19  20
ATOM     20  O   UNL     1       2.814   6.619  19.954  0.00  0.00    +0.000 OA
ATOM     21  H   UNL     1       2.372   6.399  20.795  0.00  0.00    +0.000 HD
ENDBRANCH  19  20
ENDBRANCH  12  17
ENDBRANCH   1  12
TORSDOF 6
ENDMDL
