MODEL 1
REMARK VINA RESULT:      -7.7      0.000      0.000
REMARK  Name = 
REMARK  7 active torsions:
REMARK  status: ('A' for Active; 'I' for Inactive)
REMARK    1  A    between atoms: C_2  and  C_3
REMARK    2  A    between atoms: C_7  and  C_8
REMARK    3  A    between atoms: C_8  and  O_10
REMARK    4  A    between atoms: O_10  and  C_11
REMARK    5  A    between atoms: C_11  and  C_12
REMARK    6  A    between atoms: C_16  and  S_17
REMARK    7  A    between atoms: S_17  and  N_20
REMARK                            x       y       z     vdW  Elec       q    Type
REMARK                         _______ _______ _______ _____ _____    ______ ____
ROOT
ATOM      1  C   UNL     1       1.550   8.813  18.965  0.00  0.00    +0.000 A 
ATOM      2  C   UNL     1       1.606   8.530  20.337  0.00  0.00    +0.000 A 
ATOM      3  C   UNL     1       0.703   9.131  21.221  0.00  0.00    +0.000 A 
ATOM      4  C   UNL     1      -0.305   9.965  20.732  0.00  0.00    +0.000 A 
ATOM      5  C   UNL     1      -0.361  10.235  19.364  0.00  0.00    +0.000 A 
ATOM      6  C   UNL     1       0.620   9.748  18.503  0.00  0.00    +0.000 A 
ENDROOT
BRANCH   5   7
ATOM      7  S   UNL     1      -1.661  11.232  18.689  0.00  0.00    +0.000 S 
ATOM      8  O   UNL     1      -2.389  11.762  19.828  0.00  0.00    +0.000 OA
ATOM      9  O   UNL     1      -1.085  12.121  17.705  0.00  0.00    +0.000 OA
BRANCH   7  10
ATOM     10  N   UNL     1      -2.687  10.149  17.855  0.00  0.00    +0.000 NA
ATOM     11  C   UNL     1      -2.402   9.855  16.402  0.00  0.00    +0.000 C 
ATOM     12  C   UNL     1      -3.057  10.855  15.408  0.00  0.00    +0.000 C 
ATOM     13  O   UNL     1      -4.377  11.297  15.759  0.00  0.00    +0.000 OA
ATOM     14  C   UNL     1      -4.436  11.717  17.127  0.00  0.00    +0.000 C 
ATOM     15  C   UNL     1      -4.133  10.500  17.997  0.00  0.00    +0.000 C 
ENDBRANCH   7  10
ENDBRANCH   5   7
BRANCH   1  16
ATOM     16  C   UNL     1       2.392   8.062  17.963  0.00  0.00    +0.000 C 
BRANCH  16  17
ATOM     17  O   UNL     1       3.123   7.008  18.633  0.00  0.00    +0.000 OA
BRANCH  17  18
ATOM     18  C   UNL     1       3.570   6.014  17.824  0.00  0.00    +0.000 C 
ATOM     19  O   UNL     1       4.297   6.157  16.852  0.00  0.00    +0.000 OA
BRANCH  18  24
ATOM     20  C   UNL     1       2.180   3.115  19.890  0.00  0.00    +0.000 A 
ATOM     21  C   UNL     1       2.076   2.133  18.900  0.00  0.00    +0.000 A 
ATOM     22  C   UNL     1       2.473   2.410  17.595  0.00  0.00    +0.000 A 
ATOM     23  C   UNL     1       2.968   3.675  17.277  0.00  0.00    +0.000 A 
ATOM     24  C   UNL     1       3.068   4.678  18.256  0.00  0.00    +0.000 A 
ATOM     25  C   UNL     1       2.681   4.387  19.572  0.00  0.00    +0.000 A 
BRANCH  20  27
ATOM     26  N   UNL     1       1.428   2.546  22.310  0.00  0.00    +0.000 NA
ATOM     27  C   UNL     1       1.766   2.813  21.230  0.00  0.00    +0.000 C 
ENDBRANCH  20  27
ENDBRANCH  18  24
ENDBRANCH  17  18
ENDBRANCH  16  17
ENDBRANCH   1  16
TORSDOF 7
ENDMDL
MODEL 2
REMARK VINA RESULT:      -7.6      3.604      8.747
REMARK  Name = 
REMARK  7 active torsions:
REMARK  status: ('A' for Active; 'I' for Inactive)
REMARK    1  A    between atoms: C_2  and  C_3
REMARK    2  A    between atoms: C_7  and  C_8
REMARK    3  A    between atoms: C_8  and  O_10
REMARK    4  A    between atoms: O_10  and  C_11
REMARK    5  A    between atoms: C_11  and  C_12
REMARK    6  A    between atoms: C_16  and  S_17
REMARK    7  A    between atoms: S_17  and  N_20
REMARK                            x       y       z     vdW  Elec       q    Type
REMARK                         _______ _______ _______ _____ _____    ______ ____
ROOT
ATOM      1  C   UNL     1       1.117   8.891  19.952  0.00  0.00    +0.000 A 
ATOM      2  C   UNL     1       1.342   9.503  18.711  0.00  0.00    +0.000 A 
ATOM      3  C   UNL     1       2.182   8.903  17.767  0.00  0.00    +0.000 A 
ATOM      4  C   UNL     1       2.749   7.653  18.028  0.00  0.00    +0.000 A 
ATOM      5  C   UNL     1       2.512   7.044  19.262  0.00  0.00    +0.000 A 
ATOM      6  C   UNL     1       1.790   7.704  20.254  0.00  0.00    +0.000 A 
ENDROOT
BRANCH   5   7
ATOM      7  S   UNL     1       3.153   5.430  19.613  0.00  0.00    +0.000 S 
ATOM      8  O   UNL     1       4.598   5.555  19.559  0.00  0.00    +0.000 OA
ATOM      9  O   UNL     1       2.501   4.934  20.805  0.00  0.00    +0.000 OA
BRANCH   7  10
ATOM     10  N   UNL     1       2.652   4.441  18.312  0.00  0.00    +0.000 NA
ATOM     11  C   UNL     1       1.365   3.664  18.446  0.00  0.00    +0.000 C 
ATOM     12  C   UNL     1       1.527   2.273  19.121  0.00  0.00    +0.000 C 
ATOM     13  O   UNL     1       2.715   1.550  18.764  0.00  0.00    +0.000 OA
ATOM     14  C   UNL     1       3.877   2.382  18.865  0.00  0.00    +0.000 C 
ATOM     15  C   UNL     1       3.726   3.511  17.849  0.00  0.00    +0.000 C 
ENDBRANCH   7  10
ENDBRANCH   5   7
BRANCH   1  16
ATOM     16  C   UNL     1       0.092   9.418  20.926  0.00  0.00    +0.000 C 
BRANCH  16  17
ATOM     17  O   UNL     1       0.714  10.374  21.817  0.00  0.00    +0.000 OA
BRANCH  17  18
ATOM     18  C   UNL     1       0.507  11.678  21.498  0.00  0.00    +0.000 C 
ATOM     19  O   UNL     1       1.370  12.477  21.167  0.00  0.00    +0.000 OA
BRANCH  18  24
ATOM     20  C   UNL     1      -3.028  12.339  22.791  0.00  0.00    +0.000 A 
ATOM     21  C   UNL     1      -3.620  12.862  21.638  0.00  0.00    +0.000 A 
ATOM     22  C   UNL     1      -2.883  12.973  20.461  0.00  0.00    +0.000 A 
ATOM     23  C   UNL     1      -1.548  12.566  20.441  0.00  0.00    +0.000 A 
ATOM     24  C   UNL     1      -0.933  12.051  21.595  0.00  0.00    +0.000 A 
ATOM     25  C   UNL     1      -1.686  11.927  22.771  0.00  0.00    +0.000 A 
BRANCH  20  27
ATOM     26  N   UNL     1      -4.447  12.148  24.958  0.00  0.00    +0.000 NA
ATOM     27  C   UNL     1      -3.802  12.233  23.994  0.00  0.00    +0.000 C 
ENDBRANCH  20  27
ENDBRANCH  18  24
ENDBRANCH  17  18
ENDBRANCH  16  17
ENDBRANCH   1  16
TORSDOF 7
ENDMDL
MODEL 3
REMARK VINA RESULT:      -7.6      3.425      8.847
REMARK  Name = 
REMARK  7 active torsions:
REMARK  status: ('A' for Active; 'I' for Inactive)
REMARK    1  A    between atoms: C_2  and  C_3
REMARK    2  A    between atoms: C_7  and  C_8
REMARK    3  A    between atoms: C_8  and  O_10
REMARK    4  A    between atoms: O_10  and  C_11
REMARK    5  A    between atoms: C_11  and  C_12
REMARK    6  A    between atoms: C_16  and  S_17
REMARK    7  A    between atoms: S_17  and  N_20
REMARK                            x       y       z     vdW  Elec       q    Type
REMARK                         _______ _______ _______ _____ _____    ______ ____
ROOT
ATOM      1  C   UNL     1       2.036   6.625  19.921  0.00  0.00    +0.000 A 
ATOM      2  C   UNL     1       1.219   5.824  20.731  0.00  0.00    +0.000 A 
ATOM      3  C   UNL     1       1.411   4.439  20.781  0.00  0.00    +0.000 A 
ATOM      4  C   UNL     1       2.464   3.852  20.076  0.00  0.00    +0.000 A 
ATOM      5  C   UNL     1       3.282   4.657  19.280  0.00  0.00    +0.000 A 
ATOM      6  C   UNL     1       3.005   6.013  19.121  0.00  0.00    +0.000 A 
ENDROOT
BRANCH   5   7
ATOM      7  S   UNL     1       4.670   3.970  18.421  0.00  0.00    +0.000 S 
ATOM      8  O   UNL     1       5.614   3.567  19.448  0.00  0.00    +0.000 OA
ATOM      9  O   UNL     1       4.177   3.011  17.457  0.00  0.00    +0.000 OA
BRANCH   7  10
ATOM     10  N   UNL     1       5.356   5.265  17.542  0.00  0.00    +0.000 NA
ATOM     11  C   UNL     1       5.328   5.213  16.033  0.00  0.00    +0.000 C 
ATOM     12  C   UNL     1       6.533   4.466  15.398  0.00  0.00    +0.000 C 
ATOM     13  O   UNL     1       7.800   4.681  16.041  0.00  0.00    +0.000 OA
ATOM     14  C   UNL     1       7.696   4.513  17.459  0.00  0.00    +0.000 C 
ATOM     15  C   UNL     1       6.747   5.588  17.983  0.00  0.00    +0.000 C 
ENDBRANCH   7  10
ENDBRANCH   5   7
BRANCH   1  16
ATOM     16  C   UNL     1       1.971   8.131  19.968  0.00  0.00    +0.000 C 
BRANCH  16  17
ATOM     17  O   UNL     1       0.752   8.546  20.630  0.00  0.00    +0.000 OA
BRANCH  17  18
ATOM     18  C   UNL     1       0.687   9.866  20.941  0.00  0.00    +0.000 C 
ATOM     19  O   UNL     1       1.169  10.390  21.934  0.00  0.00    +0.000 OA
BRANCH  18  24
ATOM     20  C   UNL     1      -1.481  10.850  17.951  0.00  0.00    +0.000 A 
ATOM     21  C   UNL     1      -1.470  12.242  18.085  0.00  0.00    +0.000 A 
ATOM     22  C   UNL     1      -0.752  12.841  19.117  0.00  0.00    +0.000 A 
ATOM     23  C   UNL     1      -0.048  12.045  20.021  0.00  0.00    +0.000 A 
ATOM     24  C   UNL     1      -0.058  10.643  19.910  0.00  0.00    +0.000 A 
ATOM     25  C   UNL     1      -0.770  10.048  18.859  0.00  0.00    +0.000 A 
BRANCH  20  27
ATOM     26  N   UNL     1      -2.834   9.745  16.030  0.00  0.00    +0.000 NA
ATOM     27  C   UNL     1      -2.227  10.250  16.883  0.00  0.00    +0.000 C 
ENDBRANCH  20  27
ENDBRANCH  18  24
ENDBRANCH  17  18
ENDBRANCH  16  17
ENDBRANCH   1  16
TORSDOF 7
ENDMDL
MODEL 4
REMARK VINA RESULT:      -7.5      3.262      8.824
REMARK  Name = 
REMARK  7 active torsions:
REMARK  status: ('A' for Active; 'I' for Inactive)
REMARK    1  A    between atoms: C_2  and  C_3
REMARK    2  A    between atoms: C_7  and  C_8
REMARK    3  A    between atoms: C_8  and  O_10
REMARK    4  A    between atoms: O_10  and  C_11
REMARK    5  A    between atoms: C_11  and  C_12
REMARK    6  A    between atoms: C_16  and  S_17
REMARK    7  A    between atoms: S_17  and  N_20
REMARK                            x       y       z     vdW  Elec       q    Type
REMARK                         _______ _______ _______ _____ _____    ______ ____
ROOT
ATOM      1  C   UNL     1       2.147   7.857  18.860  0.00  0.00    +0.000 A 
ATOM      2  C   UNL     1       1.641   7.492  20.115  0.00  0.00    +0.000 A 
ATOM      3  C   UNL     1       1.888   6.216  20.636  0.00  0.00    +0.000 A 
ATOM      4  C   UNL     1       2.700   5.321  19.935  0.00  0.00    +0.000 A 
ATOM      5  C   UNL     1       3.209   5.694  18.690  0.00  0.00    +0.000 A 
ATOM      6  C   UNL     1       2.850   6.909  18.111  0.00  0.00    +0.000 A 
ENDROOT
BRANCH   5   7
ATOM      7  S   UNL     1       4.297   4.620  17.796  0.00  0.00    +0.000 S 
ATOM      8  O   UNL     1       5.110   3.952  18.797  0.00  0.00    +0.000 OA
ATOM      9  O   UNL     1       3.506   3.853  16.859  0.00  0.00    +0.000 OA
BRANCH   7  10
ATOM     10  N   UNL     1       5.312   5.647  16.881  0.00  0.00    +0.000 NA
ATOM     11  C   UNL     1       5.531   5.336  15.421  0.00  0.00    +0.000 C 
ATOM     12  C   UNL     1       6.698   4.346  15.148  0.00  0.00    +0.000 C 
ATOM     13  O   UNL     1       7.856   4.514  15.982  0.00  0.00    +0.000 OA
ATOM     14  C   UNL     1       7.489   4.610  17.363  0.00  0.00    +0.000 C 
ATOM     15  C   UNL     1       6.641   5.868  17.528  0.00  0.00    +0.000 C 
ENDBRANCH   7  10
ENDBRANCH   5   7
BRANCH   1  16
ATOM     16  C   UNL     1       2.046   9.271  18.342  0.00  0.00    +0.000 C 
BRANCH  16  17
ATOM     17  O   UNL     1       0.692   9.532  17.901  0.00  0.00    +0.000 OA
BRANCH  17  18
ATOM     18  C   UNL     1       0.071  10.562  18.530  0.00  0.00    +0.000 C 
ATOM     19  O   UNL     1       0.600  11.355  19.295  0.00  0.00    +0.000 OA
BRANCH  18  24
ATOM     20  C   UNL     1      -3.641  11.469  18.458  0.00  0.00    +0.000 A 
ATOM     21  C   UNL     1      -4.059  10.715  17.357  0.00  0.00    +0.000 A 
ATOM     22  C   UNL     1      -3.150   9.914  16.671  0.00  0.00    +0.000 A 
ATOM     23  C   UNL     1      -1.817   9.872  17.084  0.00  0.00    +0.000 A 
ATOM     24  C   UNL     1      -1.377  10.633  18.180  0.00  0.00    +0.000 A 
ATOM     25  C   UNL     1      -2.302  11.425  18.876  0.00  0.00    +0.000 A 
BRANCH  20  27
ATOM     26  N   UNL     1      -5.373  12.936  19.719  0.00  0.00    +0.000 NA
ATOM     27  C   UNL     1      -4.591  12.289  19.152  0.00  0.00    +0.000 C 
ENDBRANCH  20  27
ENDBRANCH  18  24
ENDBRANCH  17  18
ENDBRANCH  16  17
ENDBRANCH   1  16
TORSDOF 7
ENDMDL
MODEL 5
REMARK VINA RESULT:      -7.4      2.069      2.585
REMARK  Name = 
REMARK  7 active torsions:
REMARK  status: ('A' for Active; 'I' for Inactive)
REMARK    1  A    between atoms: C_2  and  C_3
REMARK    2  A    between atoms: C_7  and  C_8
REMARK    3  A    between atoms: C_8  and  O_10
REMARK    4  A    between atoms: O_10  and  C_11
REMARK    5  A    between atoms: C_11  and  C_12
REMARK    6  A    between atoms: C_16  and  S_17
REMARK    7  A    between atoms: S_17  and  N_20
REMARK                            x       y       z     vdW  Elec       q    Type
REMARK                         _______ _______ _______ _____ _____    ______ ____
ROOT
ATOM      1  C   UNL     1       1.171   9.053  19.870  0.00  0.00    +0.000 A 
ATOM      2  C   UNL     1       1.151   9.106  21.270  0.00  0.00    +0.000 A 
ATOM      3  C   UNL     1       0.249   9.945  21.935  0.00  0.00    +0.000 A 
ATOM      4  C   UNL     1      -0.686  10.684  21.207  0.00  0.00    +0.000 A 
ATOM      5  C   UNL     1      -0.668  10.618  19.812  0.00  0.00    +0.000 A 
ATOM      6  C   UNL     1       0.318   9.892  19.148  0.00  0.00    +0.000 A 
ENDROOT
BRANCH   5   7
ATOM      7  S   UNL     1      -1.876  11.483  18.848  0.00  0.00    +0.000 S 
ATOM      8  O   UNL     1      -2.787  12.090  19.802  0.00  0.00    +0.000 OA
ATOM      9  O   UNL     1      -1.181  12.296  17.875  0.00  0.00    +0.000 OA
BRANCH   7  10
ATOM     10  N   UNL     1      -2.729  10.278  17.986  0.00  0.00    +0.000 NA
ATOM     11  C   UNL     1      -2.259   9.910  16.600  0.00  0.00    +0.000 C 
ATOM     12  C   UNL     1      -2.855  10.795  15.469  0.00  0.00    +0.000 C 
ATOM     13  O   UNL     1      -4.233  11.164  15.637  0.00  0.00    +0.000 OA
ATOM     14  C   UNL     1      -4.476  11.668  16.956  0.00  0.00    +0.000 C 
ATOM     15  C   UNL     1      -4.200  10.535  17.940  0.00  0.00    +0.000 C 
ENDBRANCH   7  10
ENDBRANCH   5   7
BRANCH   1  16
ATOM     16  C   UNL     1       2.008   8.043  19.124  0.00  0.00    +0.000 C 
BRANCH  16  17
ATOM     17  O   UNL     1       2.626   7.132  20.064  0.00  0.00    +0.000 OA
BRANCH  17  18
ATOM     18  C   UNL     1       2.240   5.836  19.947  0.00  0.00    +0.000 C 
ATOM     19  O   UNL     1       1.360   5.292  20.598  0.00  0.00    +0.000 OA
BRANCH  18  24
ATOM     20  C   UNL     1       5.082   4.516  17.760  0.00  0.00    +0.000 A 
ATOM     21  C   UNL     1       4.374   3.632  16.940  0.00  0.00    +0.000 A 
ATOM     22  C   UNL     1       2.997   3.491  17.088  0.00  0.00    +0.000 A 
ATOM     23  C   UNL     1       2.327   4.231  18.063  0.00  0.00    +0.000 A 
ATOM     24  C   UNL     1       3.025   5.114  18.905  0.00  0.00    +0.000 A 
ATOM     25  C   UNL     1       4.409   5.263  18.740  0.00  0.00    +0.000 A 
BRANCH  20  27
ATOM     26  N   UNL     1       7.652   4.733  17.458  0.00  0.00    +0.000 NA
ATOM     27  C   UNL     1       6.501   4.648  17.595  0.00  0.00    +0.000 C 
ENDBRANCH  20  27
ENDBRANCH  18  24
ENDBRANCH  17  18
ENDBRANCH  16  17
ENDBRANCH   1  16
TORSDOF 7
ENDMDL
MODEL 6
REMARK VINA RESULT:      -7.4      3.597      8.565
REMARK  Name = 
REMARK  7 active torsions:
REMARK  status: ('A' for Active; 'I' for Inactive)
REMARK    1  A    between atoms: C_2  and  C_3
REMARK    2  A    between atoms: C_7  and  C_8
REMARK    3  A    between atoms: C_8  and  O_10
REMARK    4  A    between atoms: O_10  and  C_11
REMARK    5  A    between atoms: C_11  and  C_12
REMARK    6  A    between atoms: C_16  and  S_17
REMARK    7  A    between atoms: S_17  and  N_20
REMARK                            x       y       z     vdW  Elec       q    Type
REMARK                         _______ _______ _______ _____ _____    ______ ____
ROOT
ATOM      1  C   UNL     1       1.657   5.649  20.477  0.00  0.00    +0.000 A 
ATOM      2  C   UNL     1       1.019   4.403  20.542  0.00  0.00    +0.000 A 
ATOM      3  C   UNL     1       1.629   3.264  20.004  0.00  0.00    +0.000 A 
ATOM      4  C   UNL     1       2.913   3.350  19.459  0.00  0.00    +0.000 A 
ATOM      5  C   UNL     1       3.548   4.592  19.406  0.00  0.00    +0.000 A 
ATOM      6  C   UNL     1       2.884   5.747  19.815  0.00  0.00    +0.000 A 
ENDROOT
BRANCH   5   7
ATOM      7  S   UNL     1       5.201   4.740  18.786  0.00  0.00    +0.000 S 
ATOM      8  O   UNL     1       5.887   5.642  19.693  0.00  0.00    +0.000 OA
ATOM      9  O   UNL     1       5.713   3.410  18.543  0.00  0.00    +0.000 OA
BRANCH   7  10
ATOM     10  N   UNL     1       5.057   5.513  17.269  0.00  0.00    +0.000 NA
ATOM     11  C   UNL     1       5.348   4.718  16.019  0.00  0.00    +0.000 C 
ATOM     12  C   UNL     1       6.845   4.714  15.601  0.00  0.00    +0.000 C 
ATOM     13  O   UNL     1       7.539   5.958  15.784  0.00  0.00    +0.000 OA
ATOM     14  C   UNL     1       7.305   6.494  17.092  0.00  0.00    +0.000 C 
ATOM     15  C   UNL     1       5.814   6.800  17.204  0.00  0.00    +0.000 C 
ENDBRANCH   7  10
ENDBRANCH   5   7
BRANCH   1  16
ATOM     16  C   UNL     1       1.111   6.861  21.189  0.00  0.00    +0.000 C 
BRANCH  16  17
ATOM     17  O   UNL     1       1.695   8.061  20.628  0.00  0.00    +0.000 OA
BRANCH  17  18
ATOM     18  C   UNL     1       1.328   9.218  21.235  0.00  0.00    +0.000 C 
ATOM     19  O   UNL     1       1.526   9.503  22.407  0.00  0.00    +0.000 OA
BRANCH  18  24
ATOM     20  C   UNL     1      -0.845  10.643  18.434  0.00  0.00    +0.000 A 
ATOM     21  C   UNL     1      -0.658  12.012  18.647  0.00  0.00    +0.000 A 
ATOM     22  C   UNL     1       0.178  12.454  19.669  0.00  0.00    +0.000 A 
ATOM     23  C   UNL     1       0.822  11.523  20.485  0.00  0.00    +0.000 A 
ATOM     24  C   UNL     1       0.635  10.143  20.294  0.00  0.00    +0.000 A 
ATOM     25  C   UNL     1      -0.195   9.706  19.252  0.00  0.00    +0.000 A 
BRANCH  20  27
ATOM     26  N   UNL     1      -2.428   9.865  16.527  0.00  0.00    +0.000 NA
ATOM     27  C   UNL     1      -1.710  10.206  17.376  0.00  0.00    +0.000 C 
ENDBRANCH  20  27
ENDBRANCH  18  24
ENDBRANCH  17  18
ENDBRANCH  16  17
ENDBRANCH   1  16
TORSDOF 7
ENDMDL
MODEL 7
REMARK VINA RESULT:      -7.4      3.689      8.973
REMARK  Name = 
REMARK  7 active torsions:
REMARK  status: ('A' for Active; 'I' for Inactive)
REMARK    1  A    between atoms: C_2  and  C_3
REMARK    2  A    between atoms: C_7  and  C_8
REMARK    3  A    between atoms: C_8  and  O_10
REMARK    4  A    between atoms: O_10  and  C_11
REMARK    5  A    between atoms: C_11  and  C_12
REMARK    6  A    between atoms: C_16  and  S_17
REMARK    7  A    between atoms: S_17  and  N_20
REMARK                            x       y       z     vdW  Elec       q    Type
REMARK                         _______ _______ _______ _____ _____    ______ ____
ROOT
ATOM      1  C   UNL     1       1.065   9.173  19.706  0.00  0.00    +0.000 A 
ATOM      2  C   UNL     1       1.481   9.718  18.483  0.00  0.00    +0.000 A 
ATOM      3  C   UNL     1       2.368   9.016  17.659  0.00  0.00    +0.000 A 
ATOM      4  C   UNL     1       2.791   7.734  18.019  0.00  0.00    +0.000 A 
ATOM      5  C   UNL     1       2.364   7.192  19.233  0.00  0.00    +0.000 A 
ATOM      6  C   UNL     1       1.595   7.946  20.116  0.00  0.00    +0.000 A 
ENDROOT
BRANCH   5   7
ATOM      7  S   UNL     1       2.820   5.545  19.700  0.00  0.00    +0.000 S 
ATOM      8  O   UNL     1       4.271   5.512  19.680  0.00  0.00    +0.000 OA
ATOM      9  O   UNL     1       2.092   5.198  20.901  0.00  0.00    +0.000 OA
BRANCH   7  10
ATOM     10  N   UNL     1       2.243   4.534  18.448  0.00  0.00    +0.000 NA
ATOM     11  C   UNL     1       1.186   3.508  18.774  0.00  0.00    +0.000 C 
ATOM     12  C   UNL     1       1.748   2.150  19.279  0.00  0.00    +0.000 C 
ATOM     13  O   UNL     1       2.945   1.699  18.626  0.00  0.00    +0.000 OA
ATOM     14  C   UNL     1       3.924   2.742  18.560  0.00  0.00    +0.000 C 
ATOM     15  C   UNL     1       3.347   3.862  17.697  0.00  0.00    +0.000 C 
ENDBRANCH   7  10
ENDBRANCH   5   7
BRANCH   1  16
ATOM     16  C   UNL     1      -0.014   9.819  20.539  0.00  0.00    +0.000 C 
BRANCH  16  17
ATOM     17  O   UNL     1       0.590  10.606  21.593  0.00  0.00    +0.000 OA
BRANCH  17  18
ATOM     18  C   UNL     1      -0.082  10.601  22.772  0.00  0.00    +0.000 C 
ATOM     19  O   UNL     1       0.077   9.800  23.681  0.00  0.00    +0.000 OA
BRANCH  18  24
ATOM     20  C   UNL     1      -3.218  12.674  23.460  0.00  0.00    +0.000 A 
ATOM     21  C   UNL     1      -2.795  13.924  22.999  0.00  0.00    +0.000 A 
ATOM     22  C   UNL     1      -1.521  14.076  22.456  0.00  0.00    +0.000 A 
ATOM     23  C   UNL     1      -0.666  12.976  22.381  0.00  0.00    +0.000 A 
ATOM     24  C   UNL     1      -1.071  11.715  22.852  0.00  0.00    +0.000 A 
ATOM     25  C   UNL     1      -2.360  11.566  23.382  0.00  0.00    +0.000 A 
BRANCH  20  27
ATOM     26  N   UNL     1      -5.602  12.407  24.454  0.00  0.00    +0.000 NA
ATOM     27  C   UNL     1      -4.533  12.536  24.016  0.00  0.00    +0.000 C 
ENDBRANCH  20  27
ENDBRANCH  18  24
ENDBRANCH  17  18
ENDBRANCH  16  17
ENDBRANCH   1  16
TORSDOF 7
ENDMDL
MODEL 8
REMARK VINA RESULT:      -7.3      3.480      8.656
REMARK  Name = 
REMARK  7 active torsions:
REMARK  status: ('A' for Active; 'I' for Inactive)
REMARK    1  A    between atoms: C_2  and  C_3
REMARK    2  A    between atoms: C_7  and  C_8
REMARK    3  A    between atoms: C_8  and  O_10
REMARK    4  A    between atoms: O_10  and  C_11
REMARK    5  A    between atoms: C_11  and  C_12
REMARK    6  A    between atoms: C_16  and  S_17
REMARK    7  A    between atoms: S_17  and  N_20
REMARK                            x       y       z     vdW  Elec       q    Type
REMARK                         _______ _______ _______ _____ _____    ______ ____
ROOT
ATOM      1  C   UNL     1       1.254   8.733  20.101  0.00  0.00    +0.000 A 
ATOM      2  C   UNL     1       1.233   9.631  19.025  0.00  0.00    +0.000 A 
ATOM      3  C   UNL     1       1.896   9.324  17.832  0.00  0.00    +0.000 A 
ATOM      4  C   UNL     1       2.529   8.088  17.681  0.00  0.00    +0.000 A 
ATOM      5  C   UNL     1       2.538   7.193  18.753  0.00  0.00    +0.000 A 
ATOM      6  C   UNL     1       1.998   7.555  19.985  0.00  0.00    +0.000 A 
ENDROOT
BRANCH   5   7
ATOM      7  S   UNL     1       3.268   5.588  18.588  0.00  0.00    +0.000 S 
ATOM      8  O   UNL     1       4.040   5.625  17.359  0.00  0.00    +0.000 OA
ATOM      9  O   UNL     1       3.900   5.246  19.843  0.00  0.00    +0.000 OA
BRANCH   7  10
ATOM     10  N   UNL     1       1.962   4.507  18.367  0.00  0.00    +0.000 NA
ATOM     11  C   UNL     1       1.332   3.874  19.583  0.00  0.00    +0.000 C 
ATOM     12  C   UNL     1       2.021   2.560  20.047  0.00  0.00    +0.000 C 
ATOM     13  O   UNL     1       2.469   1.694  18.993  0.00  0.00    +0.000 OA
ATOM     14  C   UNL     1       3.211   2.420  18.007  0.00  0.00    +0.000 C 
ATOM     15  C   UNL     1       2.264   3.434  17.372  0.00  0.00    +0.000 C 
ENDBRANCH   7  10
ENDBRANCH   5   7
BRANCH   1  16
ATOM     16  C   UNL     1       0.417   8.951  21.337  0.00  0.00    +0.000 C 
BRANCH  16  17
ATOM     17  O   UNL     1       0.894  10.116  22.050  0.00  0.00    +0.000 OA
BRANCH  17  18
ATOM     18  C   UNL     1      -0.024  11.101  22.224  0.00  0.00    +0.000 C 
ATOM     19  O   UNL     1      -0.701  11.277  23.225  0.00  0.00    +0.000 OA
BRANCH  18  24
ATOM     20  C   UNL     1       0.734  13.622  19.453  0.00  0.00    +0.000 A 
ATOM     21  C   UNL     1      -0.441  13.525  18.702  0.00  0.00    +0.000 A 
ATOM     22  C   UNL     1      -1.464  12.672  19.108  0.00  0.00    +0.000 A 
ATOM     23  C   UNL     1      -1.307  11.907  20.264  0.00  0.00    +0.000 A 
ATOM     24  C   UNL     1      -0.126  11.981  21.024  0.00  0.00    +0.000 A 
ATOM     25  C   UNL     1       0.892  12.856  20.619  0.00  0.00    +0.000 A 
BRANCH  20  27
ATOM     26  N   UNL     1       2.610  15.230  18.652  0.00  0.00    +0.000 NA
ATOM     27  C   UNL     1       1.777  14.506  19.020  0.00  0.00    +0.000 C 
ENDBRANCH  20  27
ENDBRANCH  18  24
ENDBRANCH  17  18
ENDBRANCH  16  17
ENDBRANCH   1  16
TORSDOF 7
ENDMDL
MODEL 9
REMARK VINA RESULT:      -7.3      3.262      8.861
REMARK  Name = 
REMARK  7 active torsions:
REMARK  status: ('A' for Active; 'I' for Inactive)
REMARK    1  A    between atoms: C_2  and  C_3
REMARK    2  A    between atoms: C_7  and  C_8
REMARK    3  A    between atoms: C_8  and  O_10
REMARK    4  A    between atoms: O_10  and  C_11
REMARK    5  A    between atoms: C_11  and  C_12
REMARK    6  A    between atoms: C_16  and  S_17
REMARK    7  A    between atoms: S_17  and  N_20
REMARK                            x       y       z     vdW  Elec       q    Type
REMARK                         _______ _______ _______ _____ _____    ______ ____
ROOT
ATOM      1  C   UNL     1       2.033   7.446  19.204  0.00  0.00    +0.000 A 
ATOM      2  C   UNL     1       1.560   6.958  20.431  0.00  0.00    +0.000 A 
ATOM      3  C   UNL     1       1.863   5.654  20.839  0.00  0.00    +0.000 A 
ATOM      4  C   UNL     1       2.696   4.852  20.056  0.00  0.00    +0.000 A 
ATOM      5  C   UNL     1       3.172   5.347  18.840  0.00  0.00    +0.000 A 
ATOM      6  C   UNL     1       2.759   6.591  18.370  0.00  0.00    +0.000 A 
ENDROOT
BRANCH   5   7
ATOM      7  S   UNL     1       4.285   4.393  17.846  0.00  0.00    +0.000 S 
ATOM      8  O   UNL     1       5.136   3.675  18.777  0.00  0.00    +0.000 OA
ATOM      9  O   UNL     1       3.509   3.679  16.856  0.00  0.00    +0.000 OA
BRANCH   7  10
ATOM     10  N   UNL     1       5.248   5.531  17.010  0.00  0.00    +0.000 NA
ATOM     11  C   UNL     1       5.483   5.336  15.532  0.00  0.00    +0.000 C 
ATOM     12  C   UNL     1       6.697   4.426  15.194  0.00  0.00    +0.000 C 
ATOM     13  O   UNL     1       7.845   4.590  16.042  0.00  0.00    +0.000 OA
ATOM     14  C   UNL     1       7.474   4.570  17.425  0.00  0.00    +0.000 C 
ATOM     15  C   UNL     1       6.565   5.771  17.676  0.00  0.00    +0.000 C 
ENDBRANCH   7  10
ENDBRANCH   5   7
BRANCH   1  16
ATOM     16  C   UNL     1       1.871   8.892  18.808  0.00  0.00    +0.000 C 
BRANCH  16  17
ATOM     17  O   UNL     1       0.674   9.434  19.416  0.00  0.00    +0.000 OA
BRANCH  17  18
ATOM     18  C   UNL     1       0.449  10.750  19.171  0.00  0.00    +0.000 C 
ATOM     19  O   UNL     1       1.237  11.660  19.382  0.00  0.00    +0.000 OA
BRANCH  18  24
ATOM     20  C   UNL     1      -2.583  10.820  16.845  0.00  0.00    +0.000 A 
ATOM     21  C   UNL     1      -3.522  11.431  17.681  0.00  0.00    +0.000 A 
ATOM     22  C   UNL     1      -3.162  11.829  18.966  0.00  0.00    +0.000 A 
ATOM     23  C   UNL     1      -1.861  11.608  19.419  0.00  0.00    +0.000 A 
ATOM     24  C   UNL     1      -0.907  10.984  18.596  0.00  0.00    +0.000 A 
ATOM     25  C   UNL     1      -1.272  10.601  17.298  0.00  0.00    +0.000 A 
BRANCH  20  27
ATOM     26  N   UNL     1      -3.301  10.075  14.463  0.00  0.00    +0.000 NA
ATOM     27  C   UNL     1      -2.971  10.416  15.525  0.00  0.00    +0.000 C 
ENDBRANCH  20  27
ENDBRANCH  18  24
ENDBRANCH  17  18
ENDBRANCH  16  17
ENDBRANCH   1  16
TORSDOF 7
ENDMDL
