MODEL 1
REMARK VINA RESULT:      -7.2      0.000      0.000
REMARK  Name = 
REMARK  3 active torsions:
REMARK  status: ('A' for Active; 'I' for Inactive)
REMARK    1  A    between atoms: C_1  and  S_2
REMARK    2  A    between atoms: S_2  and  C_3
REMARK    3  A    between atoms: N_16  and  C_17
REMARK                            x       y       z     vdW  Elec       q    Type
REMARK                         _______ _______ _______ _____ _____    ______ ____
ROOT
ATOM      1  C   UNL     1       1.045   8.184  20.456  0.00  0.00    +0.000 A 
ATOM      2  N   UNL     1       1.610   7.036  20.673  0.00  0.00    +0.000 NA
ATOM      3  C   UNL     1       2.467   6.619  19.715  0.00  0.00    +0.000 A 
ATOM      4  S   UNL     1       3.255   5.118  19.824  0.00  0.00    +0.000 S 
ATOM      5  C   UNL     1       4.065   5.342  18.321  0.00  0.00    +0.000 A 
ATOM      6  C   UNL     1       4.955   4.444  17.698  0.00  0.00    +0.000 A 
ATOM      7  C   UNL     1       5.540   4.804  16.483  0.00  0.00    +0.000 A 
ATOM      8  C   UNL     1       5.249   6.026  15.895  0.00  0.00    +0.000 A 
ATOM      9  C   UNL     1       4.354   6.906  16.509  0.00  0.00    +0.000 A 
ATOM     10  C   UNL     1       3.739   6.573  17.744  0.00  0.00    +0.000 A 
ATOM     11  C   UNL     1       2.790   7.284  18.560  0.00  0.00    +0.000 A 
ATOM     12  C   UNL     1       2.168   8.572  18.320  0.00  0.00    +0.000 A 
ATOM     13  O   UNL     1       2.430   9.220  17.309  0.00  0.00    +0.000 OA
ATOM     14  N   UNL     1       1.289   8.996  19.336  0.00  0.00    +0.000 N 
ENDROOT
BRANCH  14  15
ATOM     15  C   UNL     1       0.704  10.287  19.158  0.00  0.00    +0.000 A 
ATOM     16  C   UNL     1      -0.521  10.407  18.483  0.00  0.00    +0.000 A 
ATOM     17  C   UNL     1      -1.042  11.665  18.182  0.00  0.00    +0.000 A 
ATOM     18  C   UNL     1      -0.332  12.802  18.545  0.00  0.00    +0.000 A 
ATOM     19  F   UNL     1      -0.810  14.009  18.216  0.00  0.00    +0.000 F 
ATOM     20  C   UNL     1       0.875  12.705  19.228  0.00  0.00    +0.000 A 
ATOM     21  C   UNL     1       1.396  11.447  19.540  0.00  0.00    +0.000 A 
ENDBRANCH  14  15
BRANCH   1  23
ATOM     22  C   UNL     1       0.866   9.515  22.850  0.00  0.00    +0.000 C 
ATOM     23  S   UNL     1      -0.177   8.699  21.619  0.00  0.00    +0.000 S 
ENDBRANCH   1  23
TORSDOF 2
ENDMDL
MODEL 2
REMARK VINA RESULT:      -7.1      0.200      1.029
REMARK  Name = 
REMARK  3 active torsions:
REMARK  status: ('A' for Active; 'I' for Inactive)
REMARK    1  A    between atoms: C_1  and  S_2
REMARK    2  A    between atoms: S_2  and  C_3
REMARK    3  A    between atoms: N_16  and  C_17
REMARK                            x       y       z     vdW  Elec       q    Type
REMARK                         _______ _______ _______ _____ _____    ______ ____
ROOT
ATOM      1  C   UNL     1       1.099   8.164  20.340  0.00  0.00    +0.000 A 
ATOM      2  N   UNL     1       1.658   7.021  20.598  0.00  0.00    +0.000 NA
ATOM      3  C   UNL     1       2.523   6.572  19.660  0.00  0.00    +0.000 A 
ATOM      4  S   UNL     1       3.304   5.072  19.823  0.00  0.00    +0.000 S 
ATOM      5  C   UNL     1       4.129   5.248  18.322  0.00  0.00    +0.000 A 
ATOM      6  C   UNL     1       5.022   4.330  17.735  0.00  0.00    +0.000 A 
ATOM      7  C   UNL     1       5.620   4.651  16.514  0.00  0.00    +0.000 A 
ATOM      8  C   UNL     1       5.339   5.855  15.887  0.00  0.00    +0.000 A 
ATOM      9  C   UNL     1       4.441   6.757  16.466  0.00  0.00    +0.000 A 
ATOM     10  C   UNL     1       3.813   6.463  17.704  0.00  0.00    +0.000 A 
ATOM     11  C   UNL     1       2.859   7.201  18.490  0.00  0.00    +0.000 A 
ATOM     12  C   UNL     1       2.244   8.483  18.204  0.00  0.00    +0.000 A 
ATOM     13  O   UNL     1       2.517   9.099  17.177  0.00  0.00    +0.000 OA
ATOM     14  N   UNL     1       1.356   8.940  19.199  0.00  0.00    +0.000 N 
ENDROOT
BRANCH  14  15
ATOM     15  C   UNL     1       0.778  10.227  18.976  0.00  0.00    +0.000 A 
ATOM     16  C   UNL     1       1.439  11.375  19.443  0.00  0.00    +0.000 A 
ATOM     17  C   UNL     1       0.829  12.626  19.355  0.00  0.00    +0.000 A 
ATOM     18  C   UNL     1      -0.445  12.728  18.812  0.00  0.00    +0.000 A 
ATOM     19  F   UNL     1      -1.048  13.923  18.769  0.00  0.00    +0.000 F 
ATOM     20  C   UNL     1      -1.109  11.606  18.330  0.00  0.00    +0.000 A 
ATOM     21  C   UNL     1      -0.499  10.352  18.407  0.00  0.00    +0.000 A 
ENDBRANCH  14  15
BRANCH   1  23
ATOM     22  C   UNL     1       0.910   9.456  22.755  0.00  0.00    +0.000 C 
ATOM     23  S   UNL     1      -0.133   8.717  21.475  0.00  0.00    +0.000 S 
ENDBRANCH   1  23
TORSDOF 2
ENDMDL
MODEL 3
REMARK VINA RESULT:      -7.0      3.316      7.088
REMARK  Name = 
REMARK  3 active torsions:
REMARK  status: ('A' for Active; 'I' for Inactive)
REMARK    1  A    between atoms: C_1  and  S_2
REMARK    2  A    between atoms: S_2  and  C_3
REMARK    3  A    between atoms: N_16  and  C_17
REMARK                            x       y       z     vdW  Elec       q    Type
REMARK                         _______ _______ _______ _____ _____    ______ ____
ROOT
ATOM      1  C   UNL     1       3.749   4.853  19.175  0.00  0.00    +0.000 A 
ATOM      2  N   UNL     1       2.889   5.202  20.083  0.00  0.00    +0.000 NA
ATOM      3  C   UNL     1       2.341   6.428  19.924  0.00  0.00    +0.000 A 
ATOM      4  S   UNL     1       1.233   7.055  21.049  0.00  0.00    +0.000 S 
ATOM      5  C   UNL     1       1.066   8.533  20.183  0.00  0.00    +0.000 A 
ATOM      6  C   UNL     1       0.258   9.634  20.535  0.00  0.00    +0.000 A 
ATOM      7  C   UNL     1       0.230  10.749  19.696  0.00  0.00    +0.000 A 
ATOM      8  C   UNL     1       0.985  10.776  18.533  0.00  0.00    +0.000 A 
ATOM      9  C   UNL     1       1.796   9.688  18.196  0.00  0.00    +0.000 A 
ATOM     10  C   UNL     1       1.851   8.539  19.025  0.00  0.00    +0.000 A 
ATOM     11  C   UNL     1       2.601   7.316  18.912  0.00  0.00    +0.000 A 
ATOM     12  C   UNL     1       3.554   6.923  17.891  0.00  0.00    +0.000 A 
ATOM     13  O   UNL     1       3.816   7.672  16.953  0.00  0.00    +0.000 OA
ATOM     14  N   UNL     1       4.104   5.638  18.067  0.00  0.00    +0.000 N 
ENDROOT
BRANCH  14  15
ATOM     15  C   UNL     1       5.002   5.198  17.046  0.00  0.00    +0.000 A 
ATOM     16  C   UNL     1       6.340   5.621  17.071  0.00  0.00    +0.000 A 
ATOM     17  C   UNL     1       7.198   5.312  16.014  0.00  0.00    +0.000 A 
ATOM     18  C   UNL     1       6.714   4.592  14.930  0.00  0.00    +0.000 A 
ATOM     19  F   UNL     1       7.525   4.335  13.896  0.00  0.00    +0.000 F 
ATOM     20  C   UNL     1       5.396   4.151  14.895  0.00  0.00    +0.000 A 
ATOM     21  C   UNL     1       4.535   4.449  15.955  0.00  0.00    +0.000 A 
ENDBRANCH  14  15
BRANCH   1  23
ATOM     22  C   UNL     1       3.357   2.170  18.749  0.00  0.00    +0.000 C 
ATOM     23  S   UNL     1       4.582   3.318  19.422  0.00  0.00    +0.000 S 
ENDBRANCH   1  23
TORSDOF 2
ENDMDL
MODEL 4
REMARK VINA RESULT:      -7.0      0.902      1.402
REMARK  Name = 
REMARK  3 active torsions:
REMARK  status: ('A' for Active; 'I' for Inactive)
REMARK    1  A    between atoms: C_1  and  S_2
REMARK    2  A    between atoms: S_2  and  C_3
REMARK    3  A    between atoms: N_16  and  C_17
REMARK                            x       y       z     vdW  Elec       q    Type
REMARK                         _______ _______ _______ _____ _____    ______ ____
ROOT
ATOM      1  C   UNL     1       0.682   9.141  20.645  0.00  0.00    +0.000 A 
ATOM      2  N   UNL     1       1.050   7.967  21.057  0.00  0.00    +0.000 NA
ATOM      3  C   UNL     1       1.854   7.281  20.214  0.00  0.00    +0.000 A 
ATOM      4  S   UNL     1       2.388   5.711  20.582  0.00  0.00    +0.000 S 
ATOM      5  C   UNL     1       3.262   5.574  19.105  0.00  0.00    +0.000 A 
ATOM      6  C   UNL     1       4.014   4.465  18.666  0.00  0.00    +0.000 A 
ATOM      7  C   UNL     1       4.680   4.541  17.442  0.00  0.00    +0.000 A 
ATOM      8  C   UNL     1       4.603   5.688  16.667  0.00  0.00    +0.000 A 
ATOM      9  C   UNL     1       3.845   6.779  17.099  0.00  0.00    +0.000 A 
ATOM     10  C   UNL     1       3.153   6.738  18.337  0.00  0.00    +0.000 A 
ATOM     11  C   UNL     1       2.309   7.703  18.992  0.00  0.00    +0.000 A 
ATOM     12  C   UNL     1       1.907   9.019  18.534  0.00  0.00    +0.000 A 
ATOM     13  O   UNL     1       2.295   9.456  17.453  0.00  0.00    +0.000 OA
ATOM     14  N   UNL     1       1.081   9.724  19.431  0.00  0.00    +0.000 N 
ENDROOT
BRANCH  14  15
ATOM     15  C   UNL     1       0.715  11.047  19.036  0.00  0.00    +0.000 A 
ATOM     16  C   UNL     1       1.568  12.121  19.335  0.00  0.00    +0.000 A 
ATOM     17  C   UNL     1       1.170  13.433  19.079  0.00  0.00    +0.000 A 
ATOM     18  C   UNL     1      -0.086  13.671  18.535  0.00  0.00    +0.000 A 
ATOM     19  F   UNL     1      -0.486  14.932  18.330  0.00  0.00    +0.000 F 
ATOM     20  C   UNL     1      -0.939  12.620  18.217  0.00  0.00    +0.000 A 
ATOM     21  C   UNL     1      -0.540  11.304  18.463  0.00  0.00    +0.000 A 
ENDBRANCH  14  15
BRANCH   1  23
ATOM     22  C   UNL     1       0.062   9.471  23.299  0.00  0.00    +0.000 C 
ATOM     23  S   UNL     1      -0.473  10.010  21.657  0.00  0.00    +0.000 S 
ENDBRANCH   1  23
TORSDOF 2
ENDMDL
MODEL 5
REMARK VINA RESULT:      -6.9      3.071      6.782
REMARK  Name = 
REMARK  3 active torsions:
REMARK  status: ('A' for Active; 'I' for Inactive)
REMARK    1  A    between atoms: C_1  and  S_2
REMARK    2  A    between atoms: S_2  and  C_3
REMARK    3  A    between atoms: N_16  and  C_17
REMARK                            x       y       z     vdW  Elec       q    Type
REMARK                         _______ _______ _______ _____ _____    ______ ____
ROOT
ATOM      1  C   UNL     1       2.056   5.778  20.492  0.00  0.00    +0.000 A 
ATOM      2  N   UNL     1       1.217   6.470  21.201  0.00  0.00    +0.000 NA
ATOM      3  C   UNL     1       1.012   7.740  20.784  0.00  0.00    +0.000 A 
ATOM      4  S   UNL     1      -0.020   8.793  21.629  0.00  0.00    +0.000 S 
ATOM      5  C   UNL     1       0.281  10.091  20.539  0.00  0.00    +0.000 A 
ATOM      6  C   UNL     1      -0.261  11.391  20.602  0.00  0.00    +0.000 A 
ATOM      7  C   UNL     1       0.080  12.316  19.613  0.00  0.00    +0.000 A 
ATOM      8  C   UNL     1       0.939  11.962  18.584  0.00  0.00    +0.000 A 
ATOM      9  C   UNL     1       1.485  10.676  18.534  0.00  0.00    +0.000 A 
ATOM     10  C   UNL     1       1.163   9.712  19.522  0.00  0.00    +0.000 A 
ATOM     11  C   UNL     1       1.592   8.350  19.703  0.00  0.00    +0.000 A 
ATOM     12  C   UNL     1       2.522   7.575  18.903  0.00  0.00    +0.000 A 
ATOM     13  O   UNL     1       3.062   8.065  17.914  0.00  0.00    +0.000 OA
ATOM     14  N   UNL     1       2.712   6.251  19.345  0.00  0.00    +0.000 N 
ENDROOT
BRANCH  14  15
ATOM     15  C   UNL     1       3.577   5.443  18.544  0.00  0.00    +0.000 A 
ATOM     16  C   UNL     1       4.968   5.551  18.700  0.00  0.00    +0.000 A 
ATOM     17  C   UNL     1       5.830   4.872  17.839  0.00  0.00    +0.000 A 
ATOM     18  C   UNL     1       5.301   4.096  16.816  0.00  0.00    +0.000 A 
ATOM     19  F   UNL     1       6.129   3.481  15.962  0.00  0.00    +0.000 F 
ATOM     20  C   UNL     1       3.927   3.964  16.655  0.00  0.00    +0.000 A 
ATOM     21  C   UNL     1       3.059   4.634  17.521  0.00  0.00    +0.000 A 
ENDBRANCH  14  15
BRANCH   1  23
ATOM     22  C   UNL     1       1.010   3.240  20.493  0.00  0.00    +0.000 C 
ATOM     23  S   UNL     1       2.449   4.163  21.083  0.00  0.00    +0.000 S 
ENDBRANCH   1  23
TORSDOF 2
ENDMDL
MODEL 6
REMARK VINA RESULT:      -6.8      5.716      7.236
REMARK  Name = 
REMARK  3 active torsions:
REMARK  status: ('A' for Active; 'I' for Inactive)
REMARK    1  A    between atoms: C_1  and  S_2
REMARK    2  A    between atoms: S_2  and  C_3
REMARK    3  A    between atoms: N_16  and  C_17
REMARK                            x       y       z     vdW  Elec       q    Type
REMARK                         _______ _______ _______ _____ _____    ______ ____
ROOT
ATOM      1  C   UNL     1       5.788   4.614  16.516  0.00  0.00    +0.000 A 
ATOM      2  N   UNL     1       4.917   3.670  16.328  0.00  0.00    +0.000 NA
ATOM      3  C   UNL     1       4.045   3.475  17.343  0.00  0.00    +0.000 A 
ATOM      4  S   UNL     1       2.872   2.248  17.276  0.00  0.00    +0.000 S 
ATOM      5  C   UNL     1       2.256   2.640  18.835  0.00  0.00    +0.000 A 
ATOM      6  C   UNL     1       1.198   2.001  19.513  0.00  0.00    +0.000 A 
ATOM      7  C   UNL     1       0.817   2.471  20.771  0.00  0.00    +0.000 A 
ATOM      8  C   UNL     1       1.470   3.550  21.348  0.00  0.00    +0.000 A 
ATOM      9  C   UNL     1       2.529   4.171  20.679  0.00  0.00    +0.000 A 
ATOM     10  C   UNL     1       2.944   3.719  19.400  0.00  0.00    +0.000 A 
ATOM     11  C   UNL     1       3.994   4.168  18.524  0.00  0.00    +0.000 A 
ATOM     12  C   UNL     1       4.960   5.231  18.731  0.00  0.00    +0.000 A 
ATOM     13  O   UNL     1       4.954   5.895  19.764  0.00  0.00    +0.000 OA
ATOM     14  N   UNL     1       5.851   5.429  17.658  0.00  0.00    +0.000 N 
ENDROOT
BRANCH  14  15
ATOM     15  C   UNL     1       6.777   6.506  17.806  0.00  0.00    +0.000 A 
ATOM     16  C   UNL     1       7.837   6.390  18.719  0.00  0.00    +0.000 A 
ATOM     17  C   UNL     1       8.672   7.478  18.976  0.00  0.00    +0.000 A 
ATOM     18  C   UNL     1       8.439   8.684  18.328  0.00  0.00    +0.000 A 
ATOM     19  F   UNL     1       9.212   9.741  18.607  0.00  0.00    +0.000 F 
ATOM     20  C   UNL     1       7.405   8.814  17.408  0.00  0.00    +0.000 A 
ATOM     21  C   UNL     1       6.572   7.725  17.140  0.00  0.00    +0.000 A 
ENDBRANCH  14  15
BRANCH   1  23
ATOM     22  C   UNL     1       6.231   3.961  13.886  0.00  0.00    +0.000 C 
ATOM     23  S   UNL     1       7.024   4.810  15.272  0.00  0.00    +0.000 S 
ENDBRANCH   1  23
TORSDOF 2
ENDMDL
MODEL 7
REMARK VINA RESULT:      -6.7      2.997      6.711
REMARK  Name = 
REMARK  3 active torsions:
REMARK  status: ('A' for Active; 'I' for Inactive)
REMARK    1  A    between atoms: C_1  and  S_2
REMARK    2  A    between atoms: S_2  and  C_3
REMARK    3  A    between atoms: N_16  and  C_17
REMARK                            x       y       z     vdW  Elec       q    Type
REMARK                         _______ _______ _______ _____ _____    ______ ____
ROOT
ATOM      1  C   UNL     1       2.055   5.996  20.386  0.00  0.00    +0.000 A 
ATOM      2  N   UNL     1       1.283   6.649  21.199  0.00  0.00    +0.000 NA
ATOM      3  C   UNL     1       1.009   7.924  20.842  0.00  0.00    +0.000 A 
ATOM      4  S   UNL     1       0.051   8.929  21.820  0.00  0.00    +0.000 S 
ATOM      5  C   UNL     1       0.208  10.263  20.743  0.00  0.00    +0.000 A 
ATOM      6  C   UNL     1      -0.350  11.548  20.900  0.00  0.00    +0.000 A 
ATOM      7  C   UNL     1      -0.135  12.506  19.908  0.00  0.00    +0.000 A 
ATOM      8  C   UNL     1       0.618  12.200  18.784  0.00  0.00    +0.000 A 
ATOM      9  C   UNL     1       1.182  10.929  18.640  0.00  0.00    +0.000 A 
ATOM     10  C   UNL     1       0.985   9.931  19.629  0.00  0.00    +0.000 A 
ATOM     11  C   UNL     1       1.459   8.575  19.724  0.00  0.00    +0.000 A 
ATOM     12  C   UNL     1       2.314   7.844  18.809  0.00  0.00    +0.000 A 
ATOM     13  O   UNL     1       2.737   8.372  17.783  0.00  0.00    +0.000 OA
ATOM     14  N   UNL     1       2.578   6.514  19.190  0.00  0.00    +0.000 N 
ENDROOT
BRANCH  14  15
ATOM     15  C   UNL     1       3.369   5.748  18.280  0.00  0.00    +0.000 A 
ATOM     16  C   UNL     1       2.779   4.692  17.567  0.00  0.00    +0.000 A 
ATOM     17  C   UNL     1       3.561   3.849  16.777  0.00  0.00    +0.000 A 
ATOM     18  C   UNL     1       4.932   4.055  16.710  0.00  0.00    +0.000 A 
ATOM     19  F   UNL     1       5.688   3.219  15.987  0.00  0.00    +0.000 F 
ATOM     20  C   UNL     1       5.533   5.104  17.396  0.00  0.00    +0.000 A 
ATOM     21  C   UNL     1       4.753   5.957  18.180  0.00  0.00    +0.000 A 
ENDBRANCH  14  15
BRANCH   1  23
ATOM     22  C   UNL     1       1.012   3.463  20.567  0.00  0.00    +0.000 C 
ATOM     23  S   UNL     1       2.542   4.375  20.885  0.00  0.00    +0.000 S 
ENDBRANCH   1  23
TORSDOF 2
ENDMDL
MODEL 8
REMARK VINA RESULT:      -6.6      3.273      6.979
REMARK  Name = 
REMARK  3 active torsions:
REMARK  status: ('A' for Active; 'I' for Inactive)
REMARK    1  A    between atoms: C_1  and  S_2
REMARK    2  A    between atoms: S_2  and  C_3
REMARK    3  A    between atoms: N_16  and  C_17
REMARK                            x       y       z     vdW  Elec       q    Type
REMARK                         _______ _______ _______ _____ _____    ______ ____
ROOT
ATOM      1  C   UNL     1       3.762   5.209  19.121  0.00  0.00    +0.000 A 
ATOM      2  N   UNL     1       2.933   5.519  20.071  0.00  0.00    +0.000 NA
ATOM      3  C   UNL     1       2.310   6.711  19.932  0.00  0.00    +0.000 A 
ATOM      4  S   UNL     1       1.230   7.288  21.109  0.00  0.00    +0.000 S 
ATOM      5  C   UNL     1       0.936   8.746  20.242  0.00  0.00    +0.000 A 
ATOM      6  C   UNL     1       0.089   9.804  20.628  0.00  0.00    +0.000 A 
ATOM      7  C   UNL     1      -0.046  10.907  19.784  0.00  0.00    +0.000 A 
ATOM      8  C   UNL     1       0.644  10.964  18.583  0.00  0.00    +0.000 A 
ATOM      9  C   UNL     1       1.495   9.919  18.210  0.00  0.00    +0.000 A 
ATOM     10  C   UNL     1       1.658   8.783  19.044  0.00  0.00    +0.000 A 
ATOM     11  C   UNL     1       2.467   7.601  18.901  0.00  0.00    +0.000 A 
ATOM     12  C   UNL     1       3.385   7.251  17.834  0.00  0.00    +0.000 A 
ATOM     13  O   UNL     1       3.556   8.004  16.877  0.00  0.00    +0.000 OA
ATOM     14  N   UNL     1       4.014   6.000  17.989  0.00  0.00    +0.000 N 
ENDROOT
BRANCH  14  15
ATOM     15  C   UNL     1       4.880   5.599  16.926  0.00  0.00    +0.000 A 
ATOM     16  C   UNL     1       4.432   4.658  15.985  0.00  0.00    +0.000 A 
ATOM     17  C   UNL     1       5.304   4.154  15.020  0.00  0.00    +0.000 A 
ATOM     18  C   UNL     1       6.625   4.582  15.004  0.00  0.00    +0.000 A 
ATOM     19  F   UNL     1       7.474   4.065  14.106  0.00  0.00    +0.000 F 
ATOM     20  C   UNL     1       7.083   5.525  15.917  0.00  0.00    +0.000 A 
ATOM     21  C   UNL     1       6.211   6.040  16.879  0.00  0.00    +0.000 A 
ENDBRANCH  14  15
BRANCH   1  23
ATOM     22  C   UNL     1       3.419   2.489  18.977  0.00  0.00    +0.000 C 
ATOM     23  S   UNL     1       4.691   3.724  19.335  0.00  0.00    +0.000 S 
ENDBRANCH   1  23
TORSDOF 2
ENDMDL
MODEL 9
REMARK VINA RESULT:      -6.4      3.722      7.493
REMARK  Name = 
REMARK  3 active torsions:
REMARK  status: ('A' for Active; 'I' for Inactive)
REMARK    1  A    between atoms: C_1  and  S_2
REMARK    2  A    between atoms: S_2  and  C_3
REMARK    3  A    between atoms: N_16  and  C_17
REMARK                            x       y       z     vdW  Elec       q    Type
REMARK                         _______ _______ _______ _____ _____    ______ ____
ROOT
ATOM      1  C   UNL     1       3.531   7.054  17.624  0.00  0.00    +0.000 A 
ATOM      2  N   UNL     1       3.273   8.326  17.632  0.00  0.00    +0.000 NA
ATOM      3  C   UNL     1       2.431   8.743  18.605  0.00  0.00    +0.000 A 
ATOM      4  S   UNL     1       1.954  10.369  18.726  0.00  0.00    +0.000 S 
ATOM      5  C   UNL     1       0.954  10.058  20.093  0.00  0.00    +0.000 A 
ATOM      6  C   UNL     1       0.171  10.993  20.798  0.00  0.00    +0.000 A 
ATOM      7  C   UNL     1      -0.566  10.564  21.904  0.00  0.00    +0.000 A 
ATOM      8  C   UNL     1      -0.529   9.236  22.302  0.00  0.00    +0.000 A 
ATOM      9  C   UNL     1       0.237   8.309  21.590  0.00  0.00    +0.000 A 
ATOM     10  C   UNL     1       0.997   8.709  20.461  0.00  0.00    +0.000 A 
ATOM     11  C   UNL     1       1.842   7.963  19.566  0.00  0.00    +0.000 A 
ATOM     12  C   UNL     1       2.137   6.543  19.566  0.00  0.00    +0.000 A 
ATOM     13  O   UNL     1       1.648   5.797  20.411  0.00  0.00    +0.000 OA
ATOM     14  N   UNL     1       3.026   6.130  18.553  0.00  0.00    +0.000 N 
ENDROOT
BRANCH  14  15
ATOM     15  C   UNL     1       3.384   4.747  18.561  0.00  0.00    +0.000 A 
ATOM     16  C   UNL     1       2.662   3.839  17.769  0.00  0.00    +0.000 A 
ATOM     17  C   UNL     1       2.907   2.469  17.864  0.00  0.00    +0.000 A 
ATOM     18  C   UNL     1       3.865   2.008  18.757  0.00  0.00    +0.000 A 
ATOM     19  F   UNL     1       4.069   0.690  18.880  0.00  0.00    +0.000 F 
ATOM     20  C   UNL     1       4.601   2.892  19.538  0.00  0.00    +0.000 A 
ATOM     21  C   UNL     1       4.366   4.266  19.440  0.00  0.00    +0.000 A 
ENDBRANCH  14  15
BRANCH   1  23
ATOM     22  C   UNL     1       6.173   6.657  16.992  0.00  0.00    +0.000 C 
ATOM     23  S   UNL     1       4.518   6.454  16.291  0.00  0.00    +0.000 S 
ENDBRANCH   1  23
TORSDOF 2
ENDMDL
