MODEL 1
REMARK VINA RESULT:      -8.5      0.000      0.000
REMARK  Name = 
REMARK  10 active torsions:
REMARK  status: ('A' for Active; 'I' for Inactive)
REMARK    1  A    between atoms: C_1  and  C_2
REMARK    2  A    between atoms: C_4  and  C_5
REMARK    3  A    between atoms: C_5  and  N_6
REMARK    4  A    between atoms: N_6  and  C_7
REMARK    5  A    between atoms: C_12  and  O_13
REMARK    6  A    between atoms: O_13  and  C_14
REMARK    7  A    between atoms: C_14  and  C_15
REMARK    8  A    between atoms: C_15  and  O_17
REMARK    9  A    between atoms: C_18  and  C_19
REMARK   10  A    between atoms: C_21  and  C_22
REMARK                            x       y       z     vdW  Elec       q    Type
REMARK                         _______ _______ _______ _____ _____    ______ ____
ROOT
ATOM      1  N   UNL     1       2.375   6.745  17.607  0.00  0.00    +0.000 N 
ATOM      2  H   UNL     1       2.145   6.245  16.751  0.00  0.00    +0.000 HD
ENDROOT
BRANCH   1   3
ATOM      3  C   UNL     1       2.286   5.881  18.739  0.00  0.00    +0.000 A 
ATOM      4  C   UNL     1       2.007   6.363  20.038  0.00  0.00    +0.000 A 
ATOM      5  F   UNL     1       1.825   7.669  20.289  0.00  0.00    +0.000 F 
ATOM      6  C   UNL     1       1.933   5.533  21.140  0.00  0.00    +0.000 A 
ATOM      7  C   UNL     1       2.055   4.168  20.972  0.00  0.00    +0.000 A 
ATOM      8  C   UNL     1       2.205   3.610  19.693  0.00  0.00    +0.000 A 
ATOM      9  C   UNL     1       2.395   4.464  18.570  0.00  0.00    +0.000 A 
ATOM     10  C   UNL     1       2.629   3.874  17.198  0.00  0.00    +0.000 C 
BRANCH   8  11
ATOM     11  O   UNL     1       2.143   2.236  19.495  0.00  0.00    +0.000 OA
BRANCH  11  12
ATOM     12  C   UNL     1       3.399   1.658  19.102  0.00  0.00    +0.000 C 
BRANCH  12  13
ATOM     13  C   UNL     1       4.610   2.066  19.925  0.00  0.00    +0.000 C 
ATOM     14  O   UNL     1       4.798   1.690  21.072  0.00  0.00    +0.000 OA
BRANCH  13  15
ATOM     15  O   UNL     1       5.453   2.898  19.276  0.00  0.00    +0.000 OA
ATOM     16  H   UNL     1       5.051   3.789  19.186  0.00  0.00    +0.000 HD
ENDBRANCH  13  15
ENDBRANCH  12  13
ENDBRANCH  11  12
ENDBRANCH   8  11
ENDBRANCH   1   3
BRANCH   1  17
ATOM     17  C   UNL     1       3.623   7.506  17.467  0.00  0.00    +0.000 C 
BRANCH  17  21
ATOM     18  C   UNL     1       7.976   5.586  19.076  0.00  0.00    +0.000 C 
ATOM     19  C   UNL     1       6.966   5.774  17.982  0.00  0.00    +0.000 A 
ATOM     20  C   UNL     1       5.780   6.471  18.214  0.00  0.00    +0.000 A 
ATOM     21  C   UNL     1       4.839   6.659  17.187  0.00  0.00    +0.000 A 
ATOM     22  C   UNL     1       5.127   6.169  15.909  0.00  0.00    +0.000 A 
ATOM     23  C   UNL     1       6.298   5.435  15.643  0.00  0.00    +0.000 A 
ATOM     24  C   UNL     1       7.204   5.247  16.706  0.00  0.00    +0.000 A 
BRANCH  23  25
ATOM     25  C   UNL     1       6.559   4.883  14.294  0.00  0.00    +0.000 A 
ATOM     26  C   UNL     1       7.597   5.377  13.480  0.00  0.00    +0.000 A 
ATOM     27  C   UNL     1       7.850   4.842  12.211  0.00  0.00    +0.000 A 
ATOM     28  C   UNL     1       7.057   3.809  11.724  0.00  0.00    +0.000 A 
ATOM     29  C   UNL     1       6.024   3.319  12.508  0.00  0.00    +0.000 A 
ATOM     30  F   UNL     1       5.251   2.329  12.042  0.00  0.00    +0.000 F 
ATOM     31  C   UNL     1       5.777   3.837  13.775  0.00  0.00    +0.000 A 
ENDBRANCH  23  25
ENDBRANCH  17  21
ENDBRANCH   1  17
TORSDOF 8
ENDMDL
MODEL 2
REMARK VINA RESULT:      -8.5      4.482      6.575
REMARK  Name = 
REMARK  10 active torsions:
REMARK  status: ('A' for Active; 'I' for Inactive)
REMARK    1  A    between atoms: C_1  and  C_2
REMARK    2  A    between atoms: C_4  and  C_5
REMARK    3  A    between atoms: C_5  and  N_6
REMARK    4  A    between atoms: N_6  and  C_7
REMARK    5  A    between atoms: C_12  and  O_13
REMARK    6  A    between atoms: O_13  and  C_14
REMARK    7  A    between atoms: C_14  and  C_15
REMARK    8  A    between atoms: C_15  and  O_17
REMARK    9  A    between atoms: C_18  and  C_19
REMARK   10  A    between atoms: C_21  and  C_22
REMARK                            x       y       z     vdW  Elec       q    Type
REMARK                         _______ _______ _______ _____ _____    ______ ____
ROOT
ATOM      1  N   UNL     1       2.044   8.023  20.631  0.00  0.00    +0.000 N 
ATOM      2  H   UNL     1       2.572   8.049  19.763  0.00  0.00    +0.000 HD
ENDROOT
BRANCH   1   3
ATOM      3  C   UNL     1       1.063   9.059  20.660  0.00  0.00    +0.000 A 
ATOM      4  C   UNL     1       0.498   9.533  21.866  0.00  0.00    +0.000 A 
ATOM      5  F   UNL     1       0.840   9.024  23.060  0.00  0.00    +0.000 F 
ATOM      6  C   UNL     1      -0.462  10.525  21.899  0.00  0.00    +0.000 A 
ATOM      7  C   UNL     1      -0.838  11.146  20.724  0.00  0.00    +0.000 A 
ATOM      8  C   UNL     1      -0.226  10.815  19.506  0.00  0.00    +0.000 A 
ATOM      9  C   UNL     1       0.680   9.717  19.448  0.00  0.00    +0.000 A 
ATOM     10  C   UNL     1       1.292   9.306  18.128  0.00  0.00    +0.000 C 
BRANCH   8  11
ATOM     11  O   UNL     1      -0.463  11.557  18.355  0.00  0.00    +0.000 OA
BRANCH  11  12
ATOM     12  C   UNL     1      -1.854  11.629  17.998  0.00  0.00    +0.000 C 
BRANCH  12  13
ATOM     13  C   UNL     1      -2.456  10.369  17.396  0.00  0.00    +0.000 C 
ATOM     14  O   UNL     1      -1.902   9.712  16.528  0.00  0.00    +0.000 OA
BRANCH  13  15
ATOM     15  O   UNL     1      -3.668  10.052  17.899  0.00  0.00    +0.000 OA
ATOM     16  H   UNL     1      -4.367  10.589  17.469  0.00  0.00    +0.000 HD
ENDBRANCH  13  15
ENDBRANCH  12  13
ENDBRANCH  11  12
ENDBRANCH   8  11
ENDBRANCH   1   3
BRANCH   1  17
ATOM     17  C   UNL     1       1.567   6.668  20.931  0.00  0.00    +0.000 C 
BRANCH  17  21
ATOM     18  C   UNL     1       0.723   2.170  18.861  0.00  0.00    +0.000 C 
ATOM     19  C   UNL     1       1.530   3.433  18.937  0.00  0.00    +0.000 A 
ATOM     20  C   UNL     1       1.175   4.459  19.813  0.00  0.00    +0.000 A 
ATOM     21  C   UNL     1       1.938   5.636  19.895  0.00  0.00    +0.000 A 
ATOM     22  C   UNL     1       3.091   5.750  19.111  0.00  0.00    +0.000 A 
ATOM     23  C   UNL     1       3.465   4.750  18.194  0.00  0.00    +0.000 A 
ATOM     24  C   UNL     1       2.660   3.597  18.124  0.00  0.00    +0.000 A 
BRANCH  23  25
ATOM     25  C   UNL     1       4.662   4.914  17.338  0.00  0.00    +0.000 A 
ATOM     26  C   UNL     1       4.861   4.130  16.185  0.00  0.00    +0.000 A 
ATOM     27  C   UNL     1       5.987   4.300  15.370  0.00  0.00    +0.000 A 
ATOM     28  C   UNL     1       6.947   5.249  15.703  0.00  0.00    +0.000 A 
ATOM     29  C   UNL     1       6.772   6.021  16.841  0.00  0.00    +0.000 A 
ATOM     30  F   UNL     1       7.697   6.931  17.172  0.00  0.00    +0.000 F 
ATOM     31  C   UNL     1       5.649   5.867  17.647  0.00  0.00    +0.000 A 
ENDBRANCH  23  25
ENDBRANCH  17  21
ENDBRANCH   1  17
TORSDOF 8
ENDMDL
MODEL 3
REMARK VINA RESULT:      -8.4      3.067      4.221
REMARK  Name = 
REMARK  10 active torsions:
REMARK  status: ('A' for Active; 'I' for Inactive)
REMARK    1  A    between atoms: C_1  and  C_2
REMARK    2  A    between atoms: C_4  and  C_5
REMARK    3  A    between atoms: C_5  and  N_6
REMARK    4  A    between atoms: N_6  and  C_7
REMARK    5  A    between atoms: C_12  and  O_13
REMARK    6  A    between atoms: O_13  and  C_14
REMARK    7  A    between atoms: C_14  and  C_15
REMARK    8  A    between atoms: C_15  and  O_17
REMARK    9  A    between atoms: C_18  and  C_19
REMARK   10  A    between atoms: C_21  and  C_22
REMARK                            x       y       z     vdW  Elec       q    Type
REMARK                         _______ _______ _______ _____ _____    ______ ____
ROOT
ATOM      1  N   UNL     1       3.126   4.205  18.600  0.00  0.00    +0.000 N 
ATOM      2  H   UNL     1       2.442   3.590  19.034  0.00  0.00    +0.000 HD
ENDROOT
BRANCH   1   3
ATOM      3  C   UNL     1       2.792   5.574  18.824  0.00  0.00    +0.000 A 
ATOM      4  C   UNL     1       3.012   6.576  17.852  0.00  0.00    +0.000 A 
ATOM      5  F   UNL     1       3.567   6.302  16.661  0.00  0.00    +0.000 F 
ATOM      6  C   UNL     1       2.705   7.905  18.069  0.00  0.00    +0.000 A 
ATOM      7  C   UNL     1       2.083   8.275  19.246  0.00  0.00    +0.000 A 
ATOM      8  C   UNL     1       1.718   7.313  20.200  0.00  0.00    +0.000 A 
ATOM      9  C   UNL     1       2.133   5.962  20.034  0.00  0.00    +0.000 A 
ATOM     10  C   UNL     1       1.807   4.931  21.091  0.00  0.00    +0.000 C 
BRANCH   8  11
ATOM     11  O   UNL     1       0.931   7.650  21.296  0.00  0.00    +0.000 OA
BRANCH  11  12
ATOM     12  C   UNL     1       1.312   8.891  21.914  0.00  0.00    +0.000 C 
BRANCH  12  13
ATOM     13  C   UNL     1       0.212   9.633  22.656  0.00  0.00    +0.000 C 
ATOM     14  O   UNL     1      -0.719  10.188  22.092  0.00  0.00    +0.000 OA
BRANCH  13  15
ATOM     15  O   UNL     1       0.368   9.636  23.997  0.00  0.00    +0.000 OA
ATOM     16  H   UNL     1      -0.254  10.271  24.412  0.00  0.00    +0.000 HD
ENDBRANCH  13  15
ENDBRANCH  12  13
ENDBRANCH  11  12
ENDBRANCH   8  11
ENDBRANCH   1   3
BRANCH   1  17
ATOM     17  C   UNL     1       4.498   3.807  18.935  0.00  0.00    +0.000 C 
BRANCH  17  21
ATOM     18  C   UNL     1       8.172   7.215  18.593  0.00  0.00    +0.000 C 
ATOM     19  C   UNL     1       7.312   6.166  17.953  0.00  0.00    +0.000 A 
ATOM     20  C   UNL     1       6.377   5.450  18.701  0.00  0.00    +0.000 A 
ATOM     21  C   UNL     1       5.561   4.477  18.100  0.00  0.00    +0.000 A 
ATOM     22  C   UNL     1       5.670   4.261  16.722  0.00  0.00    +0.000 A 
ATOM     23  C   UNL     1       6.621   4.940  15.938  0.00  0.00    +0.000 A 
ATOM     24  C   UNL     1       7.437   5.890  16.584  0.00  0.00    +0.000 A 
BRANCH  23  25
ATOM     25  C   UNL     1       6.753   4.660  14.491  0.00  0.00    +0.000 A 
ATOM     26  C   UNL     1       7.671   5.359  13.681  0.00  0.00    +0.000 A 
ATOM     27  C   UNL     1       7.802   5.079  12.316  0.00  0.00    +0.000 A 
ATOM     28  C   UNL     1       7.006   4.103  11.728  0.00  0.00    +0.000 A 
ATOM     29  C   UNL     1       6.090   3.414  12.508  0.00  0.00    +0.000 A 
ATOM     30  F   UNL     1       5.314   2.479  11.946  0.00  0.00    +0.000 F 
ATOM     31  C   UNL     1       5.964   3.678  13.868  0.00  0.00    +0.000 A 
ENDBRANCH  23  25
ENDBRANCH  17  21
ENDBRANCH   1  17
TORSDOF 8
ENDMDL
MODEL 4
REMARK VINA RESULT:      -8.4      4.568      7.811
REMARK  Name = 
REMARK  10 active torsions:
REMARK  status: ('A' for Active; 'I' for Inactive)
REMARK    1  A    between atoms: C_1  and  C_2
REMARK    2  A    between atoms: C_4  and  C_5
REMARK    3  A    between atoms: C_5  and  N_6
REMARK    4  A    between atoms: N_6  and  C_7
REMARK    5  A    between atoms: C_12  and  O_13
REMARK    6  A    between atoms: O_13  and  C_14
REMARK    7  A    between atoms: C_14  and  C_15
REMARK    8  A    between atoms: C_15  and  O_17
REMARK    9  A    between atoms: C_18  and  C_19
REMARK   10  A    between atoms: C_21  and  C_22
REMARK                            x       y       z     vdW  Elec       q    Type
REMARK                         _______ _______ _______ _____ _____    ______ ____
ROOT
ATOM      1  N   UNL     1       3.435   7.777  18.232  0.00  0.00    +0.000 N 
ATOM      2  H   UNL     1       3.291   7.941  19.225  0.00  0.00    +0.000 HD
ENDROOT
BRANCH   1   3
ATOM      3  C   UNL     1       3.722   6.402  17.980  0.00  0.00    +0.000 A 
ATOM      4  C   UNL     1       4.497   5.980  16.875  0.00  0.00    +0.000 A 
ATOM      5  F   UNL     1       4.998   6.851  15.984  0.00  0.00    +0.000 F 
ATOM      6  C   UNL     1       4.765   4.650  16.619  0.00  0.00    +0.000 A 
ATOM      7  C   UNL     1       4.335   3.686  17.509  0.00  0.00    +0.000 A 
ATOM      8  C   UNL     1       3.671   4.044  18.693  0.00  0.00    +0.000 A 
ATOM      9  C   UNL     1       3.293   5.400  18.906  0.00  0.00    +0.000 A 
ATOM     10  C   UNL     1       2.515   5.785  20.145  0.00  0.00    +0.000 C 
BRANCH   8  11
ATOM     11  O   UNL     1       3.400   3.102  19.679  0.00  0.00    +0.000 OA
BRANCH  11  12
ATOM     12  C   UNL     1       2.478   2.082  19.257  0.00  0.00    +0.000 C 
BRANCH  12  13
ATOM     13  C   UNL     1       1.002   2.438  19.342  0.00  0.00    +0.000 C 
ATOM     14  O   UNL     1       0.219   2.270  18.419  0.00  0.00    +0.000 OA
BRANCH  13  15
ATOM     15  O   UNL     1       0.640   2.974  20.527  0.00  0.00    +0.000 OA
ATOM     16  H   UNL     1       1.094   2.511  21.264  0.00  0.00    +0.000 HD
ENDBRANCH  13  15
ENDBRANCH  12  13
ENDBRANCH  11  12
ENDBRANCH   8  11
ENDBRANCH   1   3
BRANCH   1  17
ATOM     17  C   UNL     1       2.364   8.376  17.426  0.00  0.00    +0.000 C 
BRANCH  17  21
ATOM     18  C   UNL     1       0.629   9.810  21.916  0.00  0.00    +0.000 C 
ATOM     19  C   UNL     1       0.456   9.713  20.429  0.00  0.00    +0.000 A 
ATOM     20  C   UNL     1       1.458   9.169  19.624  0.00  0.00    +0.000 A 
ATOM     21  C   UNL     1       1.292   9.065  18.234  0.00  0.00    +0.000 A 
ATOM     22  C   UNL     1       0.084   9.481  17.665  0.00  0.00    +0.000 A 
ATOM     23  C   UNL     1      -0.939  10.063  18.437  0.00  0.00    +0.000 A 
ATOM     24  C   UNL     1      -0.723  10.172  19.826  0.00  0.00    +0.000 A 
BRANCH  23  25
ATOM     25  C   UNL     1      -2.189  10.541  17.807  0.00  0.00    +0.000 A 
ATOM     26  C   UNL     1      -3.097  11.369  18.496  0.00  0.00    +0.000 A 
ATOM     27  C   UNL     1      -4.272  11.831  17.890  0.00  0.00    +0.000 A 
ATOM     28  C   UNL     1      -4.570  11.460  16.584  0.00  0.00    +0.000 A 
ATOM     29  C   UNL     1      -3.693  10.637  15.896  0.00  0.00    +0.000 A 
ATOM     30  F   UNL     1      -3.979  10.269  14.640  0.00  0.00    +0.000 F 
ATOM     31  C   UNL     1      -2.518  10.185  16.487  0.00  0.00    +0.000 A 
ENDBRANCH  23  25
ENDBRANCH  17  21
ENDBRANCH   1  17
TORSDOF 8
ENDMDL
MODEL 5
REMARK VINA RESULT:      -8.2      4.547      7.718
REMARK  Name = 
REMARK  10 active torsions:
REMARK  status: ('A' for Active; 'I' for Inactive)
REMARK    1  A    between atoms: C_1  and  C_2
REMARK    2  A    between atoms: C_4  and  C_5
REMARK    3  A    between atoms: C_5  and  N_6
REMARK    4  A    between atoms: N_6  and  C_7
REMARK    5  A    between atoms: C_12  and  O_13
REMARK    6  A    between atoms: O_13  and  C_14
REMARK    7  A    between atoms: C_14  and  C_15
REMARK    8  A    between atoms: C_15  and  O_17
REMARK    9  A    between atoms: C_18  and  C_19
REMARK   10  A    between atoms: C_21  and  C_22
REMARK                            x       y       z     vdW  Elec       q    Type
REMARK                         _______ _______ _______ _____ _____    ______ ____
ROOT
ATOM      1  N   UNL     1       3.380   7.735  18.357  0.00  0.00    +0.000 N 
ATOM      2  H   UNL     1       3.122   7.749  19.341  0.00  0.00    +0.000 HD
ENDROOT
BRANCH   1   3
ATOM      3  C   UNL     1       3.518   6.395  17.888  0.00  0.00    +0.000 A 
ATOM      4  C   UNL     1       4.521   6.015  16.966  0.00  0.00    +0.000 A 
ATOM      5  F   UNL     1       5.396   6.900  16.463  0.00  0.00    +0.000 F 
ATOM      6  C   UNL     1       4.650   4.723  16.497  0.00  0.00    +0.000 A 
ATOM      7  C   UNL     1       3.827   3.733  16.997  0.00  0.00    +0.000 A 
ATOM      8  C   UNL     1       2.896   4.013  18.008  0.00  0.00    +0.000 A 
ATOM      9  C   UNL     1       2.680   5.361  18.413  0.00  0.00    +0.000 A 
ATOM     10  C   UNL     1       1.628   5.683  19.451  0.00  0.00    +0.000 C 
BRANCH   8  11
ATOM     11  O   UNL     1       2.196   2.995  18.645  0.00  0.00    +0.000 OA
BRANCH  11  12
ATOM     12  C   UNL     1       2.869   2.480  19.807  0.00  0.00    +0.000 C 
BRANCH  12  13
ATOM     13  C   UNL     1       2.110   2.588  21.120  0.00  0.00    +0.000 C 
ATOM     14  O   UNL     1       2.651   2.513  22.213  0.00  0.00    +0.000 OA
BRANCH  13  15
ATOM     15  O   UNL     1       0.780   2.757  20.967  0.00  0.00    +0.000 OA
ATOM     16  H   UNL     1       0.395   2.004  20.469  0.00  0.00    +0.000 HD
ENDBRANCH  13  15
ENDBRANCH  12  13
ENDBRANCH  11  12
ENDBRANCH   8  11
ENDBRANCH   1   3
BRANCH   1  17
ATOM     17  C   UNL     1       2.517   8.617  17.562  0.00  0.00    +0.000 C 
BRANCH  17  21
ATOM     18  C   UNL     1       0.455   9.765  21.996  0.00  0.00    +0.000 C 
ATOM     19  C   UNL     1       0.374   9.728  20.498  0.00  0.00    +0.000 A 
ATOM     20  C   UNL     1       1.446   9.267  19.733  0.00  0.00    +0.000 A 
ATOM     21  C   UNL     1       1.367   9.219  18.332  0.00  0.00    +0.000 A 
ATOM     22  C   UNL     1       0.176   9.604  17.709  0.00  0.00    +0.000 A 
ATOM     23  C   UNL     1      -0.917  10.102  18.442  0.00  0.00    +0.000 A 
ATOM     24  C   UNL     1      -0.788  10.158  19.844  0.00  0.00    +0.000 A 
BRANCH  23  25
ATOM     25  C   UNL     1      -2.151  10.550  17.758  0.00  0.00    +0.000 A 
ATOM     26  C   UNL     1      -3.143  11.292  18.429  0.00  0.00    +0.000 A 
ATOM     27  C   UNL     1      -4.301  11.727  17.773  0.00  0.00    +0.000 A 
ATOM     28  C   UNL     1      -4.498  11.413  16.433  0.00  0.00    +0.000 A 
ATOM     29  C   UNL     1      -3.537  10.675  15.761  0.00  0.00    +0.000 A 
ATOM     30  F   UNL     1      -3.724  10.362  14.472  0.00  0.00    +0.000 F 
ATOM     31  C   UNL     1      -2.377  10.251  16.403  0.00  0.00    +0.000 A 
ENDBRANCH  23  25
ENDBRANCH  17  21
ENDBRANCH   1  17
TORSDOF 8
ENDMDL
MODEL 6
REMARK VINA RESULT:      -8.2      4.633      6.906
REMARK  Name = 
REMARK  10 active torsions:
REMARK  status: ('A' for Active; 'I' for Inactive)
REMARK    1  A    between atoms: C_1  and  C_2
REMARK    2  A    between atoms: C_4  and  C_5
REMARK    3  A    between atoms: C_5  and  N_6
REMARK    4  A    between atoms: N_6  and  C_7
REMARK    5  A    between atoms: C_12  and  O_13
REMARK    6  A    between atoms: O_13  and  C_14
REMARK    7  A    between atoms: C_14  and  C_15
REMARK    8  A    between atoms: C_15  and  O_17
REMARK    9  A    between atoms: C_18  and  C_19
REMARK   10  A    between atoms: C_21  and  C_22
REMARK                            x       y       z     vdW  Elec       q    Type
REMARK                         _______ _______ _______ _____ _____    ______ ____
ROOT
ATOM      1  N   UNL     1       2.092   7.690  20.922  0.00  0.00    +0.000 N 
ATOM      2  H   UNL     1       3.066   7.580  20.651  0.00  0.00    +0.000 HD
ENDROOT
BRANCH   1   3
ATOM      3  C   UNL     1       1.442   8.657  20.099  0.00  0.00    +0.000 A 
ATOM      4  C   UNL     1       1.690   8.760  18.711  0.00  0.00    +0.000 A 
ATOM      5  F   UNL     1       2.569   7.961  18.085  0.00  0.00    +0.000 F 
ATOM      6  C   UNL     1       1.075   9.704  17.913  0.00  0.00    +0.000 A 
ATOM      7  C   UNL     1       0.117  10.535  18.458  0.00  0.00    +0.000 A 
ATOM      8  C   UNL     1      -0.272  10.402  19.800  0.00  0.00    +0.000 A 
ATOM      9  C   UNL     1       0.437   9.511  20.654  0.00  0.00    +0.000 A 
ATOM     10  C   UNL     1       0.073   9.412  22.118  0.00  0.00    +0.000 C 
BRANCH   8  11
ATOM     11  O   UNL     1      -1.359  11.105  20.307  0.00  0.00    +0.000 OA
BRANCH  11  12
ATOM     12  C   UNL     1      -1.857  12.112  19.411  0.00  0.00    +0.000 C 
BRANCH  12  13
ATOM     13  C   UNL     1      -3.301  11.952  18.960  0.00  0.00    +0.000 C 
ATOM     14  O   UNL     1      -3.662  11.102  18.160  0.00  0.00    +0.000 OA
BRANCH  13  15
ATOM     15  O   UNL     1      -4.146  12.847  19.515  0.00  0.00    +0.000 OA
ATOM     16  H   UNL     1      -3.709  13.720  19.603  0.00  0.00    +0.000 HD
ENDBRANCH  13  15
ENDBRANCH  12  13
ENDBRANCH  11  12
ENDBRANCH   8  11
ENDBRANCH   1   3
BRANCH   1  17
ATOM     17  C   UNL     1       1.420   6.391  21.054  0.00  0.00    +0.000 C 
BRANCH  17  21
ATOM     18  C   UNL     1       0.642   1.980  18.782  0.00  0.00    +0.000 C 
ATOM     19  C   UNL     1       1.505   3.186  19.014  0.00  0.00    +0.000 A 
ATOM     20  C   UNL     1       1.078   4.224  19.842  0.00  0.00    +0.000 A 
ATOM     21  C   UNL     1       1.890   5.347  20.071  0.00  0.00    +0.000 A 
ATOM     22  C   UNL     1       3.159   5.394  19.486  0.00  0.00    +0.000 A 
ATOM     23  C   UNL     1       3.615   4.381  18.621  0.00  0.00    +0.000 A 
ATOM     24  C   UNL     1       2.760   3.283  18.398  0.00  0.00    +0.000 A 
BRANCH  23  25
ATOM     25  C   UNL     1       4.942   4.474  17.974  0.00  0.00    +0.000 A 
ATOM     26  C   UNL     1       6.067   4.974  18.658  0.00  0.00    +0.000 A 
ATOM     27  C   UNL     1       7.324   5.046  18.046  0.00  0.00    +0.000 A 
ATOM     28  C   UNL     1       7.478   4.633  16.728  0.00  0.00    +0.000 A 
ATOM     29  C   UNL     1       6.379   4.149  16.036  0.00  0.00    +0.000 A 
ATOM     30  F   UNL     1       6.518   3.757  14.763  0.00  0.00    +0.000 F 
ATOM     31  C   UNL     1       5.130   4.062  16.642  0.00  0.00    +0.000 A 
ENDBRANCH  23  25
ENDBRANCH  17  21
ENDBRANCH   1  17
TORSDOF 8
ENDMDL
MODEL 7
REMARK VINA RESULT:      -8.1      4.938      6.969
REMARK  Name = 
REMARK  10 active torsions:
REMARK  status: ('A' for Active; 'I' for Inactive)
REMARK    1  A    between atoms: C_1  and  C_2
REMARK    2  A    between atoms: C_4  and  C_5
REMARK    3  A    between atoms: C_5  and  N_6
REMARK    4  A    between atoms: N_6  and  C_7
REMARK    5  A    between atoms: C_12  and  O_13
REMARK    6  A    between atoms: O_13  and  C_14
REMARK    7  A    between atoms: C_14  and  C_15
REMARK    8  A    between atoms: C_15  and  O_17
REMARK    9  A    between atoms: C_18  and  C_19
REMARK   10  A    between atoms: C_21  and  C_22
REMARK                            x       y       z     vdW  Elec       q    Type
REMARK                         _______ _______ _______ _____ _____    ______ ____
ROOT
ATOM      1  N   UNL     1       2.100   7.872  20.827  0.00  0.00    +0.000 N 
ATOM      2  H   UNL     1       2.969   7.817  20.301  0.00  0.00    +0.000 HD
ENDROOT
BRANCH   1   3
ATOM      3  C   UNL     1       1.261   8.905  20.315  0.00  0.00    +0.000 A 
ATOM      4  C   UNL     1       1.143   9.169  18.930  0.00  0.00    +0.000 A 
ATOM      5  F   UNL     1       1.831   8.471  18.013  0.00  0.00    +0.000 F 
ATOM      6  C   UNL     1       0.344  10.177  18.430  0.00  0.00    +0.000 A 
ATOM      7  C   UNL     1      -0.442  10.914  19.294  0.00  0.00    +0.000 A 
ATOM      8  C   UNL     1      -0.473  10.621  20.666  0.00  0.00    +0.000 A 
ATOM      9  C   UNL     1       0.432   9.662  21.203  0.00  0.00    +0.000 A 
ATOM     10  C   UNL     1       0.457   9.390  22.690  0.00  0.00    +0.000 C 
BRANCH   8  11
ATOM     11  O   UNL     1      -1.392  11.231  21.512  0.00  0.00    +0.000 OA
BRANCH  11  12
ATOM     12  C   UNL     1      -1.373  12.666  21.437  0.00  0.00    +0.000 C 
BRANCH  12  13
ATOM     13  C   UNL     1      -0.322  13.366  22.285  0.00  0.00    +0.000 C 
ATOM     14  O   UNL     1       0.791  13.650  21.870  0.00  0.00    +0.000 OA
BRANCH  13  15
ATOM     15  O   UNL     1      -0.728  13.628  23.546  0.00  0.00    +0.000 OA
ATOM     16  H   UNL     1      -0.029  14.111  24.036  0.00  0.00    +0.000 HD
ENDBRANCH  13  15
ENDBRANCH  12  13
ENDBRANCH  11  12
ENDBRANCH   8  11
ENDBRANCH   1   3
BRANCH   1  17
ATOM     17  C   UNL     1       1.482   6.549  20.985  0.00  0.00    +0.000 C 
BRANCH  17  21
ATOM     18  C   UNL     1       0.713   2.100  18.784  0.00  0.00    +0.000 C 
ATOM     19  C   UNL     1       1.506   3.369  18.904  0.00  0.00    +0.000 A 
ATOM     20  C   UNL     1       1.129   4.367  19.803  0.00  0.00    +0.000 A 
ATOM     21  C   UNL     1       1.877   5.550  19.926  0.00  0.00    +0.000 A 
ATOM     22  C   UNL     1       3.038   5.698  19.159  0.00  0.00    +0.000 A 
ATOM     23  C   UNL     1       3.434   4.727  18.220  0.00  0.00    +0.000 A 
ATOM     24  C   UNL     1       2.642   3.567  18.109  0.00  0.00    +0.000 A 
BRANCH  23  25
ATOM     25  C   UNL     1       4.639   4.927  17.383  0.00  0.00    +0.000 A 
ATOM     26  C   UNL     1       4.910   4.111  16.267  0.00  0.00    +0.000 A 
ATOM     27  C   UNL     1       6.043   4.314  15.470  0.00  0.00    +0.000 A 
ATOM     28  C   UNL     1       6.938   5.330  15.783  0.00  0.00    +0.000 A 
ATOM     29  C   UNL     1       6.692   6.136  16.884  0.00  0.00    +0.000 A 
ATOM     30  F   UNL     1       7.554   7.112  17.196  0.00  0.00    +0.000 F 
ATOM     31  C   UNL     1       5.561   5.949  17.672  0.00  0.00    +0.000 A 
ENDBRANCH  23  25
ENDBRANCH  17  21
ENDBRANCH   1  17
TORSDOF 8
ENDMDL
MODEL 8
REMARK VINA RESULT:      -8.1      4.780      6.914
REMARK  Name = 
REMARK  10 active torsions:
REMARK  status: ('A' for Active; 'I' for Inactive)
REMARK    1  A    between atoms: C_1  and  C_2
REMARK    2  A    between atoms: C_4  and  C_5
REMARK    3  A    between atoms: C_5  and  N_6
REMARK    4  A    between atoms: N_6  and  C_7
REMARK    5  A    between atoms: C_12  and  O_13
REMARK    6  A    between atoms: O_13  and  C_14
REMARK    7  A    between atoms: C_14  and  C_15
REMARK    8  A    between atoms: C_15  and  O_17
REMARK    9  A    between atoms: C_18  and  C_19
REMARK   10  A    between atoms: C_21  and  C_22
REMARK                            x       y       z     vdW  Elec       q    Type
REMARK                         _______ _______ _______ _____ _____    ______ ____
ROOT
ATOM      1  N   UNL     1       1.947   7.937  20.938  0.00  0.00    +0.000 N 
ATOM      2  H   UNL     1       2.573   7.944  20.138  0.00  0.00    +0.000 HD
ENDROOT
BRANCH   1   3
ATOM      3  C   UNL     1       1.067   9.059  20.903  0.00  0.00    +0.000 A 
ATOM      4  C   UNL     1       0.479   9.598  22.072  0.00  0.00    +0.000 A 
ATOM      5  F   UNL     1       0.703   9.073  23.287  0.00  0.00    +0.000 F 
ATOM      6  C   UNL     1      -0.384  10.675  22.042  0.00  0.00    +0.000 A 
ATOM      7  C   UNL     1      -0.633  11.314  20.843  0.00  0.00    +0.000 A 
ATOM      8  C   UNL     1       0.015  10.913  19.665  0.00  0.00    +0.000 A 
ATOM      9  C   UNL     1       0.817   9.736  19.667  0.00  0.00    +0.000 A 
ATOM     10  C   UNL     1       1.463   9.255  18.388  0.00  0.00    +0.000 C 
BRANCH   8  11
ATOM     11  O   UNL     1      -0.085  11.661  18.498  0.00  0.00    +0.000 OA
BRANCH  11  12
ATOM     12  C   UNL     1       0.294  13.037  18.666  0.00  0.00    +0.000 C 
BRANCH  12  13
ATOM     13  C   UNL     1       1.741  13.376  18.347  0.00  0.00    +0.000 C 
ATOM     14  O   UNL     1       2.562  12.541  17.996  0.00  0.00    +0.000 OA
BRANCH  13  15
ATOM     15  O   UNL     1       2.041  14.683  18.503  0.00  0.00    +0.000 OA
ATOM     16  H   UNL     1       3.001  14.796  18.667  0.00  0.00    +0.000 HD
ENDBRANCH  13  15
ENDBRANCH  12  13
ENDBRANCH  11  12
ENDBRANCH   8  11
ENDBRANCH   1   3
BRANCH   1  17
ATOM     17  C   UNL     1       1.318   6.623  21.119  0.00  0.00    +0.000 C 
BRANCH  17  21
ATOM     18  C   UNL     1       0.674   2.132  18.964  0.00  0.00    +0.000 C 
ATOM     19  C   UNL     1       1.514   3.355  19.188  0.00  0.00    +0.000 A 
ATOM     20  C   UNL     1       1.045   4.414  19.966  0.00  0.00    +0.000 A 
ATOM     21  C   UNL     1       1.834   5.554  20.188  0.00  0.00    +0.000 A 
ATOM     22  C   UNL     1       3.124   5.598  19.648  0.00  0.00    +0.000 A 
ATOM     23  C   UNL     1       3.622   4.565  18.833  0.00  0.00    +0.000 A 
ATOM     24  C   UNL     1       2.789   3.450  18.615  0.00  0.00    +0.000 A 
BRANCH  23  25
ATOM     25  C   UNL     1       4.972   4.654  18.231  0.00  0.00    +0.000 A 
ATOM     26  C   UNL     1       5.238   4.174  16.934  0.00  0.00    +0.000 A 
ATOM     27  C   UNL     1       6.513   4.275  16.364  0.00  0.00    +0.000 A 
ATOM     28  C   UNL     1       7.553   4.846  17.088  0.00  0.00    +0.000 A 
ATOM     29  C   UNL     1       7.310   5.314  18.370  0.00  0.00    +0.000 A 
ATOM     30  F   UNL     1       8.311   5.857  19.076  0.00  0.00    +0.000 F 
ATOM     31  C   UNL     1       6.043   5.229  18.938  0.00  0.00    +0.000 A 
ENDBRANCH  23  25
ENDBRANCH  17  21
ENDBRANCH   1  17
TORSDOF 8
ENDMDL
MODEL 9
REMARK VINA RESULT:      -8.1      4.963      7.084
REMARK  Name = 
REMARK  10 active torsions:
REMARK  status: ('A' for Active; 'I' for Inactive)
REMARK    1  A    between atoms: C_1  and  C_2
REMARK    2  A    between atoms: C_4  and  C_5
REMARK    3  A    between atoms: C_5  and  N_6
REMARK    4  A    between atoms: N_6  and  C_7
REMARK    5  A    between atoms: C_12  and  O_13
REMARK    6  A    between atoms: O_13  and  C_14
REMARK    7  A    between atoms: C_14  and  C_15
REMARK    8  A    between atoms: C_15  and  O_17
REMARK    9  A    between atoms: C_18  and  C_19
REMARK   10  A    between atoms: C_21  and  C_22
REMARK                            x       y       z     vdW  Elec       q    Type
REMARK                         _______ _______ _______ _____ _____    ______ ____
ROOT
ATOM      1  N   UNL     1       2.170   7.752  20.776  0.00  0.00    +0.000 N 
ATOM      2  H   UNL     1       3.094   7.663  20.361  0.00  0.00    +0.000 HD
ENDROOT
BRANCH   1   3
ATOM      3  C   UNL     1       1.419   8.777  20.128  0.00  0.00    +0.000 A 
ATOM      4  C   UNL     1       1.433   8.953  18.725  0.00  0.00    +0.000 A 
ATOM      5  F   UNL     1       2.170   8.174  17.917  0.00  0.00    +0.000 F 
ATOM      6  C   UNL     1       0.720   9.953  18.093  0.00  0.00    +0.000 A 
ATOM      7  C   UNL     1      -0.108  10.771  18.837  0.00  0.00    +0.000 A 
ATOM      8  C   UNL     1      -0.269  10.570  20.216  0.00  0.00    +0.000 A 
ATOM      9  C   UNL     1       0.548   9.618  20.889  0.00  0.00    +0.000 A 
ATOM     10  C   UNL     1       0.432   9.443  22.387  0.00  0.00    +0.000 C 
BRANCH   8  11
ATOM     11  O   UNL     1      -1.234  11.265  20.936  0.00  0.00    +0.000 OA
BRANCH  11  12
ATOM     12  C   UNL     1      -1.915  12.266  20.162  0.00  0.00    +0.000 C 
BRANCH  12  13
ATOM     13  C   UNL     1      -3.267  12.717  20.692  0.00  0.00    +0.000 C 
ATOM     14  O   UNL     1      -3.593  12.615  21.865  0.00  0.00    +0.000 OA
BRANCH  13  15
ATOM     15  O   UNL     1      -4.081  13.225  19.743  0.00  0.00    +0.000 OA
ATOM     16  H   UNL     1      -4.120  14.203  19.814  0.00  0.00    +0.000 HD
ENDBRANCH  13  15
ENDBRANCH  12  13
ENDBRANCH  11  12
ENDBRANCH   8  11
ENDBRANCH   1   3
BRANCH   1  17
ATOM     17  C   UNL     1       1.510   6.447  20.907  0.00  0.00    +0.000 C 
BRANCH  17  21
ATOM     18  C   UNL     1       0.762   1.982  18.732  0.00  0.00    +0.000 C 
ATOM     19  C   UNL     1       1.556   3.249  18.853  0.00  0.00    +0.000 A 
ATOM     20  C   UNL     1       1.169   4.256  19.738  0.00  0.00    +0.000 A 
ATOM     21  C   UNL     1       1.919   5.437  19.863  0.00  0.00    +0.000 A 
ATOM     22  C   UNL     1       3.091   5.576  19.112  0.00  0.00    +0.000 A 
ATOM     23  C   UNL     1       3.499   4.597  18.187  0.00  0.00    +0.000 A 
ATOM     24  C   UNL     1       2.706   3.438  18.074  0.00  0.00    +0.000 A 
BRANCH  23  25
ATOM     25  C   UNL     1       4.716   4.787  17.367  0.00  0.00    +0.000 A 
ATOM     26  C   UNL     1       5.031   3.926  16.297  0.00  0.00    +0.000 A 
ATOM     27  C   UNL     1       6.176   4.119  15.515  0.00  0.00    +0.000 A 
ATOM     28  C   UNL     1       7.039   5.172  15.797  0.00  0.00    +0.000 A 
ATOM     29  C   UNL     1       6.750   6.022  16.853  0.00  0.00    +0.000 A 
ATOM     30  F   UNL     1       7.582   7.033  17.136  0.00  0.00    +0.000 F 
ATOM     31  C   UNL     1       5.607   5.844  17.626  0.00  0.00    +0.000 A 
ENDBRANCH  23  25
ENDBRANCH  17  21
ENDBRANCH   1  17
TORSDOF 8
ENDMDL
