MODEL 1
REMARK VINA RESULT:      -7.4      0.000      0.000
REMARK  Name = 
REMARK  10 active torsions:
REMARK  status: ('A' for Active; 'I' for Inactive)
REMARK    1  A    between atoms: C_1  and  C_2
REMARK    2  A    between atoms: C_2  and  C_3
REMARK    3  A    between atoms: C_2  and  C_4
REMARK    4  A    between atoms: C_4  and  C_5
REMARK    5  A    between atoms: C_5  and  N_6
REMARK    6  A    between atoms: C_7  and  C_9
REMARK    7  A    between atoms: C_12  and  C_13
REMARK    8  A    between atoms: C_13  and  N_14
REMARK    9  A    between atoms: N_14  and  S_15
REMARK   10  A    between atoms: S_15  and  C_18
REMARK                            x       y       z     vdW  Elec       q    Type
REMARK                         _______ _______ _______ _____ _____    ______ ____
ROOT
ATOM      1  C   UNL     1       5.395   5.783  16.095  0.00  0.00    +0.000 C 
ATOM      2  C   UNL     1       4.542   4.594  16.562  0.00  0.00    +0.000 C 
ATOM      3  C   UNL     1       5.283   3.712  17.567  0.00  0.00    +0.000 C 
ATOM      4  C   UNL     1       5.772   4.500  18.791  0.00  0.00    +0.000 C 
ATOM      5  C   UNL     1       6.663   5.665  18.325  0.00  0.00    +0.000 C 
ATOM      6  C   UNL     1       5.981   6.560  17.286  0.00  0.00    +0.000 C 
ENDROOT
BRANCH   1   8
ATOM      7  N   UNL     1       6.066   4.394  14.197  0.00  0.00    +0.000 N 
ATOM      8  C   UNL     1       6.484   5.335  15.114  0.00  0.00    +0.000 C 
ATOM      9  O   UNL     1       7.629   5.772  15.137  0.00  0.00    +0.000 OA
ATOM     10  H   UNL     1       5.109   4.066  14.215  0.00  0.00    +0.000 HD
BRANCH   7  11
ATOM     11  C   UNL     1       6.981   3.804  13.242  0.00  0.00    +0.000 C 
BRANCH  11  12
ATOM     12  C   UNL     1       6.358   3.639  11.851  0.00  0.00    +0.000 C 
BRANCH  12  14
ATOM     13  C   UNL     1       4.042   3.082  10.949  0.00  0.00    +0.000 C 
ATOM     14  C   UNL     1       5.232   2.589  11.772  0.00  0.00    +0.000 C 
ATOM     15  C   UNL     1       5.759   1.282  11.170  0.00  0.00    +0.000 C 
ENDBRANCH  12  14
ENDBRANCH  11  12
ENDBRANCH   7  11
ENDBRANCH   1   8
BRANCH   4  16
ATOM     16  C   UNL     1       4.626   5.024  19.679  0.00  0.00    +0.000 C 
BRANCH  16  17
ATOM     17  N   UNL     1       3.667   3.952  19.986  0.00  0.00    +0.000 NA
ATOM     18  H   UNL     1       3.855   3.387  20.816  0.00  0.00    +0.000 HD
BRANCH  17  19
ATOM     19  S   UNL     1       2.029   4.356  19.921  0.00  0.00    +0.000 S 
ATOM     20  O   UNL     1       1.497   3.683  18.754  0.00  0.00    +0.000 OA
ATOM     21  O   UNL     1       1.468   4.154  21.240  0.00  0.00    +0.000 OA
BRANCH  19  22
ATOM     22  C   UNL     1       2.028   6.097  19.564  0.00  0.00    +0.000 A 
ATOM     23  C   UNL     1       2.335   6.544  18.274  0.00  0.00    +0.000 A 
ATOM     24  C   UNL     1       2.219   7.905  17.972  0.00  0.00    +0.000 A 
ATOM     25  C   UNL     1       1.794   8.804  18.951  0.00  0.00    +0.000 A 
ATOM     26 CL   UNL     1       1.612  10.471  18.563  0.00  0.00    +0.000 Cl
ATOM     27  C   UNL     1       1.496   8.358  20.239  0.00  0.00    +0.000 A 
ATOM     28  C   UNL     1       1.614   7.002  20.550  0.00  0.00    +0.000 A 
ENDBRANCH  19  22
ENDBRANCH  17  19
ENDBRANCH  16  17
ENDBRANCH   4  16
TORSDOF 8
ENDMDL
MODEL 2
REMARK VINA RESULT:      -7.2      3.237      5.700
REMARK  Name = 
REMARK  10 active torsions:
REMARK  status: ('A' for Active; 'I' for Inactive)
REMARK    1  A    between atoms: C_1  and  C_2
REMARK    2  A    between atoms: C_2  and  C_3
REMARK    3  A    between atoms: C_2  and  C_4
REMARK    4  A    between atoms: C_4  and  C_5
REMARK    5  A    between atoms: C_5  and  N_6
REMARK    6  A    between atoms: C_7  and  C_9
REMARK    7  A    between atoms: C_12  and  C_13
REMARK    8  A    between atoms: C_13  and  N_14
REMARK    9  A    between atoms: N_14  and  S_15
REMARK   10  A    between atoms: S_15  and  C_18
REMARK                            x       y       z     vdW  Elec       q    Type
REMARK                         _______ _______ _______ _____ _____    ______ ____
ROOT
ATOM      1  C   UNL     1       5.851   6.867  17.560  0.00  0.00    +0.000 C 
ATOM      2  C   UNL     1       5.126   6.512  16.252  0.00  0.00    +0.000 C 
ATOM      3  C   UNL     1       5.770   5.323  15.539  0.00  0.00    +0.000 C 
ATOM      4  C   UNL     1       5.851   4.076  16.431  0.00  0.00    +0.000 C 
ATOM      5  C   UNL     1       6.618   4.420  17.720  0.00  0.00    +0.000 C 
ATOM      6  C   UNL     1       6.035   5.631  18.457  0.00  0.00    +0.000 C 
ENDROOT
BRANCH   1   8
ATOM      7  N   UNL     1       7.346   8.759  17.966  0.00  0.00    +0.000 N 
ATOM      8  C   UNL     1       7.182   7.574  17.282  0.00  0.00    +0.000 C 
ATOM      9  O   UNL     1       8.032   7.128  16.519  0.00  0.00    +0.000 OA
ATOM     10  H   UNL     1       6.617   9.083  18.589  0.00  0.00    +0.000 HD
BRANCH   7  11
ATOM     11  C   UNL     1       8.511   9.596  17.770  0.00  0.00    +0.000 C 
BRANCH  11  12
ATOM     12  C   UNL     1       9.181   9.996  19.090  0.00  0.00    +0.000 C 
BRANCH  12  14
ATOM     13  C   UNL     1      10.495  11.731  20.414  0.00  0.00    +0.000 C 
ATOM     14  C   UNL     1       9.774  11.419  19.102  0.00  0.00    +0.000 C 
ATOM     15  C   UNL     1      10.746  11.606  17.932  0.00  0.00    +0.000 C 
ENDBRANCH  12  14
ENDBRANCH  11  12
ENDBRANCH   7  11
ENDBRANCH   1   8
BRANCH   4  16
ATOM     16  C   UNL     1       4.473   3.476  16.771  0.00  0.00    +0.000 C 
BRANCH  16  17
ATOM     17  N   UNL     1       4.542   2.653  17.987  0.00  0.00    +0.000 NA
ATOM     18  H   UNL     1       5.398   2.717  18.541  0.00  0.00    +0.000 HD
BRANCH  17  19
ATOM     19  S   UNL     1       3.194   2.681  19.002  0.00  0.00    +0.000 S 
ATOM     20  O   UNL     1       2.160   1.935  18.314  0.00  0.00    +0.000 OA
ATOM     21  O   UNL     1       3.633   2.325  20.334  0.00  0.00    +0.000 OA
BRANCH  19  22
ATOM     22  C   UNL     1       2.692   4.386  19.006  0.00  0.00    +0.000 A 
ATOM     23  C   UNL     1       2.946   5.184  20.127  0.00  0.00    +0.000 A 
ATOM     24  C   UNL     1       2.654   6.551  20.078  0.00  0.00    +0.000 A 
ATOM     25  C   UNL     1       2.121   7.110  18.916  0.00  0.00    +0.000 A 
ATOM     26 CL   UNL     1       1.802   8.800  18.846  0.00  0.00    +0.000 Cl
ATOM     27  C   UNL     1       1.861   6.312  17.802  0.00  0.00    +0.000 A 
ATOM     28  C   UNL     1       2.145   4.945  17.845  0.00  0.00    +0.000 A 
ENDBRANCH  19  22
ENDBRANCH  17  19
ENDBRANCH  16  17
ENDBRANCH   4  16
TORSDOF 8
ENDMDL
MODEL 3
REMARK VINA RESULT:      -7.2      0.756      1.071
REMARK  Name = 
REMARK  10 active torsions:
REMARK  status: ('A' for Active; 'I' for Inactive)
REMARK    1  A    between atoms: C_1  and  C_2
REMARK    2  A    between atoms: C_2  and  C_3
REMARK    3  A    between atoms: C_2  and  C_4
REMARK    4  A    between atoms: C_4  and  C_5
REMARK    5  A    between atoms: C_5  and  N_6
REMARK    6  A    between atoms: C_7  and  C_9
REMARK    7  A    between atoms: C_12  and  C_13
REMARK    8  A    between atoms: C_13  and  N_14
REMARK    9  A    between atoms: N_14  and  S_15
REMARK   10  A    between atoms: S_15  and  C_18
REMARK                            x       y       z     vdW  Elec       q    Type
REMARK                         _______ _______ _______ _____ _____    ______ ____
ROOT
ATOM      1  C   UNL     1       5.284   5.528  15.818  0.00  0.00    +0.000 C 
ATOM      2  C   UNL     1       4.281   4.458  16.275  0.00  0.00    +0.000 C 
ATOM      3  C   UNL     1       4.929   3.404  17.172  0.00  0.00    +0.000 C 
ATOM      4  C   UNL     1       5.613   4.020  18.402  0.00  0.00    +0.000 C 
ATOM      5  C   UNL     1       6.651   5.058  17.942  0.00  0.00    +0.000 C 
ATOM      6  C   UNL     1       6.060   6.119  17.007  0.00  0.00    +0.000 C 
ENDROOT
BRANCH   1   8
ATOM      7  N   UNL     1       5.597   4.219  13.776  0.00  0.00    +0.000 N 
ATOM      8  C   UNL     1       6.224   4.982  14.737  0.00  0.00    +0.000 C 
ATOM      9  O   UNL     1       7.430   5.202  14.724  0.00  0.00    +0.000 OA
ATOM     10  H   UNL     1       4.598   4.068  13.828  0.00  0.00    +0.000 HD
BRANCH   7  11
ATOM     11  C   UNL     1       6.341   3.563  12.720  0.00  0.00    +0.000 C 
BRANCH  11  12
ATOM     12  C   UNL     1       5.517   2.496  11.990  0.00  0.00    +0.000 C 
BRANCH  12  14
ATOM     13  C   UNL     1       7.815   1.956  11.033  0.00  0.00    +0.000 C 
ATOM     14  C   UNL     1       6.320   1.636  10.994  0.00  0.00    +0.000 C 
ATOM     15  C   UNL     1       6.113   0.145  11.284  0.00  0.00    +0.000 C 
ENDBRANCH  12  14
ENDBRANCH  11  12
ENDBRANCH   7  11
ENDBRANCH   1   8
BRANCH   4  16
ATOM     16  C   UNL     1       4.623   4.655  19.398  0.00  0.00    +0.000 C 
BRANCH  16  17
ATOM     17  N   UNL     1       3.360   3.904  19.435  0.00  0.00    +0.000 NA
ATOM     18  H   UNL     1       3.422   2.903  19.627  0.00  0.00    +0.000 HD
BRANCH  17  19
ATOM     19  S   UNL     1       2.097   4.585  20.326  0.00  0.00    +0.000 S 
ATOM     20  O   UNL     1       0.883   3.968  19.833  0.00  0.00    +0.000 OA
ATOM     21  O   UNL     1       2.464   4.536  21.725  0.00  0.00    +0.000 OA
BRANCH  19  22
ATOM     22  C   UNL     1       2.068   6.284  19.805  0.00  0.00    +0.000 A 
ATOM     23  C   UNL     1       2.427   6.615  18.494  0.00  0.00    +0.000 A 
ATOM     24  C   UNL     1       2.291   7.938  18.057  0.00  0.00    +0.000 A 
ATOM     25  C   UNL     1       1.793   8.912  18.925  0.00  0.00    +0.000 A 
ATOM     26 CL   UNL     1       1.587  10.528  18.371  0.00  0.00    +0.000 Cl
ATOM     27  C   UNL     1       1.443   8.580  20.234  0.00  0.00    +0.000 A 
ATOM     28  C   UNL     1       1.582   7.263  20.679  0.00  0.00    +0.000 A 
ENDBRANCH  19  22
ENDBRANCH  17  19
ENDBRANCH  16  17
ENDBRANCH   4  16
TORSDOF 8
ENDMDL
MODEL 4
REMARK VINA RESULT:      -7.1      1.165      1.975
REMARK  Name = 
REMARK  10 active torsions:
REMARK  status: ('A' for Active; 'I' for Inactive)
REMARK    1  A    between atoms: C_1  and  C_2
REMARK    2  A    between atoms: C_2  and  C_3
REMARK    3  A    between atoms: C_2  and  C_4
REMARK    4  A    between atoms: C_4  and  C_5
REMARK    5  A    between atoms: C_5  and  N_6
REMARK    6  A    between atoms: C_7  and  C_9
REMARK    7  A    between atoms: C_12  and  C_13
REMARK    8  A    between atoms: C_13  and  N_14
REMARK    9  A    between atoms: N_14  and  S_15
REMARK   10  A    between atoms: S_15  and  C_18
REMARK                            x       y       z     vdW  Elec       q    Type
REMARK                         _______ _______ _______ _____ _____    ______ ____
ROOT
ATOM      1  C   UNL     1       7.006   4.241  16.209  0.00  0.00    +0.000 C 
ATOM      2  C   UNL     1       7.311   5.258  17.319  0.00  0.00    +0.000 C 
ATOM      3  C   UNL     1       6.250   6.355  17.405  0.00  0.00    +0.000 C 
ATOM      4  C   UNL     1       4.836   5.790  17.606  0.00  0.00    +0.000 C 
ATOM      5  C   UNL     1       4.513   4.806  16.468  0.00  0.00    +0.000 C 
ATOM      6  C   UNL     1       5.568   3.705  16.314  0.00  0.00    +0.000 C 
ENDROOT
BRANCH   1   8
ATOM      7  N   UNL     1       6.693   4.150  13.786  0.00  0.00    +0.000 N 
ATOM      8  C   UNL     1       7.297   4.827  14.823  0.00  0.00    +0.000 C 
ATOM      9  O   UNL     1       8.004   5.813  14.647  0.00  0.00    +0.000 OA
ATOM     10  H   UNL     1       6.114   3.344  13.982  0.00  0.00    +0.000 HD
BRANCH   7  11
ATOM     11  C   UNL     1       6.916   4.521  12.404  0.00  0.00    +0.000 C 
BRANCH  11  12
ATOM     12  C   UNL     1       6.870   3.319  11.454  0.00  0.00    +0.000 C 
BRANCH  12  14
ATOM     13  C   UNL     1       4.374   2.873  11.206  0.00  0.00    +0.000 C 
ATOM     14  C   UNL     1       5.712   2.336  11.718  0.00  0.00    +0.000 C 
ATOM     15  C   UNL     1       5.998   0.980  11.064  0.00  0.00    +0.000 C 
ENDBRANCH  12  14
ENDBRANCH  11  12
ENDBRANCH   7  11
ENDBRANCH   1   8
BRANCH   4  16
ATOM     16  C   UNL     1       4.638   5.111  18.976  0.00  0.00    +0.000 C 
BRANCH  16  17
ATOM     17  N   UNL     1       3.914   5.995  19.901  0.00  0.00    +0.000 NA
ATOM     18  H   UNL     1       4.243   6.959  19.973  0.00  0.00    +0.000 HD
BRANCH  17  19
ATOM     19  S   UNL     1       2.227   5.964  19.817  0.00  0.00    +0.000 S 
ATOM     20  O   UNL     1       1.900   5.171  18.651  0.00  0.00    +0.000 OA
ATOM     21  O   UNL     1       1.723   5.632  21.132  0.00  0.00    +0.000 OA
BRANCH  19  22
ATOM     22  C   UNL     1       1.784   7.645  19.446  0.00  0.00    +0.000 A 
ATOM     23  C   UNL     1       1.208   8.448  20.438  0.00  0.00    +0.000 A 
ATOM     24  C   UNL     1       0.969   9.801  20.173  0.00  0.00    +0.000 A 
ATOM     25  C   UNL     1       1.310  10.341  18.932  0.00  0.00    +0.000 A 
ATOM     26 CL   UNL     1       1.054  12.015  18.626  0.00  0.00    +0.000 Cl
ATOM     27  C   UNL     1       1.877   9.537  17.943  0.00  0.00    +0.000 A 
ATOM     28  C   UNL     1       2.114   8.184  18.197  0.00  0.00    +0.000 A 
ENDBRANCH  19  22
ENDBRANCH  17  19
ENDBRANCH  16  17
ENDBRANCH   4  16
TORSDOF 8
ENDMDL
MODEL 5
REMARK VINA RESULT:      -7.0      3.744      5.996
REMARK  Name = 
REMARK  10 active torsions:
REMARK  status: ('A' for Active; 'I' for Inactive)
REMARK    1  A    between atoms: C_1  and  C_2
REMARK    2  A    between atoms: C_2  and  C_3
REMARK    3  A    between atoms: C_2  and  C_4
REMARK    4  A    between atoms: C_4  and  C_5
REMARK    5  A    between atoms: C_5  and  N_6
REMARK    6  A    between atoms: C_7  and  C_9
REMARK    7  A    between atoms: C_12  and  C_13
REMARK    8  A    between atoms: C_13  and  N_14
REMARK    9  A    between atoms: N_14  and  S_15
REMARK   10  A    between atoms: S_15  and  C_18
REMARK                            x       y       z     vdW  Elec       q    Type
REMARK                         _______ _______ _______ _____ _____    ______ ____
ROOT
ATOM      1  C   UNL     1       6.765   7.187  17.210  0.00  0.00    +0.000 C 
ATOM      2  C   UNL     1       7.245   5.894  16.534  0.00  0.00    +0.000 C 
ATOM      3  C   UNL     1       7.285   4.714  17.506  0.00  0.00    +0.000 C 
ATOM      4  C   UNL     1       5.929   4.464  18.182  0.00  0.00    +0.000 C 
ATOM      5  C   UNL     1       5.471   5.747  18.899  0.00  0.00    +0.000 C 
ATOM      6  C   UNL     1       5.449   6.970  17.976  0.00  0.00    +0.000 C 
ENDROOT
BRANCH   1   8
ATOM      7  N   UNL     1       7.998   9.148  17.997  0.00  0.00    +0.000 N 
ATOM      8  C   UNL     1       7.857   7.782  18.108  0.00  0.00    +0.000 C 
ATOM      9  O   UNL     1       8.547   7.105  18.862  0.00  0.00    +0.000 OA
ATOM     10  H   UNL     1       7.401   9.664  17.363  0.00  0.00    +0.000 HD
BRANCH   7  11
ATOM     11  C   UNL     1       9.027   9.868  18.717  0.00  0.00    +0.000 C 
BRANCH  11  12
ATOM     12  C   UNL     1       9.215  11.301  18.205  0.00  0.00    +0.000 C 
BRANCH  12  14
ATOM     13  C   UNL     1      10.796  13.064  17.264  0.00  0.00    +0.000 C 
ATOM     14  C   UNL     1      10.683  11.709  17.966  0.00  0.00    +0.000 C 
ATOM     15  C   UNL     1      11.449  11.760  19.293  0.00  0.00    +0.000 C 
ENDBRANCH  12  14
ENDBRANCH  11  12
ENDBRANCH   7  11
ENDBRANCH   1   8
BRANCH   4  16
ATOM     16  C   UNL     1       4.840   3.976  17.206  0.00  0.00    +0.000 C 
BRANCH  16  17
ATOM     17  N   UNL     1       4.484   2.575  17.473  0.00  0.00    +0.000 NA
ATOM     18  H   UNL     1       5.157   2.019  18.003  0.00  0.00    +0.000 HD
BRANCH  17  19
ATOM     19  S   UNL     1       2.921   2.284  18.042  0.00  0.00    +0.000 S 
ATOM     20  O   UNL     1       2.090   2.129  16.866  0.00  0.00    +0.000 OA
ATOM     21  O   UNL     1       3.002   1.257  19.059  0.00  0.00    +0.000 OA
BRANCH  19  22
ATOM     22  C   UNL     1       2.450   3.814  18.814  0.00  0.00    +0.000 A 
ATOM     23  C   UNL     1       2.591   3.967  20.198  0.00  0.00    +0.000 A 
ATOM     24  C   UNL     1       2.329   5.211  20.782  0.00  0.00    +0.000 A 
ATOM     25  C   UNL     1       1.938   6.288  19.985  0.00  0.00    +0.000 A 
ATOM     26 CL   UNL     1       1.657   7.827  20.702  0.00  0.00    +0.000 Cl
ATOM     27  C   UNL     1       1.790   6.131  18.607  0.00  0.00    +0.000 A 
ATOM     28  C   UNL     1       2.045   4.891  18.017  0.00  0.00    +0.000 A 
ENDBRANCH  19  22
ENDBRANCH  17  19
ENDBRANCH  16  17
ENDBRANCH   4  16
TORSDOF 8
ENDMDL
MODEL 6
REMARK VINA RESULT:      -7.0      3.256      5.083
REMARK  Name = 
REMARK  10 active torsions:
REMARK  status: ('A' for Active; 'I' for Inactive)
REMARK    1  A    between atoms: C_1  and  C_2
REMARK    2  A    between atoms: C_2  and  C_3
REMARK    3  A    between atoms: C_2  and  C_4
REMARK    4  A    between atoms: C_4  and  C_5
REMARK    5  A    between atoms: C_5  and  N_6
REMARK    6  A    between atoms: C_7  and  C_9
REMARK    7  A    between atoms: C_12  and  C_13
REMARK    8  A    between atoms: C_13  and  N_14
REMARK    9  A    between atoms: N_14  and  S_15
REMARK   10  A    between atoms: S_15  and  C_18
REMARK                            x       y       z     vdW  Elec       q    Type
REMARK                         _______ _______ _______ _____ _____    ______ ____
ROOT
ATOM      1  C   UNL     1       2.522   4.659  17.631  0.00  0.00    +0.000 C 
ATOM      2  C   UNL     1       1.850   3.987  18.838  0.00  0.00    +0.000 C 
ATOM      3  C   UNL     1       2.591   4.273  20.144  0.00  0.00    +0.000 C 
ATOM      4  C   UNL     1       2.742   5.777  20.417  0.00  0.00    +0.000 C 
ATOM      5  C   UNL     1       3.457   6.442  19.227  0.00  0.00    +0.000 C 
ATOM      6  C   UNL     1       2.775   6.155  17.885  0.00  0.00    +0.000 C 
ENDROOT
BRANCH   1   8
ATOM      7  N   UNL     1       4.800   4.746  16.745  0.00  0.00    +0.000 N 
ATOM      8  C   UNL     1       3.806   3.923  17.229  0.00  0.00    +0.000 C 
ATOM      9  O   UNL     1       3.942   2.709  17.329  0.00  0.00    +0.000 OA
ATOM     10  H   UNL     1       4.642   5.743  16.686  0.00  0.00    +0.000 HD
BRANCH   7  11
ATOM     11  C   UNL     1       6.054   4.215  16.251  0.00  0.00    +0.000 C 
BRANCH  11  12
ATOM     12  C   UNL     1       7.240   4.554  17.161  0.00  0.00    +0.000 C 
BRANCH  12  14
ATOM     13  C   UNL     1       7.790   5.687  19.376  0.00  0.00    +0.000 C 
ATOM     14  C   UNL     1       7.029   5.794  18.054  0.00  0.00    +0.000 C 
ATOM     15  C   UNL     1       7.465   7.065  17.318  0.00  0.00    +0.000 C 
ENDBRANCH  12  14
ENDBRANCH  11  12
ENDBRANCH   7  11
ENDBRANCH   1   8
BRANCH   4  16
ATOM     16  C   UNL     1       1.403   6.484  20.702  0.00  0.00    +0.000 C 
BRANCH  16  17
ATOM     17  N   UNL     1       1.553   7.945  20.624  0.00  0.00    +0.000 NA
ATOM     18  H   UNL     1       1.544   8.362  19.691  0.00  0.00    +0.000 HD
BRANCH  17  19
ATOM     19  S   UNL     1       0.604   8.864  21.676  0.00  0.00    +0.000 S 
ATOM     20  O   UNL     1      -0.645   8.144  21.819  0.00  0.00    +0.000 OA
ATOM     21  O   UNL     1       1.419   9.213  22.819  0.00  0.00    +0.000 OA
BRANCH  19  22
ATOM     22  C   UNL     1       0.249  10.343  20.757  0.00  0.00    +0.000 A 
ATOM     23  C   UNL     1      -0.579  11.325  21.311  0.00  0.00    +0.000 A 
ATOM     24  C   UNL     1      -0.759  12.536  20.633  0.00  0.00    +0.000 A 
ATOM     25  C   UNL     1      -0.110  12.758  19.417  0.00  0.00    +0.000 A 
ATOM     26 CL   UNL     1      -0.301  14.264  18.607  0.00  0.00    +0.000 Cl
ATOM     27  C   UNL     1       0.710  11.775  18.863  0.00  0.00    +0.000 A 
ATOM     28  C   UNL     1       0.890  10.561  19.531  0.00  0.00    +0.000 A 
ENDBRANCH  19  22
ENDBRANCH  17  19
ENDBRANCH  16  17
ENDBRANCH   4  16
TORSDOF 8
ENDMDL
MODEL 7
REMARK VINA RESULT:      -7.0      3.325      5.763
REMARK  Name = 
REMARK  10 active torsions:
REMARK  status: ('A' for Active; 'I' for Inactive)
REMARK    1  A    between atoms: C_1  and  C_2
REMARK    2  A    between atoms: C_2  and  C_3
REMARK    3  A    between atoms: C_2  and  C_4
REMARK    4  A    between atoms: C_4  and  C_5
REMARK    5  A    between atoms: C_5  and  N_6
REMARK    6  A    between atoms: C_7  and  C_9
REMARK    7  A    between atoms: C_12  and  C_13
REMARK    8  A    between atoms: C_13  and  N_14
REMARK    9  A    between atoms: N_14  and  S_15
REMARK   10  A    between atoms: S_15  and  C_18
REMARK                            x       y       z     vdW  Elec       q    Type
REMARK                         _______ _______ _______ _____ _____    ______ ____
ROOT
ATOM      1  C   UNL     1       6.884   6.179  18.200  0.00  0.00    +0.000 C 
ATOM      2  C   UNL     1       5.394   6.361  17.872  0.00  0.00    +0.000 C 
ATOM      3  C   UNL     1       5.086   6.068  16.403  0.00  0.00    +0.000 C 
ATOM      4  C   UNL     1       5.533   4.662  15.978  0.00  0.00    +0.000 C 
ATOM      5  C   UNL     1       7.036   4.497  16.264  0.00  0.00    +0.000 C 
ATOM      6  C   UNL     1       7.406   4.815  17.717  0.00  0.00    +0.000 C 
ENDROOT
BRANCH   1   8
ATOM      7  N   UNL     1       7.963   8.344  18.557  0.00  0.00    +0.000 N 
ATOM      8  C   UNL     1       7.719   7.339  17.647  0.00  0.00    +0.000 C 
ATOM      9  O   UNL     1       8.138   7.374  16.495  0.00  0.00    +0.000 OA
ATOM     10  H   UNL     1       7.600   8.268  19.499  0.00  0.00    +0.000 HD
BRANCH   7  11
ATOM     11  C   UNL     1       8.675   9.550  18.187  0.00  0.00    +0.000 C 
BRANCH  11  12
ATOM     12  C   UNL     1       9.456  10.159  19.358  0.00  0.00    +0.000 C 
BRANCH  12  14
ATOM     13  C   UNL     1      10.998  12.018  20.169  0.00  0.00    +0.000 C 
ATOM     14  C   UNL     1      10.001  11.577  19.095  0.00  0.00    +0.000 C 
ATOM     15  C   UNL     1      10.673  11.648  17.719  0.00  0.00    +0.000 C 
ENDBRANCH  12  14
ENDBRANCH  11  12
ENDBRANCH   7  11
ENDBRANCH   1   8
BRANCH   4  16
ATOM     16  C   UNL     1       4.731   3.534  16.655  0.00  0.00    +0.000 C 
BRANCH  16  17
ATOM     17  N   UNL     1       3.313   3.903  16.786  0.00  0.00    +0.000 NA
ATOM     18  H   UNL     1       2.695   3.642  16.015  0.00  0.00    +0.000 HD
BRANCH  17  19
ATOM     19  S   UNL     1       2.571   3.559  18.263  0.00  0.00    +0.000 S 
ATOM     20  O   UNL     1       1.266   3.022  17.939  0.00  0.00    +0.000 OA
ATOM     21  O   UNL     1       3.518   2.827  19.076  0.00  0.00    +0.000 OA
BRANCH  19  22
ATOM     22  C   UNL     1       2.309   5.157  18.995  0.00  0.00    +0.000 A 
ATOM     23  C   UNL     1       2.242   6.294  18.181  0.00  0.00    +0.000 A 
ATOM     24  C   UNL     1       1.920   7.530  18.752  0.00  0.00    +0.000 A 
ATOM     25  C   UNL     1       1.663   7.622  20.121  0.00  0.00    +0.000 A 
ATOM     26 CL   UNL     1       1.226   9.136  20.811  0.00  0.00    +0.000 Cl
ATOM     27  C   UNL     1       1.739   6.489  20.932  0.00  0.00    +0.000 A 
ATOM     28  C   UNL     1       2.065   5.252  20.371  0.00  0.00    +0.000 A 
ENDBRANCH  19  22
ENDBRANCH  17  19
ENDBRANCH  16  17
ENDBRANCH   4  16
TORSDOF 8
ENDMDL
MODEL 8
REMARK VINA RESULT:      -6.9      3.125      5.438
REMARK  Name = 
REMARK  10 active torsions:
REMARK  status: ('A' for Active; 'I' for Inactive)
REMARK    1  A    between atoms: C_1  and  C_2
REMARK    2  A    between atoms: C_2  and  C_3
REMARK    3  A    between atoms: C_2  and  C_4
REMARK    4  A    between atoms: C_4  and  C_5
REMARK    5  A    between atoms: C_5  and  N_6
REMARK    6  A    between atoms: C_7  and  C_9
REMARK    7  A    between atoms: C_12  and  C_13
REMARK    8  A    between atoms: C_13  and  N_14
REMARK    9  A    between atoms: N_14  and  S_15
REMARK   10  A    between atoms: S_15  and  C_18
REMARK                            x       y       z     vdW  Elec       q    Type
REMARK                         _______ _______ _______ _____ _____    ______ ____
ROOT
ATOM      1  C   UNL     1       5.747   6.958  17.327  0.00  0.00    +0.000 C 
ATOM      2  C   UNL     1       5.184   6.504  15.971  0.00  0.00    +0.000 C 
ATOM      3  C   UNL     1       5.773   5.168  15.519  0.00  0.00    +0.000 C 
ATOM      4  C   UNL     1       5.567   4.054  16.556  0.00  0.00    +0.000 C 
ATOM      5  C   UNL     1       6.172   4.490  17.902  0.00  0.00    +0.000 C 
ATOM      6  C   UNL     1       5.642   5.845  18.383  0.00  0.00    +0.000 C 
ENDROOT
BRANCH   1   8
ATOM      7  N   UNL     1       7.469   8.565  17.983  0.00  0.00    +0.000 N 
ATOM      8  C   UNL     1       7.182   7.477  17.186  0.00  0.00    +0.000 C 
ATOM      9  O   UNL     1       8.007   6.973  16.433  0.00  0.00    +0.000 OA
ATOM     10  H   UNL     1       6.756   8.943  18.592  0.00  0.00    +0.000 HD
BRANCH   7  11
ATOM     11  C   UNL     1       8.754   9.231  17.926  0.00  0.00    +0.000 C 
BRANCH  11  12
ATOM     12  C   UNL     1       8.651  10.738  18.188  0.00  0.00    +0.000 C 
BRANCH  12  14
ATOM     13  C   UNL     1       9.719  12.979  17.616  0.00  0.00    +0.000 C 
ATOM     14  C   UNL     1       9.967  11.515  17.983  0.00  0.00    +0.000 C 
ATOM     15  C   UNL     1      10.832  11.449  19.247  0.00  0.00    +0.000 C 
ENDBRANCH  12  14
ENDBRANCH  11  12
ENDBRANCH   7  11
ENDBRANCH   1   8
BRANCH   4  16
ATOM     16  C   UNL     1       4.089   3.653  16.736  0.00  0.00    +0.000 C 
BRANCH  16  17
ATOM     17  N   UNL     1       3.821   3.244  18.123  0.00  0.00    +0.000 NA
ATOM     18  H   UNL     1       4.470   3.578  18.838  0.00  0.00    +0.000 HD
BRANCH  17  19
ATOM     19  S   UNL     1       2.231   3.402  18.668  0.00  0.00    +0.000 S 
ATOM     20  O   UNL     1       1.392   3.285  17.493  0.00  0.00    +0.000 OA
ATOM     21  O   UNL     1       2.065   2.533  19.813  0.00  0.00    +0.000 OA
BRANCH  19  22
ATOM     22  C   UNL     1       2.129   5.090  19.216  0.00  0.00    +0.000 A 
ATOM     23  C   UNL     1       2.285   6.131  18.294  0.00  0.00    +0.000 A 
ATOM     24  C   UNL     1       2.088   7.453  18.710  0.00  0.00    +0.000 A 
ATOM     25  C   UNL     1       1.732   7.723  20.033  0.00  0.00    +0.000 A 
ATOM     26 CL   UNL     1       1.449   9.346  20.530  0.00  0.00    +0.000 Cl
ATOM     27  C   UNL     1       1.584   6.683  20.952  0.00  0.00    +0.000 A 
ATOM     28  C   UNL     1       1.784   5.362  20.545  0.00  0.00    +0.000 A 
ENDBRANCH  19  22
ENDBRANCH  17  19
ENDBRANCH  16  17
ENDBRANCH   4  16
TORSDOF 8
ENDMDL
MODEL 9
REMARK VINA RESULT:      -6.9      0.854      1.444
REMARK  Name = 
REMARK  10 active torsions:
REMARK  status: ('A' for Active; 'I' for Inactive)
REMARK    1  A    between atoms: C_1  and  C_2
REMARK    2  A    between atoms: C_2  and  C_3
REMARK    3  A    between atoms: C_2  and  C_4
REMARK    4  A    between atoms: C_4  and  C_5
REMARK    5  A    between atoms: C_5  and  N_6
REMARK    6  A    between atoms: C_7  and  C_9
REMARK    7  A    between atoms: C_12  and  C_13
REMARK    8  A    between atoms: C_13  and  N_14
REMARK    9  A    between atoms: N_14  and  S_15
REMARK   10  A    between atoms: S_15  and  C_18
REMARK                            x       y       z     vdW  Elec       q    Type
REMARK                         _______ _______ _______ _____ _____    ______ ____
ROOT
ATOM      1  C   UNL     1       6.788   4.216  16.503  0.00  0.00    +0.000 C 
ATOM      2  C   UNL     1       7.344   5.256  17.488  0.00  0.00    +0.000 C 
ATOM      3  C   UNL     1       6.520   6.544  17.493  0.00  0.00    +0.000 C 
ATOM      4  C   UNL     1       5.037   6.292  17.801  0.00  0.00    +0.000 C 
ATOM      5  C   UNL     1       4.469   5.285  16.786  0.00  0.00    +0.000 C 
ATOM      6  C   UNL     1       5.281   3.988  16.713  0.00  0.00    +0.000 C 
ENDROOT
BRANCH   1   8
ATOM      7  N   UNL     1       6.540   3.767  14.112  0.00  0.00    +0.000 N 
ATOM      8  C   UNL     1       7.111   4.596  15.053  0.00  0.00    +0.000 C 
ATOM      9  O   UNL     1       7.814   5.553  14.752  0.00  0.00    +0.000 OA
ATOM     10  H   UNL     1       5.963   2.991  14.410  0.00  0.00    +0.000 HD
BRANCH   7  11
ATOM     11  C   UNL     1       6.797   3.933  12.696  0.00  0.00    +0.000 C 
BRANCH  11  12
ATOM     12  C   UNL     1       5.516   4.158  11.885  0.00  0.00    +0.000 C 
BRANCH  12  14
ATOM     13  C   UNL     1       3.557   3.113  10.636  0.00  0.00    +0.000 C 
ATOM     14  C   UNL     1       4.663   2.892  11.669  0.00  0.00    +0.000 C 
ATOM     15  C   UNL     1       5.545   1.720  11.226  0.00  0.00    +0.000 C 
ENDBRANCH  12  14
ENDBRANCH  11  12
ENDBRANCH   7  11
ENDBRANCH   1   8
BRANCH   4  16
ATOM     16  C   UNL     1       4.786   5.802  19.241  0.00  0.00    +0.000 C 
BRANCH  16  17
ATOM     17  N   UNL     1       3.845   4.673  19.255  0.00  0.00    +0.000 NA
ATOM     18  H   UNL     1       4.197   3.782  19.610  0.00  0.00    +0.000 HD
BRANCH  17  19
ATOM     19  S   UNL     1       2.305   4.975  19.877  0.00  0.00    +0.000 S 
ATOM     20  O   UNL     1       1.383   4.236  19.039  0.00  0.00    +0.000 OA
ATOM     21  O   UNL     1       2.358   4.779  21.310  0.00  0.00    +0.000 OA
BRANCH  19  22
ATOM     22  C   UNL     1       2.038   6.701  19.550  0.00  0.00    +0.000 A 
ATOM     23  C   UNL     1       2.015   7.164  18.229  0.00  0.00    +0.000 A 
ATOM     24  C   UNL     1       1.690   8.500  17.974  0.00  0.00    +0.000 A 
ATOM     25  C   UNL     1       1.386   9.359  19.032  0.00  0.00    +0.000 A 
ATOM     26 CL   UNL     1       0.945  10.991  18.711  0.00  0.00    +0.000 Cl
ATOM     27  C   UNL     1       1.417   8.898  20.348  0.00  0.00    +0.000 A 
ATOM     28  C   UNL     1       1.746   7.566  20.611  0.00  0.00    +0.000 A 
ENDBRANCH  19  22
ENDBRANCH  17  19
ENDBRANCH  16  17
ENDBRANCH   4  16
TORSDOF 8
ENDMDL
