MODEL 1
REMARK VINA RESULT:      -6.8      0.000      0.000
REMARK  Name = 
REMARK  6 active torsions:
REMARK  status: ('A' for Active; 'I' for Inactive)
REMARK    1  A    between atoms: C_1  and  N_2
REMARK    2  A    between atoms: N_2  and  C_3
REMARK    3  A    between atoms: N_2  and  C_4
REMARK    4  A    between atoms: N_13  and  C_14
REMARK    5  A    between atoms: C_14  and  C_15
REMARK    6  A    between atoms: C_15  and  N_16
REMARK                            x       y       z     vdW  Elec       q    Type
REMARK                         _______ _______ _______ _____ _____    ______ ____
ROOT
ATOM      1  C   UNL     1       2.000   4.173  19.635  0.00  0.00    +0.000 A 
ATOM      2  N   UNL     1       1.748   5.369  20.254  0.00  0.00    +0.000 NA
ATOM      3  C   UNL     1       2.323   6.497  19.817  0.00  0.00    +0.000 A 
ATOM      4  N   UNL     1       2.020   7.666  20.491  0.00  0.00    +0.000 N 
ATOM      5  N   UNL     1       3.200   6.612  18.813  0.00  0.00    +0.000 NA
ATOM      6  C   UNL     1       3.423   5.444  18.199  0.00  0.00    +0.000 A 
ATOM      7  C   UNL     1       2.877   4.214  18.523  0.00  0.00    +0.000 A 
ATOM      8  N   UNL     1       3.334   3.245  17.645  0.00  0.00    +0.000 NA
ATOM      9  C   UNL     1       4.117   3.882  16.804  0.00  0.00    +0.000 A 
ATOM     10  N   UNL     1       4.235   5.210  17.120  0.00  0.00    +0.000 N 
ATOM     11  H   UNL     1       1.708   7.454  21.428  0.00  0.00    +0.000 HD
ATOM     12  H   UNL     1       2.772   8.331  20.387  0.00  0.00    +0.000 HD
ENDROOT
BRANCH   1  14
ATOM     13  C   UNL     1       1.602   2.649  21.502  0.00  0.00    +0.000 C 
ATOM     14  N   UNL     1       1.401   3.017  20.117  0.00  0.00    +0.000 N 
ATOM     15  C   UNL     1       0.577   2.203  19.246  0.00  0.00    +0.000 C 
ENDBRANCH   1  14
BRANCH  10  16
ATOM     16  C   UNL     1       5.035   6.162  16.376  0.00  0.00    +0.000 C 
BRANCH  16  17
ATOM     17  C   UNL     1       6.013   5.557  15.369  0.00  0.00    +0.000 C 
BRANCH  17  18
ATOM     18  N   UNL     1       7.395   5.727  15.847  0.00  0.00    +0.000 NA
ATOM     19  N   UNL     1       7.726   4.945  16.764  0.00  0.00    +0.000 NA
ATOM     20  N   UNL     1       8.016   4.222  17.591  0.00  0.00    +0.000 NA
ENDBRANCH  17  18
ENDBRANCH  16  17
ENDBRANCH  10  16
TORSDOF 4
ENDMDL
MODEL 2
REMARK VINA RESULT:      -6.8      0.854      1.314
REMARK  Name = 
REMARK  6 active torsions:
REMARK  status: ('A' for Active; 'I' for Inactive)
REMARK    1  A    between atoms: C_1  and  N_2
REMARK    2  A    between atoms: N_2  and  C_3
REMARK    3  A    between atoms: N_2  and  C_4
REMARK    4  A    between atoms: N_13  and  C_14
REMARK    5  A    between atoms: C_14  and  C_15
REMARK    6  A    between atoms: C_15  and  N_16
REMARK                            x       y       z     vdW  Elec       q    Type
REMARK                         _______ _______ _______ _____ _____    ______ ____
ROOT
ATOM      1  C   UNL     1       2.102   4.141  19.600  0.00  0.00    +0.000 A 
ATOM      2  N   UNL     1       1.799   5.363  20.140  0.00  0.00    +0.000 NA
ATOM      3  C   UNL     1       2.394   6.476  19.686  0.00  0.00    +0.000 A 
ATOM      4  N   UNL     1       2.036   7.672  20.278  0.00  0.00    +0.000 N 
ATOM      5  N   UNL     1       3.337   6.550  18.741  0.00  0.00    +0.000 NA
ATOM      6  C   UNL     1       3.611   5.356  18.203  0.00  0.00    +0.000 A 
ATOM      7  C   UNL     1       3.054   4.137  18.550  0.00  0.00    +0.000 A 
ATOM      8  N   UNL     1       3.578   3.131  17.756  0.00  0.00    +0.000 NA
ATOM      9  C   UNL     1       4.412   3.734  16.939  0.00  0.00    +0.000 A 
ATOM     10  N   UNL     1       4.497   5.078  17.196  0.00  0.00    +0.000 N 
ATOM     11  H   UNL     1       1.661   7.504  21.201  0.00  0.00    +0.000 HD
ATOM     12  H   UNL     1       2.788   8.340  20.193  0.00  0.00    +0.000 HD
ENDROOT
BRANCH   1  14
ATOM     13  C   UNL     1       1.683   2.645  21.484  0.00  0.00    +0.000 C 
ATOM     14  N   UNL     1       1.480   3.004  20.098  0.00  0.00    +0.000 N 
ATOM     15  C   UNL     1       0.632   2.201  19.240  0.00  0.00    +0.000 C 
ENDBRANCH   1  14
BRANCH  10  16
ATOM     16  C   UNL     1       5.339   6.000  16.462  0.00  0.00    +0.000 C 
BRANCH  16  17
ATOM     17  C   UNL     1       5.846   5.498  15.108  0.00  0.00    +0.000 C 
BRANCH  17  18
ATOM     18  N   UNL     1       7.297   5.261  15.173  0.00  0.00    +0.000 NA
ATOM     19  N   UNL     1       7.912   5.521  14.118  0.00  0.00    +0.000 NA
ATOM     20  N   UNL     1       8.460   5.770  13.154  0.00  0.00    +0.000 NA
ENDBRANCH  17  18
ENDBRANCH  16  17
ENDBRANCH  10  16
TORSDOF 4
ENDMDL
MODEL 3
REMARK VINA RESULT:      -6.8      0.697      1.337
REMARK  Name = 
REMARK  6 active torsions:
REMARK  status: ('A' for Active; 'I' for Inactive)
REMARK    1  A    between atoms: C_1  and  N_2
REMARK    2  A    between atoms: N_2  and  C_3
REMARK    3  A    between atoms: N_2  and  C_4
REMARK    4  A    between atoms: N_13  and  C_14
REMARK    5  A    between atoms: C_14  and  C_15
REMARK    6  A    between atoms: C_15  and  N_16
REMARK                            x       y       z     vdW  Elec       q    Type
REMARK                         _______ _______ _______ _____ _____    ______ ____
ROOT
ATOM      1  C   UNL     1       2.083   4.271  19.710  0.00  0.00    +0.000 A 
ATOM      2  N   UNL     1       1.756   5.442  20.343  0.00  0.00    +0.000 NA
ATOM      3  C   UNL     1       2.266   6.609  19.925  0.00  0.00    +0.000 A 
ATOM      4  N   UNL     1       1.889   7.748  20.611  0.00  0.00    +0.000 N 
ATOM      5  N   UNL     1       3.142   6.789  18.930  0.00  0.00    +0.000 NA
ATOM      6  C   UNL     1       3.439   5.645  18.303  0.00  0.00    +0.000 A 
ATOM      7  C   UNL     1       2.965   4.380  18.606  0.00  0.00    +0.000 A 
ATOM      8  N   UNL     1       3.485   3.452  17.719  0.00  0.00    +0.000 NA
ATOM      9  C   UNL     1       4.234   4.146  16.892  0.00  0.00    +0.000 A 
ATOM     10  N   UNL     1       4.270   5.474  17.227  0.00  0.00    +0.000 N 
ATOM     11  H   UNL     1       1.584   7.505  21.543  0.00  0.00    +0.000 HD
ATOM     12  H   UNL     1       2.601   8.458  20.522  0.00  0.00    +0.000 HD
ENDROOT
BRANCH   1  14
ATOM     13  C   UNL     1       0.661   2.325  19.314  0.00  0.00    +0.000 C 
ATOM     14  N   UNL     1       1.551   3.075  20.172  0.00  0.00    +0.000 N 
ATOM     15  C   UNL     1       1.897   2.584  21.491  0.00  0.00    +0.000 C 
ENDBRANCH   1  14
BRANCH  10  16
ATOM     16  C   UNL     1       5.017   6.482  16.502  0.00  0.00    +0.000 C 
BRANCH  16  17
ATOM     17  C   UNL     1       6.350   6.894  17.129  0.00  0.00    +0.000 C 
BRANCH  17  18
ATOM     18  N   UNL     1       7.380   5.886  16.826  0.00  0.00    +0.000 NA
ATOM     19  N   UNL     1       7.494   5.610  15.613  0.00  0.00    +0.000 NA
ATOM     20  N   UNL     1       7.592   5.375  14.505  0.00  0.00    +0.000 NA
ENDBRANCH  17  18
ENDBRANCH  16  17
ENDBRANCH  10  16
TORSDOF 4
ENDMDL
MODEL 4
REMARK VINA RESULT:      -6.7      0.686      1.078
REMARK  Name = 
REMARK  6 active torsions:
REMARK  status: ('A' for Active; 'I' for Inactive)
REMARK    1  A    between atoms: C_1  and  N_2
REMARK    2  A    between atoms: N_2  and  C_3
REMARK    3  A    between atoms: N_2  and  C_4
REMARK    4  A    between atoms: N_13  and  C_14
REMARK    5  A    between atoms: C_14  and  C_15
REMARK    6  A    between atoms: C_15  and  N_16
REMARK                            x       y       z     vdW  Elec       q    Type
REMARK                         _______ _______ _______ _____ _____    ______ ____
ROOT
ATOM      1  C   UNL     1       2.270   4.568  19.413  0.00  0.00    +0.000 A 
ATOM      2  N   UNL     1       1.932   5.859  19.721  0.00  0.00    +0.000 NA
ATOM      3  C   UNL     1       2.446   6.883  19.026  0.00  0.00    +0.000 A 
ATOM      4  N   UNL     1       2.056   8.158  19.393  0.00  0.00    +0.000 N 
ATOM      5  N   UNL     1       3.336   6.808  18.030  0.00  0.00    +0.000 NA
ATOM      6  C   UNL     1       3.645   5.544  17.721  0.00  0.00    +0.000 A 
ATOM      7  C   UNL     1       3.168   4.396  18.330  0.00  0.00    +0.000 A 
ATOM      8  N   UNL     1       3.704   3.275  17.718  0.00  0.00    +0.000 NA
ATOM      9  C   UNL     1       4.464   3.739  16.752  0.00  0.00    +0.000 A 
ATOM     10  N   UNL     1       4.493   5.109  16.737  0.00  0.00    +0.000 N 
ATOM     11  H   UNL     1       1.737   8.160  20.352  0.00  0.00    +0.000 HD
ATOM     12  H   UNL     1       2.768   8.826  19.136  0.00  0.00    +0.000 HD
ENDROOT
BRANCH   1  14
ATOM     13  C   UNL     1       0.786   2.631  19.531  0.00  0.00    +0.000 C 
ATOM     14  N   UNL     1       1.734   3.527  20.158  0.00  0.00    +0.000 N 
ATOM     15  C   UNL     1       2.131   3.337  21.539  0.00  0.00    +0.000 C 
ENDBRANCH   1  14
BRANCH  10  16
ATOM     16  C   UNL     1       5.249   5.902  15.789  0.00  0.00    +0.000 C 
BRANCH  16  17
ATOM     17  C   UNL     1       6.067   5.109  14.768  0.00  0.00    +0.000 C 
BRANCH  17  18
ATOM     18  N   UNL     1       7.495   5.158  15.123  0.00  0.00    +0.000 NA
ATOM     19  N   UNL     1       7.767   4.683  16.246  0.00  0.00    +0.000 NA
ATOM     20  N   UNL     1       8.000   4.239  17.266  0.00  0.00    +0.000 NA
ENDBRANCH  17  18
ENDBRANCH  16  17
ENDBRANCH  10  16
TORSDOF 4
ENDMDL
MODEL 5
REMARK VINA RESULT:      -6.7      1.947      6.070
REMARK  Name = 
REMARK  6 active torsions:
REMARK  status: ('A' for Active; 'I' for Inactive)
REMARK    1  A    between atoms: C_1  and  N_2
REMARK    2  A    between atoms: N_2  and  C_3
REMARK    3  A    between atoms: N_2  and  C_4
REMARK    4  A    between atoms: N_13  and  C_14
REMARK    5  A    between atoms: C_14  and  C_15
REMARK    6  A    between atoms: C_15  and  N_16
REMARK                            x       y       z     vdW  Elec       q    Type
REMARK                         _______ _______ _______ _____ _____    ______ ____
ROOT
ATOM      1  C   UNL     1       6.440   5.524  17.588  0.00  0.00    +0.000 A 
ATOM      2  N   UNL     1       6.732   4.916  16.396  0.00  0.00    +0.000 NA
ATOM      3  C   UNL     1       5.825   4.138  15.788  0.00  0.00    +0.000 A 
ATOM      4  N   UNL     1       6.190   3.560  14.586  0.00  0.00    +0.000 N 
ATOM      5  N   UNL     1       4.607   3.824  16.242  0.00  0.00    +0.000 NA
ATOM      6  C   UNL     1       4.321   4.438  17.395  0.00  0.00    +0.000 A 
ATOM      7  C   UNL     1       5.145   5.288  18.113  0.00  0.00    +0.000 A 
ATOM      8  N   UNL     1       4.489   5.741  19.246  0.00  0.00    +0.000 NA
ATOM      9  C   UNL     1       3.295   5.195  19.196  0.00  0.00    +0.000 A 
ATOM     10  N   UNL     1       3.157   4.365  18.114  0.00  0.00    +0.000 N 
ATOM     11  H   UNL     1       7.196   3.503  14.520  0.00  0.00    +0.000 HD
ATOM     12  H   UNL     1       5.663   2.712  14.435  0.00  0.00    +0.000 HD
ENDROOT
BRANCH   1  14
ATOM     13  C   UNL     1       7.696   7.618  17.652  0.00  0.00    +0.000 C 
ATOM     14  N   UNL     1       7.402   6.313  18.203  0.00  0.00    +0.000 N 
ATOM     15  C   UNL     1       8.089   5.838  19.387  0.00  0.00    +0.000 C 
ENDBRANCH   1  14
BRANCH  10  16
ATOM     16  C   UNL     1       1.954   3.622  17.800  0.00  0.00    +0.000 C 
BRANCH  16  17
ATOM     17  C   UNL     1       1.660   2.428  18.710  0.00  0.00    +0.000 C 
BRANCH  17  18
ATOM     18  N   UNL     1       0.762   2.839  19.802  0.00  0.00    +0.000 NA
ATOM     19  N   UNL     1       1.261   2.753  20.944  0.00  0.00    +0.000 NA
ATOM     20  N   UNL     1       1.731   2.677  21.976  0.00  0.00    +0.000 NA
ENDBRANCH  17  18
ENDBRANCH  16  17
ENDBRANCH  10  16
TORSDOF 4
ENDMDL
MODEL 6
REMARK VINA RESULT:      -6.5      1.377      2.922
REMARK  Name = 
REMARK  6 active torsions:
REMARK  status: ('A' for Active; 'I' for Inactive)
REMARK    1  A    between atoms: C_1  and  N_2
REMARK    2  A    between atoms: N_2  and  C_3
REMARK    3  A    between atoms: N_2  and  C_4
REMARK    4  A    between atoms: N_13  and  C_14
REMARK    5  A    between atoms: C_14  and  C_15
REMARK    6  A    between atoms: C_15  and  N_16
REMARK                            x       y       z     vdW  Elec       q    Type
REMARK                         _______ _______ _______ _____ _____    ______ ____
ROOT
ATOM      1  C   UNL     1       2.941   3.952  19.567  0.00  0.00    +0.000 A 
ATOM      2  N   UNL     1       3.117   2.609  19.362  0.00  0.00    +0.000 NA
ATOM      3  C   UNL     1       3.798   2.165  18.296  0.00  0.00    +0.000 A 
ATOM      4  N   UNL     1       3.936   0.796  18.157  0.00  0.00    +0.000 N 
ATOM      5  N   UNL     1       4.329   2.908  17.319  0.00  0.00    +0.000 NA
ATOM      6  C   UNL     1       4.173   4.219  17.537  0.00  0.00    +0.000 A 
ATOM      7  C   UNL     1       3.523   4.815  18.605  0.00  0.00    +0.000 A 
ATOM      8  N   UNL     1       3.586   6.193  18.490  0.00  0.00    +0.000 NA
ATOM      9  C   UNL     1       4.275   6.418  17.394  0.00  0.00    +0.000 A 
ATOM     10  N   UNL     1       4.620   5.254  16.759  0.00  0.00    +0.000 N 
ATOM     11  H   UNL     1       3.204   0.321  18.665  0.00  0.00    +0.000 HD
ATOM     12  H   UNL     1       4.063   0.558  17.185  0.00  0.00    +0.000 HD
ENDROOT
BRANCH   1  14
ATOM     13  C   UNL     1       2.061   3.490  21.798  0.00  0.00    +0.000 C 
ATOM     14  N   UNL     1       2.220   4.384  20.672  0.00  0.00    +0.000 N 
ATOM     15  C   UNL     1       1.651   5.716  20.697  0.00  0.00    +0.000 C 
ENDBRANCH   1  14
BRANCH  10  16
ATOM     16  C   UNL     1       5.376   5.187  15.525  0.00  0.00    +0.000 C 
BRANCH  16  17
ATOM     17  C   UNL     1       6.858   5.545  15.639  0.00  0.00    +0.000 C 
BRANCH  17  18
ATOM     18  N   UNL     1       7.598   4.430  16.253  0.00  0.00    +0.000 NA
ATOM     19  N   UNL     1       7.803   4.557  17.479  0.00  0.00    +0.000 NA
ATOM     20  N   UNL     1       7.975   4.683  18.595  0.00  0.00    +0.000 NA
ENDBRANCH  17  18
ENDBRANCH  16  17
ENDBRANCH  10  16
TORSDOF 4
ENDMDL
MODEL 7
REMARK VINA RESULT:      -6.5      0.985      1.391
REMARK  Name = 
REMARK  6 active torsions:
REMARK  status: ('A' for Active; 'I' for Inactive)
REMARK    1  A    between atoms: C_1  and  N_2
REMARK    2  A    between atoms: N_2  and  C_3
REMARK    3  A    between atoms: N_2  and  C_4
REMARK    4  A    between atoms: N_13  and  C_14
REMARK    5  A    between atoms: C_14  and  C_15
REMARK    6  A    between atoms: C_15  and  N_16
REMARK                            x       y       z     vdW  Elec       q    Type
REMARK                         _______ _______ _______ _____ _____    ______ ____
ROOT
ATOM      1  C   UNL     1       2.183   4.199  19.418  0.00  0.00    +0.000 A 
ATOM      2  N   UNL     1       1.860   5.384  20.026  0.00  0.00    +0.000 NA
ATOM      3  C   UNL     1       2.441   6.529  19.641  0.00  0.00    +0.000 A 
ATOM      4  N   UNL     1       2.063   7.684  20.299  0.00  0.00    +0.000 N 
ATOM      5  N   UNL     1       3.388   6.671  18.707  0.00  0.00    +0.000 NA
ATOM      6  C   UNL     1       3.682   5.514  18.103  0.00  0.00    +0.000 A 
ATOM      7  C   UNL     1       3.141   4.269  18.375  0.00  0.00    +0.000 A 
ATOM      8  N   UNL     1       3.683   3.319  17.527  0.00  0.00    +0.000 NA
ATOM      9  C   UNL     1       4.512   3.980  16.751  0.00  0.00    +0.000 A 
ATOM     10  N   UNL     1       4.577   5.307  17.086  0.00  0.00    +0.000 N 
ATOM     11  H   UNL     1       1.687   7.457  21.209  0.00  0.00    +0.000 HD
ATOM     12  H   UNL     1       2.806   8.366  20.257  0.00  0.00    +0.000 HD
ENDROOT
BRANCH   1  14
ATOM     13  C   UNL     1       0.783   2.264  18.906  0.00  0.00    +0.000 C 
ATOM     14  N   UNL     1       1.576   3.026  19.845  0.00  0.00    +0.000 N 
ATOM     15  C   UNL     1       1.749   2.570  21.210  0.00  0.00    +0.000 C 
ENDBRANCH   1  14
BRANCH  10  16
ATOM     16  C   UNL     1       5.409   6.283  16.411  0.00  0.00    +0.000 C 
BRANCH  16  17
ATOM     17  C   UNL     1       6.522   6.901  17.259  0.00  0.00    +0.000 C 
BRANCH  17  18
ATOM     18  N   UNL     1       7.507   5.870  17.623  0.00  0.00    +0.000 NA
ATOM     19  N   UNL     1       7.564   5.616  18.845  0.00  0.00    +0.000 NA
ATOM     20  N   UNL     1       7.600   5.389  19.958  0.00  0.00    +0.000 NA
ENDBRANCH  17  18
ENDBRANCH  16  17
ENDBRANCH  10  16
TORSDOF 4
ENDMDL
MODEL 8
REMARK VINA RESULT:      -6.4      1.533      3.181
REMARK  Name = 
REMARK  6 active torsions:
REMARK  status: ('A' for Active; 'I' for Inactive)
REMARK    1  A    between atoms: C_1  and  N_2
REMARK    2  A    between atoms: N_2  and  C_3
REMARK    3  A    between atoms: N_2  and  C_4
REMARK    4  A    between atoms: N_13  and  C_14
REMARK    5  A    between atoms: C_14  and  C_15
REMARK    6  A    between atoms: C_15  and  N_16
REMARK                            x       y       z     vdW  Elec       q    Type
REMARK                         _______ _______ _______ _____ _____    ______ ____
ROOT
ATOM      1  C   UNL     1       2.922   3.838  19.646  0.00  0.00    +0.000 A 
ATOM      2  N   UNL     1       3.121   2.494  19.470  0.00  0.00    +0.000 NA
ATOM      3  C   UNL     1       3.792   2.038  18.402  0.00  0.00    +0.000 A 
ATOM      4  N   UNL     1       3.955   0.670  18.293  0.00  0.00    +0.000 N 
ATOM      5  N   UNL     1       4.291   2.769  17.399  0.00  0.00    +0.000 NA
ATOM      6  C   UNL     1       4.112   4.080  17.589  0.00  0.00    +0.000 A 
ATOM      7  C   UNL     1       3.469   4.689  18.654  0.00  0.00    +0.000 A 
ATOM      8  N   UNL     1       3.502   6.065  18.505  0.00  0.00    +0.000 NA
ATOM      9  C   UNL     1       4.167   6.277  17.392  0.00  0.00    +0.000 A 
ATOM     10  N   UNL     1       4.524   5.105  16.778  0.00  0.00    +0.000 N 
ATOM     11  H   UNL     1       3.241   0.192  18.825  0.00  0.00    +0.000 HD
ATOM     12  H   UNL     1       4.070   0.410  17.325  0.00  0.00    +0.000 HD
ENDROOT
BRANCH   1  14
ATOM     13  C   UNL     1       2.113   3.423  21.913  0.00  0.00    +0.000 C 
ATOM     14  N   UNL     1       2.212   4.282  20.753  0.00  0.00    +0.000 N 
ATOM     15  C   UNL     1       1.593   5.592  20.746  0.00  0.00    +0.000 C 
ENDBRANCH   1  14
BRANCH  10  16
ATOM     16  C   UNL     1       5.260   5.023  15.533  0.00  0.00    +0.000 C 
BRANCH  16  17
ATOM     17  C   UNL     1       6.697   4.512  15.648  0.00  0.00    +0.000 C 
BRANCH  17  18
ATOM     18  N   UNL     1       7.642   5.598  15.336  0.00  0.00    +0.000 NA
ATOM     19  N   UNL     1       8.019   5.631  14.146  0.00  0.00    +0.000 NA
ATOM     20  N   UNL     1       8.347   5.653  13.058  0.00  0.00    +0.000 NA
ENDBRANCH  17  18
ENDBRANCH  16  17
ENDBRANCH  10  16
TORSDOF 4
ENDMDL
MODEL 9
REMARK VINA RESULT:      -6.4      1.072      1.529
REMARK  Name = 
REMARK  6 active torsions:
REMARK  status: ('A' for Active; 'I' for Inactive)
REMARK    1  A    between atoms: C_1  and  N_2
REMARK    2  A    between atoms: N_2  and  C_3
REMARK    3  A    between atoms: N_2  and  C_4
REMARK    4  A    between atoms: N_13  and  C_14
REMARK    5  A    between atoms: C_14  and  C_15
REMARK    6  A    between atoms: C_15  and  N_16
REMARK                            x       y       z     vdW  Elec       q    Type
REMARK                         _______ _______ _______ _____ _____    ______ ____
ROOT
ATOM      1  C   UNL     1       2.355   4.588  19.355  0.00  0.00    +0.000 A 
ATOM      2  N   UNL     1       2.012   5.899  19.556  0.00  0.00    +0.000 NA
ATOM      3  C   UNL     1       2.527   6.866  18.783  0.00  0.00    +0.000 A 
ATOM      4  N   UNL     1       2.132   8.164  19.044  0.00  0.00    +0.000 N 
ATOM      5  N   UNL     1       3.424   6.713  17.802  0.00  0.00    +0.000 NA
ATOM      6  C   UNL     1       3.738   5.429  17.598  0.00  0.00    +0.000 A 
ATOM      7  C   UNL     1       3.261   4.332  18.296  0.00  0.00    +0.000 A 
ATOM      8  N   UNL     1       3.803   3.167  17.779  0.00  0.00    +0.000 NA
ATOM      9  C   UNL     1       4.568   3.553  16.783  0.00  0.00    +0.000 A 
ATOM     10  N   UNL     1       4.593   4.918  16.657  0.00  0.00    +0.000 N 
ATOM     11  H   UNL     1       1.807   8.243  19.997  0.00  0.00    +0.000 HD
ATOM     12  H   UNL     1       2.844   8.811  18.737  0.00  0.00    +0.000 HD
ENDROOT
BRANCH   1  14
ATOM     13  C   UNL     1       0.777   2.749  19.659  0.00  0.00    +0.000 C 
ATOM     14  N   UNL     1       1.817   3.609  20.179  0.00  0.00    +0.000 N 
ATOM     15  C   UNL     1       2.304   3.447  21.535  0.00  0.00    +0.000 C 
ENDBRANCH   1  14
BRANCH  10  16
ATOM     16  C   UNL     1       5.353   5.634  15.653  0.00  0.00    +0.000 C 
BRANCH  16  17
ATOM     17  C   UNL     1       6.822   5.230  15.524  0.00  0.00    +0.000 C 
BRANCH  17  18
ATOM     18  N   UNL     1       7.550   5.585  16.754  0.00  0.00    +0.000 NA
ATOM     19  N   UNL     1       7.611   6.811  16.984  0.00  0.00    +0.000 NA
ATOM     20  N   UNL     1       7.651   7.929  17.185  0.00  0.00    +0.000 NA
ENDBRANCH  17  18
ENDBRANCH  16  17
ENDBRANCH  10  16
TORSDOF 4
ENDMDL
