MODEL 1
REMARK VINA RESULT:      -6.7      0.000      0.000
REMARK  Name = 
REMARK  9 active torsions:
REMARK  status: ('A' for Active; 'I' for Inactive)
REMARK    1  A    between atoms: C_1  and  C_2
REMARK    2  A    between atoms: C_2  and  O_3
REMARK    3  A    between atoms: O_3  and  C_4
REMARK    4  A    between atoms: C_9  and  C_10
REMARK    5  A    between atoms: N_12  and  C_13
REMARK    6  A    between atoms: C_18  and  N_19
REMARK    7  A    between atoms: C_22  and  C_23
REMARK    8  A    between atoms: N_26  and  C_27
REMARK    9  A    between atoms: N_32  and  C_33
REMARK                            x       y       z     vdW  Elec       q    Type
REMARK                         _______ _______ _______ _____ _____    ______ ____
ROOT
ATOM      1  C   UNL     1      -2.493  12.789  21.222  0.00  0.00    +0.000 A 
ATOM      2  C   UNL     1      -2.915  14.145  21.198  0.00  0.00    +0.000 A 
ATOM      3  C   UNL     1      -2.559  14.979  22.263  0.00  0.00    +0.000 A 
ATOM      4  C   UNL     1      -2.167  14.374  23.451  0.00  0.00    +0.000 A 
ATOM      5  C   UNL     1      -1.610  13.103  23.432  0.00  0.00    +0.000 A 
ATOM      6  C   UNL     1      -1.635  12.338  22.257  0.00  0.00    +0.000 A 
ATOM      7  N   UNL     1      -2.101  15.178  24.631  0.00  0.00    +0.000 N 
ATOM      8  C   UNL     1      -3.427  15.763  24.975  0.00  0.00    +0.000 C 
ATOM      9  C   UNL     1      -1.158  16.184  24.372  0.00  0.00    +0.000 A 
ATOM     10  O   UNL     1      -0.102  16.321  24.969  0.00  0.00    +0.000 OA
ATOM     11  C   UNL     1      -1.590  17.067  23.164  0.00  0.00    +0.000 A 
ATOM     12  O   UNL     1      -1.288  18.254  23.150  0.00  0.00    +0.000 OA
ATOM     13  N   UNL     1      -2.423  16.415  22.216  0.00  0.00    +0.000 N 
ATOM     14  C   UNL     1      -3.179  17.251  21.323  0.00  0.00    +0.000 C 
ENDROOT
BRANCH   6  15
ATOM     15  N   UNL     1      -0.775  11.250  22.094  0.00  0.00    +0.000 N 
ATOM     16  C   UNL     1       0.520  11.491  21.426  0.00  0.00    +0.000 C 
ATOM     17  C   UNL     1       0.956  10.205  20.723  0.00  0.00    +0.000 C 
ATOM     18  C   UNL     1       0.908   8.973  21.645  0.00  0.00    +0.000 C 
ATOM     19  C   UNL     1       1.033   7.694  20.814  0.00  0.00    +0.000 C 
ATOM     20  C   UNL     1      -0.378   8.924  22.492  0.00  0.00    +0.000 C 
ATOM     21  C   UNL     1      -0.678  10.265  23.165  0.00  0.00    +0.000 C 
ENDBRANCH   6  15
BRANCH   1  24
ATOM     22  C   UNL     1      -2.209  12.021  18.934  0.00  0.00    +0.000 C 
ATOM     23  O   UNL     1      -1.183  12.692  18.804  0.00  0.00    +0.000 OA
ATOM     24  N   UNL     1      -2.882  11.918  20.156  0.00  0.00    +0.000 N 
ATOM     25  H   UNL     1      -3.876  11.723  20.083  0.00  0.00    +0.000 HD
BRANCH  22  31
ATOM     26  C   UNL     1      -4.071  11.507  17.181  0.00  0.00    +0.000 A 
ATOM     27  C   UNL     1      -4.437  10.828  15.996  0.00  0.00    +0.000 A 
ATOM     28  C   UNL     1      -3.555   9.959  15.351  0.00  0.00    +0.000 A 
ATOM     29  C   UNL     1      -2.276   9.793  15.860  0.00  0.00    +0.000 A 
ATOM     30  C   UNL     1      -1.892  10.493  17.005  0.00  0.00    +0.000 A 
ATOM     31  C   UNL     1      -2.772  11.362  17.693  0.00  0.00    +0.000 A 
BRANCH  26  32
ATOM     32  O   UNL     1      -4.955  12.316  17.850  0.00  0.00    +0.000 OA
BRANCH  32  34
ATOM     33  C   UNL     1      -6.490  10.872  18.969  0.00  0.00    +0.000 C 
ATOM     34  C   UNL     1      -6.316  11.865  17.840  0.00  0.00    +0.000 C 
ENDBRANCH  32  34
ENDBRANCH  26  32
ENDBRANCH  22  31
ENDBRANCH   1  24
TORSDOF 5
ENDMDL
MODEL 2
REMARK VINA RESULT:      -6.6      1.004      1.061
REMARK  Name = 
REMARK  9 active torsions:
REMARK  status: ('A' for Active; 'I' for Inactive)
REMARK    1  A    between atoms: C_1  and  C_2
REMARK    2  A    between atoms: C_2  and  O_3
REMARK    3  A    between atoms: O_3  and  C_4
REMARK    4  A    between atoms: C_9  and  C_10
REMARK    5  A    between atoms: N_12  and  C_13
REMARK    6  A    between atoms: C_18  and  N_19
REMARK    7  A    between atoms: C_22  and  C_23
REMARK    8  A    between atoms: N_26  and  C_27
REMARK    9  A    between atoms: N_32  and  C_33
REMARK                            x       y       z     vdW  Elec       q    Type
REMARK                         _______ _______ _______ _____ _____    ______ ____
ROOT
ATOM      1  C   UNL     1      -1.809  13.581  21.052  0.00  0.00    +0.000 A 
ATOM      2  C   UNL     1      -2.037  14.969  21.251  0.00  0.00    +0.000 A 
ATOM      3  C   UNL     1      -1.981  15.479  22.553  0.00  0.00    +0.000 A 
ATOM      4  C   UNL     1      -2.101  14.578  23.603  0.00  0.00    +0.000 A 
ATOM      5  C   UNL     1      -1.722  13.254  23.428  0.00  0.00    +0.000 A 
ATOM      6  C   UNL     1      -1.424  12.767  22.147  0.00  0.00    +0.000 A 
ATOM      7  N   UNL     1      -2.358  15.092  24.911  0.00  0.00    +0.000 N 
ATOM      8  C   UNL     1      -3.644  15.842  24.966  0.00  0.00    +0.000 C 
ATOM      9  C   UNL     1      -1.274  15.924  25.230  0.00  0.00    +0.000 A 
ATOM     10  O   UNL     1      -0.485  15.726  26.138  0.00  0.00    +0.000 OA
ATOM     11  C   UNL     1      -1.153  17.105  24.221  0.00  0.00    +0.000 A 
ATOM     12  O   UNL     1      -0.730  18.187  24.610  0.00  0.00    +0.000 OA
ATOM     13  N   UNL     1      -1.672  16.838  22.925  0.00  0.00    +0.000 N 
ATOM     14  C   UNL     1      -1.967  17.972  22.091  0.00  0.00    +0.000 C 
ENDROOT
BRANCH   6  15
ATOM     15  N   UNL     1      -0.693  11.589  21.982  0.00  0.00    +0.000 N 
ATOM     16  C   UNL     1       0.588  11.671  21.251  0.00  0.00    +0.000 C 
ATOM     17  C   UNL     1       0.851  10.326  20.571  0.00  0.00    +0.000 C 
ATOM     18  C   UNL     1       0.717   9.133  21.534  0.00  0.00    +0.000 C 
ATOM     19  C   UNL     1       0.666   7.826  20.740  0.00  0.00    +0.000 C 
ATOM     20  C   UNL     1      -0.526   9.246  22.438  0.00  0.00    +0.000 C 
ATOM     21  C   UNL     1      -0.651  10.629  23.079  0.00  0.00    +0.000 C 
ENDBRANCH   6  15
BRANCH   1  24
ATOM     22  C   UNL     1      -3.070  12.366  19.366  0.00  0.00    +0.000 C 
ATOM     23  O   UNL     1      -4.084  12.385  20.067  0.00  0.00    +0.000 OA
ATOM     24  N   UNL     1      -1.899  13.041  19.730  0.00  0.00    +0.000 N 
ATOM     25  H   UNL     1      -1.043  12.648  19.353  0.00  0.00    +0.000 HD
BRANCH  22  31
ATOM     26  C   UNL     1      -4.109  11.494  17.137  0.00  0.00    +0.000 A 
ATOM     27  C   UNL     1      -3.979  10.645  16.015  0.00  0.00    +0.000 A 
ATOM     28  C   UNL     1      -2.901   9.768  15.883  0.00  0.00    +0.000 A 
ATOM     29  C   UNL     1      -1.910   9.766  16.854  0.00  0.00    +0.000 A 
ATOM     30  C   UNL     1      -2.008  10.632  17.943  0.00  0.00    +0.000 A 
ATOM     31  C   UNL     1      -3.102  11.513  18.115  0.00  0.00    +0.000 A 
BRANCH  26  32
ATOM     32  O   UNL     1      -5.199  12.313  17.299  0.00  0.00    +0.000 OA
BRANCH  32  34
ATOM     33  C   UNL     1      -7.421  12.703  18.073  0.00  0.00    +0.000 C 
ATOM     34  C   UNL     1      -6.403  11.647  17.698  0.00  0.00    +0.000 C 
ENDBRANCH  32  34
ENDBRANCH  26  32
ENDBRANCH  22  31
ENDBRANCH   1  24
TORSDOF 5
ENDMDL
MODEL 3
REMARK VINA RESULT:      -6.5      3.182      5.169
REMARK  Name = 
REMARK  9 active torsions:
REMARK  status: ('A' for Active; 'I' for Inactive)
REMARK    1  A    between atoms: C_1  and  C_2
REMARK    2  A    between atoms: C_2  and  O_3
REMARK    3  A    between atoms: O_3  and  C_4
REMARK    4  A    between atoms: C_9  and  C_10
REMARK    5  A    between atoms: N_12  and  C_13
REMARK    6  A    between atoms: C_18  and  N_19
REMARK    7  A    between atoms: C_22  and  C_23
REMARK    8  A    between atoms: N_26  and  C_27
REMARK    9  A    between atoms: N_32  and  C_33
REMARK                            x       y       z     vdW  Elec       q    Type
REMARK                         _______ _______ _______ _____ _____    ______ ____
ROOT
ATOM      1  C   UNL     1       0.436  12.894  21.372  0.00  0.00    +0.000 A 
ATOM      2  C   UNL     1      -0.880  12.676  21.859  0.00  0.00    +0.000 A 
ATOM      3  C   UNL     1      -1.604  13.767  22.353  0.00  0.00    +0.000 A 
ATOM      4  C   UNL     1      -0.890  14.905  22.708  0.00  0.00    +0.000 A 
ATOM      5  C   UNL     1       0.328  15.179  22.099  0.00  0.00    +0.000 A 
ATOM      6  C   UNL     1       0.946  14.215  21.291  0.00  0.00    +0.000 A 
ATOM      7  N   UNL     1      -1.549  15.901  23.492  0.00  0.00    +0.000 N 
ATOM      8  C   UNL     1      -1.994  15.361  24.807  0.00  0.00    +0.000 C 
ATOM      9  C   UNL     1      -2.642  16.344  22.733  0.00  0.00    +0.000 A 
ATOM     10  O   UNL     1      -2.781  17.478  22.304  0.00  0.00    +0.000 OA
ATOM     11  C   UNL     1      -3.632  15.179  22.433  0.00  0.00    +0.000 A 
ATOM     12  O   UNL     1      -4.830  15.416  22.344  0.00  0.00    +0.000 OA
ATOM     13  N   UNL     1      -3.040  13.887  22.404  0.00  0.00    +0.000 N 
ATOM     14  C   UNL     1      -3.922  12.760  22.544  0.00  0.00    +0.000 C 
ENDROOT
BRANCH   6  15
ATOM     15  N   UNL     1       1.944  14.576  20.384  0.00  0.00    +0.000 N 
ATOM     16  C   UNL     1       1.573  14.678  18.958  0.00  0.00    +0.000 C 
ATOM     17  C   UNL     1       2.805  14.367  18.107  0.00  0.00    +0.000 C 
ATOM     18  C   UNL     1       4.043  15.181  18.526  0.00  0.00    +0.000 C 
ATOM     19  C   UNL     1       5.296  14.597  17.871  0.00  0.00    +0.000 C 
ATOM     20  C   UNL     1       4.223  15.227  20.055  0.00  0.00    +0.000 C 
ATOM     21  C   UNL     1       2.924  15.581  20.780  0.00  0.00    +0.000 C 
ENDBRANCH   6  15
BRANCH   1  24
ATOM     22  C   UNL     1       0.752  11.106  19.756  0.00  0.00    +0.000 C 
ATOM     23  O   UNL     1      -0.153  11.548  19.045  0.00  0.00    +0.000 OA
ATOM     24  N   UNL     1       1.199  11.780  20.899  0.00  0.00    +0.000 N 
ATOM     25  H   UNL     1       1.607  11.187  21.614  0.00  0.00    +0.000 HD
BRANCH  22  31
ATOM     26  C   UNL     1       1.520   8.664  20.261  0.00  0.00    +0.000 A 
ATOM     27  C   UNL     1       2.057   7.457  19.759  0.00  0.00    +0.000 A 
ATOM     28  C   UNL     1       2.464   7.336  18.429  0.00  0.00    +0.000 A 
ATOM     29  C   UNL     1       2.294   8.411  17.570  0.00  0.00    +0.000 A 
ATOM     30  C   UNL     1       1.724   9.593  18.046  0.00  0.00    +0.000 A 
ATOM     31  C   UNL     1       1.326   9.752  19.395  0.00  0.00    +0.000 A 
BRANCH  26  32
ATOM     32  O   UNL     1       1.175   8.805  21.582  0.00  0.00    +0.000 OA
BRANCH  32  34
ATOM     33  C   UNL     1      -0.559   9.416  23.102  0.00  0.00    +0.000 C 
ATOM     34  C   UNL     1      -0.215   8.608  21.870  0.00  0.00    +0.000 C 
ENDBRANCH  32  34
ENDBRANCH  26  32
ENDBRANCH  22  31
ENDBRANCH   1  24
TORSDOF 5
ENDMDL
MODEL 4
REMARK VINA RESULT:      -6.5      3.492      4.627
REMARK  Name = 
REMARK  9 active torsions:
REMARK  status: ('A' for Active; 'I' for Inactive)
REMARK    1  A    between atoms: C_1  and  C_2
REMARK    2  A    between atoms: C_2  and  O_3
REMARK    3  A    between atoms: O_3  and  C_4
REMARK    4  A    between atoms: C_9  and  C_10
REMARK    5  A    between atoms: N_12  and  C_13
REMARK    6  A    between atoms: C_18  and  N_19
REMARK    7  A    between atoms: C_22  and  C_23
REMARK    8  A    between atoms: N_26  and  C_27
REMARK    9  A    between atoms: N_32  and  C_33
REMARK                            x       y       z     vdW  Elec       q    Type
REMARK                         _______ _______ _______ _____ _____    ______ ____
ROOT
ATOM      1  C   UNL     1      -0.116  13.065  19.844  0.00  0.00    +0.000 A 
ATOM      2  C   UNL     1      -0.052  14.432  19.464  0.00  0.00    +0.000 A 
ATOM      3  C   UNL     1       1.201  15.050  19.386  0.00  0.00    +0.000 A 
ATOM      4  C   UNL     1       2.261  14.442  20.047  0.00  0.00    +0.000 A 
ATOM      5  C   UNL     1       2.246  13.072  20.269  0.00  0.00    +0.000 A 
ATOM      6  C   UNL     1       1.082  12.329  20.027  0.00  0.00    +0.000 A 
ATOM      7  N   UNL     1       3.459  15.197  20.245  0.00  0.00    +0.000 N 
ATOM      8  C   UNL     1       3.212  16.418  21.061  0.00  0.00    +0.000 C 
ATOM      9  C   UNL     1       3.933  15.530  18.968  0.00  0.00    +0.000 A 
ATOM     10  O   UNL     1       4.990  15.148  18.494  0.00  0.00    +0.000 OA
ATOM     11  C   UNL     1       2.896  16.394  18.188  0.00  0.00    +0.000 A 
ATOM     12  O   UNL     1       3.294  17.239  17.396  0.00  0.00    +0.000 OA
ATOM     13  N   UNL     1       1.543  16.190  18.569  0.00  0.00    +0.000 N 
ATOM     14  C   UNL     1       0.599  17.212  18.206  0.00  0.00    +0.000 C 
ENDROOT
BRANCH   6  15
ATOM     15  N   UNL     1       1.137  10.942  19.874  0.00  0.00    +0.000 N 
ATOM     16  C   UNL     1       0.508  10.110  20.919  0.00  0.00    +0.000 C 
ATOM     17  C   UNL     1       1.241   8.769  20.986  0.00  0.00    +0.000 C 
ATOM     18  C   UNL     1       1.388   8.098  19.608  0.00  0.00    +0.000 C 
ATOM     19  C   UNL     1       2.397   6.951  19.692  0.00  0.00    +0.000 C 
ATOM     20  C   UNL     1       1.817   9.095  18.514  0.00  0.00    +0.000 C 
ATOM     21  C   UNL     1       0.982  10.376  18.539  0.00  0.00    +0.000 C 
ENDBRANCH   6  15
BRANCH   1  24
ATOM     22  C   UNL     1      -2.121  12.179  18.793  0.00  0.00    +0.000 C 
ATOM     23  O   UNL     1      -1.625  12.305  17.671  0.00  0.00    +0.000 OA
ATOM     24  N   UNL     1      -1.394  12.433  19.962  0.00  0.00    +0.000 N 
ATOM     25  H   UNL     1      -1.953  12.711  20.763  0.00  0.00    +0.000 HD
BRANCH  22  31
ATOM     26  C   UNL     1      -4.274  10.918  18.032  0.00  0.00    +0.000 A 
ATOM     27  C   UNL     1      -5.649  10.671  18.249  0.00  0.00    +0.000 A 
ATOM     28  C   UNL     1      -6.364  11.344  19.241  0.00  0.00    +0.000 A 
ATOM     29  C   UNL     1      -5.699  12.241  20.063  0.00  0.00    +0.000 A 
ATOM     30  C   UNL     1      -4.332  12.459  19.884  0.00  0.00    +0.000 A 
ATOM     31  C   UNL     1      -3.587  11.810  18.871  0.00  0.00    +0.000 A 
BRANCH  26  32
ATOM     32  O   UNL     1      -3.582  10.303  17.018  0.00  0.00    +0.000 OA
BRANCH  32  34
ATOM     33  C   UNL     1      -2.948  10.114  14.726  0.00  0.00    +0.000 C 
ATOM     34  C   UNL     1      -3.923  10.743  15.698  0.00  0.00    +0.000 C 
ENDBRANCH  32  34
ENDBRANCH  26  32
ENDBRANCH  22  31
ENDBRANCH   1  24
TORSDOF 5
ENDMDL
MODEL 5
REMARK VINA RESULT:      -6.4      3.386      4.295
REMARK  Name = 
REMARK  9 active torsions:
REMARK  status: ('A' for Active; 'I' for Inactive)
REMARK    1  A    between atoms: C_1  and  C_2
REMARK    2  A    between atoms: C_2  and  O_3
REMARK    3  A    between atoms: O_3  and  C_4
REMARK    4  A    between atoms: C_9  and  C_10
REMARK    5  A    between atoms: N_12  and  C_13
REMARK    6  A    between atoms: C_18  and  N_19
REMARK    7  A    between atoms: C_22  and  C_23
REMARK    8  A    between atoms: N_26  and  C_27
REMARK    9  A    between atoms: N_32  and  C_33
REMARK                            x       y       z     vdW  Elec       q    Type
REMARK                         _______ _______ _______ _____ _____    ______ ____
ROOT
ATOM      1  C   UNL     1      -0.715  13.850  19.749  0.00  0.00    +0.000 A 
ATOM      2  C   UNL     1      -0.325  15.104  19.208  0.00  0.00    +0.000 A 
ATOM      3  C   UNL     1       0.904  15.651  19.593  0.00  0.00    +0.000 A 
ATOM      4  C   UNL     1       1.491  15.160  20.752  0.00  0.00    +0.000 A 
ATOM      5  C   UNL     1       1.215  13.868  21.178  0.00  0.00    +0.000 A 
ATOM      6  C   UNL     1       0.188  13.130  20.573  0.00  0.00    +0.000 A 
ATOM      7  N   UNL     1       2.569  15.900  21.331  0.00  0.00    +0.000 N 
ATOM      8  C   UNL     1       2.146  17.273  21.725  0.00  0.00    +0.000 C 
ATOM      9  C   UNL     1       3.584  15.942  20.364  0.00  0.00    +0.000 A 
ATOM     10  O   UNL     1       4.687  15.435  20.487  0.00  0.00    +0.000 OA
ATOM     11  C   UNL     1       3.100  16.657  19.067  0.00  0.00    +0.000 A 
ATOM     12  O   UNL     1       3.901  17.303  18.403  0.00  0.00    +0.000 OA
ATOM     13  N   UNL     1       1.701  16.581  18.831  0.00  0.00    +0.000 N 
ATOM     14  C   UNL     1       1.139  17.535  17.913  0.00  0.00    +0.000 C 
ENDROOT
BRANCH   6  15
ATOM     15  N   UNL     1       0.133  11.741  20.704  0.00  0.00    +0.000 N 
ATOM     16  C   UNL     1      -0.617  11.187  21.850  0.00  0.00    +0.000 C 
ATOM     17  C   UNL     1      -0.004   9.839  22.232  0.00  0.00    +0.000 C 
ATOM     18  C   UNL     1       0.155   8.892  21.029  0.00  0.00    +0.000 C 
ATOM     19  C   UNL     1       1.058   7.716  21.407  0.00  0.00    +0.000 C 
ATOM     20  C   UNL     1       0.722   9.610  19.789  0.00  0.00    +0.000 C 
ATOM     21  C   UNL     1      -0.002  10.926  19.502  0.00  0.00    +0.000 C 
ENDBRANCH   6  15
BRANCH   1  24
ATOM     22  C   UNL     1      -3.070  13.517  20.248  0.00  0.00    +0.000 C 
ATOM     23  O   UNL     1      -3.015  14.315  21.186  0.00  0.00    +0.000 OA
ATOM     24  N   UNL     1      -1.985  13.299  19.392  0.00  0.00    +0.000 N 
ATOM     25  H   UNL     1      -1.963  12.383  18.954  0.00  0.00    +0.000 HD
BRANCH  22  31
ATOM     26  C   UNL     1      -4.730  11.963  18.969  0.00  0.00    +0.000 A 
ATOM     27  C   UNL     1      -5.950  11.250  18.990  0.00  0.00    +0.000 A 
ATOM     28  C   UNL     1      -6.818  11.321  20.081  0.00  0.00    +0.000 A 
ATOM     29  C   UNL     1      -6.453  12.071  21.188  0.00  0.00    +0.000 A 
ATOM     30  C   UNL     1      -5.230  12.744  21.194  0.00  0.00    +0.000 A 
ATOM     31  C   UNL     1      -4.341  12.710  20.092  0.00  0.00    +0.000 A 
BRANCH  26  32
ATOM     32  O   UNL     1      -3.902  11.944  17.874  0.00  0.00    +0.000 OA
BRANCH  32  34
ATOM     33  C   UNL     1      -2.911   9.795  17.571  0.00  0.00    +0.000 C 
ATOM     34  C   UNL     1      -3.975  10.752  17.081  0.00  0.00    +0.000 C 
ENDBRANCH  32  34
ENDBRANCH  26  32
ENDBRANCH  22  31
ENDBRANCH   1  24
TORSDOF 5
ENDMDL
MODEL 6
REMARK VINA RESULT:      -6.3      3.281      5.925
REMARK  Name = 
REMARK  9 active torsions:
REMARK  status: ('A' for Active; 'I' for Inactive)
REMARK    1  A    between atoms: C_1  and  C_2
REMARK    2  A    between atoms: C_2  and  O_3
REMARK    3  A    between atoms: O_3  and  C_4
REMARK    4  A    between atoms: C_9  and  C_10
REMARK    5  A    between atoms: N_12  and  C_13
REMARK    6  A    between atoms: C_18  and  N_19
REMARK    7  A    between atoms: C_22  and  C_23
REMARK    8  A    between atoms: N_26  and  C_27
REMARK    9  A    between atoms: N_32  and  C_33
REMARK                            x       y       z     vdW  Elec       q    Type
REMARK                         _______ _______ _______ _____ _____    ______ ____
ROOT
ATOM      1  C   UNL     1      -3.060  13.187  19.939  0.00  0.00    +0.000 A 
ATOM      2  C   UNL     1      -3.161  13.556  21.307  0.00  0.00    +0.000 A 
ATOM      3  C   UNL     1      -4.370  13.336  21.975  0.00  0.00    +0.000 A 
ATOM      4  C   UNL     1      -5.508  13.145  21.202  0.00  0.00    +0.000 A 
ATOM      5  C   UNL     1      -5.396  12.633  19.916  0.00  0.00    +0.000 A 
ATOM      6  C   UNL     1      -4.137  12.508  19.313  0.00  0.00    +0.000 A 
ATOM      7  N   UNL     1      -6.784  13.230  21.840  0.00  0.00    +0.000 N 
ATOM      8  C   UNL     1      -7.010  14.572  22.444  0.00  0.00    +0.000 C 
ATOM      9  C   UNL     1      -6.803  12.226  22.820  0.00  0.00    +0.000 A 
ATOM     10  O   UNL     1      -7.558  11.267  22.823  0.00  0.00    +0.000 OA
ATOM     11  C   UNL     1      -5.678  12.444  23.875  0.00  0.00    +0.000 A 
ATOM     12  O   UNL     1      -5.869  12.104  25.036  0.00  0.00    +0.000 OA
ATOM     13  N   UNL     1      -4.539  13.146  23.396  0.00  0.00    +0.000 N 
ATOM     14  C   UNL     1      -3.670  13.733  24.379  0.00  0.00    +0.000 C 
ENDROOT
BRANCH   6  15
ATOM     15  N   UNL     1      -3.951  11.670  18.211  0.00  0.00    +0.000 N 
ATOM     16  C   UNL     1      -3.168  10.434  18.412  0.00  0.00    +0.000 C 
ATOM     17  C   UNL     1      -2.489  10.064  17.092  0.00  0.00    +0.000 C 
ATOM     18  C   UNL     1      -3.467  10.040  15.903  0.00  0.00    +0.000 C 
ATOM     19  C   UNL     1      -2.686   9.991  14.588  0.00  0.00    +0.000 C 
ATOM     20  C   UNL     1      -4.419  11.251  15.903  0.00  0.00    +0.000 C 
ATOM     21  C   UNL     1      -5.054  11.488  17.274  0.00  0.00    +0.000 C 
ENDBRANCH   6  15
BRANCH   1  24
ATOM     22  C   UNL     1      -0.679  12.786  19.661  0.00  0.00    +0.000 C 
ATOM     23  O   UNL     1      -0.707  11.869  20.485  0.00  0.00    +0.000 OA
ATOM     24  N   UNL     1      -1.841  13.441  19.235  0.00  0.00    +0.000 N 
ATOM     25  H   UNL     1      -1.703  14.395  18.918  0.00  0.00    +0.000 HD
BRANCH  22  31
ATOM     26  C   UNL     1       1.173  14.557  19.172  0.00  0.00    +0.000 A 
ATOM     27  C   UNL     1       2.476  14.815  18.689  0.00  0.00    +0.000 A 
ATOM     28  C   UNL     1       3.267  13.802  18.145  0.00  0.00    +0.000 A 
ATOM     29  C   UNL     1       2.780  12.504  18.121  0.00  0.00    +0.000 A 
ATOM     30  C   UNL     1       1.512  12.232  18.636  0.00  0.00    +0.000 A 
ATOM     31  C   UNL     1       0.678  13.244  19.171  0.00  0.00    +0.000 A 
BRANCH  26  32
ATOM     32  O   UNL     1       0.371  15.562  19.652  0.00  0.00    +0.000 OA
BRANCH  32  34
ATOM     33  C   UNL     1      -0.606  17.109  18.122  0.00  0.00    +0.000 C 
ATOM     34  C   UNL     1       0.568  16.842  19.038  0.00  0.00    +0.000 C 
ENDBRANCH  32  34
ENDBRANCH  26  32
ENDBRANCH  22  31
ENDBRANCH   1  24
TORSDOF 5
ENDMDL
MODEL 7
REMARK VINA RESULT:      -6.3      3.786      5.649
REMARK  Name = 
REMARK  9 active torsions:
REMARK  status: ('A' for Active; 'I' for Inactive)
REMARK    1  A    between atoms: C_1  and  C_2
REMARK    2  A    between atoms: C_2  and  O_3
REMARK    3  A    between atoms: O_3  and  C_4
REMARK    4  A    between atoms: C_9  and  C_10
REMARK    5  A    between atoms: N_12  and  C_13
REMARK    6  A    between atoms: C_18  and  N_19
REMARK    7  A    between atoms: C_22  and  C_23
REMARK    8  A    between atoms: N_26  and  C_27
REMARK    9  A    between atoms: N_32  and  C_33
REMARK                            x       y       z     vdW  Elec       q    Type
REMARK                         _______ _______ _______ _____ _____    ______ ____
ROOT
ATOM      1  C   UNL     1      -1.520  14.053  20.648  0.00  0.00    +0.000 A 
ATOM      2  C   UNL     1      -2.336  14.836  21.507  0.00  0.00    +0.000 A 
ATOM      3  C   UNL     1      -3.667  14.453  21.704  0.00  0.00    +0.000 A 
ATOM      4  C   UNL     1      -4.232  13.588  20.775  0.00  0.00    +0.000 A 
ATOM      5  C   UNL     1      -3.424  12.717  20.057  0.00  0.00    +0.000 A 
ATOM      6  C   UNL     1      -2.029  12.848  20.101  0.00  0.00    +0.000 A 
ATOM      7  N   UNL     1      -5.652  13.429  20.774  0.00  0.00    +0.000 N 
ATOM      8  C   UNL     1      -6.351  14.715  20.501  0.00  0.00    +0.000 C 
ATOM      9  C   UNL     1      -5.995  12.926  22.038  0.00  0.00    +0.000 A 
ATOM     10  O   UNL     1      -6.495  11.832  22.241  0.00  0.00    +0.000 OA
ATOM     11  C   UNL     1      -5.584  13.913  23.170  0.00  0.00    +0.000 A 
ATOM     12  O   UNL     1      -6.266  13.981  24.185  0.00  0.00    +0.000 OA
ATOM     13  N   UNL     1      -4.481  14.753  22.857  0.00  0.00    +0.000 N 
ATOM     14  C   UNL     1      -4.311  15.936  23.657  0.00  0.00    +0.000 C 
ENDROOT
BRANCH   6  15
ATOM     15  N   UNL     1      -1.199  11.793  19.715  0.00  0.00    +0.000 N 
ATOM     16  C   UNL     1      -0.291  11.226  20.733  0.00  0.00    +0.000 C 
ATOM     17  C   UNL     1       0.945  10.664  20.029  0.00  0.00    +0.000 C 
ATOM     18  C   UNL     1       0.593   9.725  18.861  0.00  0.00    +0.000 C 
ATOM     19  C   UNL     1       1.837   9.465  18.008  0.00  0.00    +0.000 C 
ATOM     20  C   UNL     1      -0.540  10.284  17.980  0.00  0.00    +0.000 C 
ATOM     21  C   UNL     1      -1.726  10.780  18.808  0.00  0.00    +0.000 C 
ENDBRANCH   6  15
BRANCH   1  24
ATOM     22  C   UNL     1       0.136  15.078  19.194  0.00  0.00    +0.000 C 
ATOM     23  O   UNL     1      -0.740  15.457  18.413  0.00  0.00    +0.000 OA
ATOM     24  N   UNL     1      -0.168  14.456  20.410  0.00  0.00    +0.000 N 
ATOM     25  H   UNL     1       0.549  13.829  20.763  0.00  0.00    +0.000 HD
BRANCH  22  31
ATOM     26  C   UNL     1       2.216  16.434  18.393  0.00  0.00    +0.000 A 
ATOM     27  C   UNL     1       3.580  16.414  18.021  0.00  0.00    +0.000 A 
ATOM     28  C   UNL     1       4.297  15.219  17.942  0.00  0.00    +0.000 A 
ATOM     29  C   UNL     1       3.670  14.030  18.281  0.00  0.00    +0.000 A 
ATOM     30  C   UNL     1       2.336  14.045  18.692  0.00  0.00    +0.000 A 
ATOM     31  C   UNL     1       1.577  15.239  18.757  0.00  0.00    +0.000 A 
BRANCH  26  32
ATOM     32  O   UNL     1       1.492  17.600  18.414  0.00  0.00    +0.000 OA
BRANCH  32  34
ATOM     33  C   UNL     1      -0.257  18.319  16.960  0.00  0.00    +0.000 C 
ATOM     34  C   UNL     1       1.240  18.180  17.128  0.00  0.00    +0.000 C 
ENDBRANCH  32  34
ENDBRANCH  26  32
ENDBRANCH  22  31
ENDBRANCH   1  24
TORSDOF 5
ENDMDL
MODEL 8
REMARK VINA RESULT:      -6.2      3.184      4.525
REMARK  Name = 
REMARK  9 active torsions:
REMARK  status: ('A' for Active; 'I' for Inactive)
REMARK    1  A    between atoms: C_1  and  C_2
REMARK    2  A    between atoms: C_2  and  O_3
REMARK    3  A    between atoms: O_3  and  C_4
REMARK    4  A    between atoms: C_9  and  C_10
REMARK    5  A    between atoms: N_12  and  C_13
REMARK    6  A    between atoms: C_18  and  N_19
REMARK    7  A    between atoms: C_22  and  C_23
REMARK    8  A    between atoms: N_26  and  C_27
REMARK    9  A    between atoms: N_32  and  C_33
REMARK                            x       y       z     vdW  Elec       q    Type
REMARK                         _______ _______ _______ _____ _____    ______ ____
ROOT
ATOM      1  C   UNL     1      -0.516  14.280  20.493  0.00  0.00    +0.000 A 
ATOM      2  C   UNL     1       0.735  14.381  19.829  0.00  0.00    +0.000 A 
ATOM      3  C   UNL     1       1.822  14.925  20.522  0.00  0.00    +0.000 A 
ATOM      4  C   UNL     1       1.550  15.686  21.652  0.00  0.00    +0.000 A 
ATOM      5  C   UNL     1       0.388  15.460  22.378  0.00  0.00    +0.000 A 
ATOM      6  C   UNL     1      -0.613  14.623  21.866  0.00  0.00    +0.000 A 
ATOM      7  N   UNL     1       2.595  16.498  22.190  0.00  0.00    +0.000 N 
ATOM      8  C   UNL     1       3.065  17.514  21.207  0.00  0.00    +0.000 C 
ATOM      9  C   UNL     1       3.632  15.624  22.547  0.00  0.00    +0.000 A 
ATOM     10  O   UNL     1       4.032  15.443  23.685  0.00  0.00    +0.000 OA
ATOM     11  C   UNL     1       4.165  14.843  21.308  0.00  0.00    +0.000 A 
ATOM     12  O   UNL     1       5.348  14.531  21.258  0.00  0.00    +0.000 OA
ATOM     13  N   UNL     1       3.218  14.662  20.265  0.00  0.00    +0.000 N 
ATOM     14  C   UNL     1       3.732  14.332  18.963  0.00  0.00    +0.000 C 
ENDROOT
BRANCH   6  15
ATOM     15  N   UNL     1      -1.591  14.082  22.704  0.00  0.00    +0.000 N 
ATOM     16  C   UNL     1      -1.449  12.667  23.101  0.00  0.00    +0.000 C 
ATOM     17  C   UNL     1      -2.841  12.087  23.359  0.00  0.00    +0.000 C 
ATOM     18  C   UNL     1      -3.684  12.957  24.308  0.00  0.00    +0.000 C 
ATOM     19  C   UNL     1      -5.147  12.510  24.263  0.00  0.00    +0.000 C 
ATOM     20  C   UNL     1      -3.584  14.458  23.972  0.00  0.00    +0.000 C 
ATOM     21  C   UNL     1      -2.137  14.911  23.772  0.00  0.00    +0.000 C 
ENDBRANCH   6  15
BRANCH   1  24
ATOM     22  C   UNL     1      -1.640  12.404  19.432  0.00  0.00    +0.000 C 
ATOM     23  O   UNL     1      -0.802  11.614  19.872  0.00  0.00    +0.000 OA
ATOM     24  N   UNL     1      -1.643  13.759  19.783  0.00  0.00    +0.000 N 
ATOM     25  H   UNL     1      -2.058  14.380  19.094  0.00  0.00    +0.000 HD
BRANCH  22  31
ATOM     26  C   UNL     1      -4.032  11.823  18.568  0.00  0.00    +0.000 A 
ATOM     27  C   UNL     1      -4.827  11.308  17.519  0.00  0.00    +0.000 A 
ATOM     28  C   UNL     1      -4.253  10.783  16.359  0.00  0.00    +0.000 A 
ATOM     29  C   UNL     1      -2.875  10.812  16.214  0.00  0.00    +0.000 A 
ATOM     30  C   UNL     1      -2.085  11.358  17.226  0.00  0.00    +0.000 A 
ATOM     31  C   UNL     1      -2.637  11.874  18.423  0.00  0.00    +0.000 A 
BRANCH  26  32
ATOM     32  O   UNL     1      -4.590  12.284  19.735  0.00  0.00    +0.000 OA
BRANCH  32  34
ATOM     33  C   UNL     1      -6.680  11.882  20.811  0.00  0.00    +0.000 C 
ATOM     34  C   UNL     1      -5.990  12.582  19.661  0.00  0.00    +0.000 C 
ENDBRANCH  32  34
ENDBRANCH  26  32
ENDBRANCH  22  31
ENDBRANCH   1  24
TORSDOF 5
ENDMDL
MODEL 9
REMARK VINA RESULT:      -6.1      3.401      4.550
REMARK  Name = 
REMARK  9 active torsions:
REMARK  status: ('A' for Active; 'I' for Inactive)
REMARK    1  A    between atoms: C_1  and  C_2
REMARK    2  A    between atoms: C_2  and  O_3
REMARK    3  A    between atoms: O_3  and  C_4
REMARK    4  A    between atoms: C_9  and  C_10
REMARK    5  A    between atoms: N_12  and  C_13
REMARK    6  A    between atoms: C_18  and  N_19
REMARK    7  A    between atoms: C_22  and  C_23
REMARK    8  A    between atoms: N_26  and  C_27
REMARK    9  A    between atoms: N_32  and  C_33
REMARK                            x       y       z     vdW  Elec       q    Type
REMARK                         _______ _______ _______ _____ _____    ______ ____
ROOT
ATOM      1  C   UNL     1      -0.520  13.542  20.258  0.00  0.00    +0.000 A 
ATOM      2  C   UNL     1      -0.415  14.843  19.698  0.00  0.00    +0.000 A 
ATOM      3  C   UNL     1       0.857  15.396  19.514  0.00  0.00    +0.000 A 
ATOM      4  C   UNL     1       1.909  14.840  20.229  0.00  0.00    +0.000 A 
ATOM      5  C   UNL     1       1.851  13.513  20.632  0.00  0.00    +0.000 A 
ATOM      6  C   UNL     1       0.655  12.791  20.513  0.00  0.00    +0.000 A 
ATOM      7  N   UNL     1       3.138  15.567  20.302  0.00  0.00    +0.000 N 
ATOM      8  C   UNL     1       2.955  16.894  20.952  0.00  0.00    +0.000 C 
ATOM      9  C   UNL     1       3.592  15.710  18.982  0.00  0.00    +0.000 A 
ATOM     10  O   UNL     1       4.623  15.228  18.543  0.00  0.00    +0.000 OA
ATOM     11  C   UNL     1       2.569  16.503  18.115  0.00  0.00    +0.000 A 
ATOM     12  O   UNL     1       2.977  17.219  17.210  0.00  0.00    +0.000 OA
ATOM     13  N   UNL     1       1.219  16.404  18.546  0.00  0.00    +0.000 N 
ATOM     14  C   UNL     1       0.303  17.405  18.069  0.00  0.00    +0.000 C 
ENDROOT
BRANCH   6  15
ATOM     15  N   UNL     1       0.657  11.394  20.545  0.00  0.00    +0.000 N 
ATOM     16  C   UNL     1       0.046  10.733  21.716  0.00  0.00    +0.000 C 
ATOM     17  C   UNL     1       0.736   9.385  21.933  0.00  0.00    +0.000 C 
ATOM     18  C   UNL     1       0.800   8.533  20.653  0.00  0.00    +0.000 C 
ATOM     19  C   UNL     1       1.772   7.368  20.850  0.00  0.00    +0.000 C 
ATOM     20  C   UNL     1       1.214   9.358  19.419  0.00  0.00    +0.000 C 
ATOM     21  C   UNL     1       0.425  10.663  19.305  0.00  0.00    +0.000 C 
ENDBRANCH   6  15
BRANCH   1  24
ATOM     22  C   UNL     1      -2.540  12.514  19.381  0.00  0.00    +0.000 C 
ATOM     23  O   UNL     1      -2.032  12.396  18.264  0.00  0.00    +0.000 OA
ATOM     24  N   UNL     1      -1.816  12.981  20.484  0.00  0.00    +0.000 N 
ATOM     25  H   UNL     1      -2.373  13.431  21.204  0.00  0.00    +0.000 HD
BRANCH  22  31
ATOM     26  C   UNL     1      -4.868  12.602  20.555  0.00  0.00    +0.000 A 
ATOM     27  C   UNL     1      -6.235  12.243  20.518  0.00  0.00    +0.000 A 
ATOM     28  C   UNL     1      -6.752  11.443  19.498  0.00  0.00    +0.000 A 
ATOM     29  C   UNL     1      -5.915  11.031  18.472  0.00  0.00    +0.000 A 
ATOM     30  C   UNL     1      -4.574  11.417  18.477  0.00  0.00    +0.000 A 
ATOM     31  C   UNL     1      -4.017  12.207  19.511  0.00  0.00    +0.000 A 
BRANCH  26  32
ATOM     32  O   UNL     1      -4.344  13.338  21.588  0.00  0.00    +0.000 OA
BRANCH  32  34
ATOM     33  C   UNL     1      -3.506  12.444  23.635  0.00  0.00    +0.000 C 
ATOM     34  C   UNL     1      -4.742  12.913  22.898  0.00  0.00    +0.000 C 
ENDBRANCH  32  34
ENDBRANCH  26  32
ENDBRANCH  22  31
ENDBRANCH   1  24
TORSDOF 5
ENDMDL
