MODEL 1
REMARK VINA RESULT:      -7.8      0.000      0.000
REMARK  Name = 
REMARK  3 active torsions:
REMARK  status: ('A' for Active; 'I' for Inactive)
REMARK    1  A    between atoms: C_1  and  N_2
REMARK    2  A    between atoms: C_6  and  C_7
REMARK    3  A    between atoms: C_12  and  O_13
REMARK                            x       y       z     vdW  Elec       q    Type
REMARK                         _______ _______ _______ _____ _____    ______ ____
ROOT
ATOM      1  C   UNL     1       4.114   4.339  17.496  0.00  0.00    +0.000 A 
ATOM      2  C   UNL     1       2.782   4.702  17.601  0.00  0.00    +0.000 A 
ATOM      3  C   UNL     1       2.286   4.123  18.798  0.00  0.00    +0.000 A 
ATOM      4  C   UNL     1       1.048   4.102  19.463  0.00  0.00    +0.000 A 
ATOM      5  C   UNL     1       0.943   3.394  20.670  0.00  0.00    +0.000 A 
ATOM      6  C   UNL     1       2.050   2.726  21.194  0.00  0.00    +0.000 A 
ATOM      7  C   UNL     1       3.289   2.727  20.554  0.00  0.00    +0.000 A 
ATOM      8  C   UNL     1       3.357   3.440  19.359  0.00  0.00    +0.000 A 
ATOM      9  O   UNL     1       4.462   3.570  18.574  0.00  0.00    +0.000 OA
ENDROOT
BRANCH   1  15
ATOM     10  C   UNL     1       8.027   5.564  12.440  0.00  0.00    +0.000 C 
ATOM     11  N   UNL     1       8.248   5.481  13.864  0.00  0.00    +0.000 N 
ATOM     12  C   UNL     1       7.185   5.166  14.693  0.00  0.00    +0.000 A 
ATOM     13  C   UNL     1       6.187   4.263  14.348  0.00  0.00    +0.000 A 
ATOM     14  C   UNL     1       5.162   3.985  15.257  0.00  0.00    +0.000 A 
ATOM     15  C   UNL     1       5.158   4.588  16.512  0.00  0.00    +0.000 A 
ATOM     16  C   UNL     1       6.214   5.454  16.775  0.00  0.00    +0.000 A 
ATOM     17  N   UNL     1       7.209   5.757  15.901  0.00  0.00    +0.000 NA
ATOM     18  H   UNL     1       8.725   6.276  14.285  0.00  0.00    +0.000 HD
ENDBRANCH   1  15
BRANCH   6  19
ATOM     19  O   UNL     1       1.956   2.035  22.371  0.00  0.00    +0.000 OA
ATOM     20  H   UNL     1       1.162   2.328  22.844  0.00  0.00    +0.000 HD
ENDBRANCH   6  19
TORSDOF 2
ENDMDL
MODEL 2
REMARK VINA RESULT:      -7.2      1.210      1.660
REMARK  Name = 
REMARK  3 active torsions:
REMARK  status: ('A' for Active; 'I' for Inactive)
REMARK    1  A    between atoms: C_1  and  N_2
REMARK    2  A    between atoms: C_6  and  C_7
REMARK    3  A    between atoms: C_12  and  O_13
REMARK                            x       y       z     vdW  Elec       q    Type
REMARK                         _______ _______ _______ _____ _____    ______ ____
ROOT
ATOM      1  C   UNL     1       4.843   4.046  17.380  0.00  0.00    +0.000 A 
ATOM      2  C   UNL     1       5.008   3.907  18.747  0.00  0.00    +0.000 A 
ATOM      3  C   UNL     1       3.749   3.529  19.282  0.00  0.00    +0.000 A 
ATOM      4  C   UNL     1       3.250   3.245  20.565  0.00  0.00    +0.000 A 
ATOM      5  C   UNL     1       1.898   2.894  20.699  0.00  0.00    +0.000 A 
ATOM      6  C   UNL     1       1.071   2.830  19.578  0.00  0.00    +0.000 A 
ATOM      7  C   UNL     1       1.539   3.110  18.294  0.00  0.00    +0.000 A 
ATOM      8  C   UNL     1       2.885   3.454  18.197  0.00  0.00    +0.000 A 
ATOM      9  O   UNL     1       3.545   3.765  17.047  0.00  0.00    +0.000 OA
ENDROOT
BRANCH   1  15
ATOM     10  C   UNL     1       7.948   5.801  11.934  0.00  0.00    +0.000 C 
ATOM     11  N   UNL     1       8.357   5.691  13.315  0.00  0.00    +0.000 N 
ATOM     12  C   UNL     1       7.443   5.251  14.255  0.00  0.00    +0.000 A 
ATOM     13  C   UNL     1       6.492   4.271  13.997  0.00  0.00    +0.000 A 
ATOM     14  C   UNL     1       5.622   3.867  15.013  0.00  0.00    +0.000 A 
ATOM     15  C   UNL     1       5.726   4.425  16.285  0.00  0.00    +0.000 A 
ATOM     16  C   UNL     1       6.726   5.376  16.453  0.00  0.00    +0.000 A 
ATOM     17  N   UNL     1       7.569   5.801  15.476  0.00  0.00    +0.000 NA
ATOM     18  H   UNL     1       8.812   6.513  13.707  0.00  0.00    +0.000 HD
ENDBRANCH   1  15
BRANCH   6  19
ATOM     19  O   UNL     1      -0.247   2.487  19.701  0.00  0.00    +0.000 OA
ATOM     20  H   UNL     1      -0.405   1.667  19.207  0.00  0.00    +0.000 HD
ENDBRANCH   6  19
TORSDOF 2
ENDMDL
MODEL 3
REMARK VINA RESULT:      -7.1      4.575      6.194
REMARK  Name = 
REMARK  3 active torsions:
REMARK  status: ('A' for Active; 'I' for Inactive)
REMARK    1  A    between atoms: C_1  and  N_2
REMARK    2  A    between atoms: C_6  and  C_7
REMARK    3  A    between atoms: C_12  and  O_13
REMARK                            x       y       z     vdW  Elec       q    Type
REMARK                         _______ _______ _______ _____ _____    ______ ____
ROOT
ATOM      1  C   UNL     1       2.105   6.787  19.878  0.00  0.00    +0.000 A 
ATOM      2  C   UNL     1       1.525   5.910  20.778  0.00  0.00    +0.000 A 
ATOM      3  C   UNL     1       2.265   4.701  20.717  0.00  0.00    +0.000 A 
ATOM      4  C   UNL     1       2.195   3.449  21.352  0.00  0.00    +0.000 A 
ATOM      5  C   UNL     1       3.139   2.468  21.016  0.00  0.00    +0.000 A 
ATOM      6  C   UNL     1       4.128   2.736  20.068  0.00  0.00    +0.000 A 
ATOM      7  C   UNL     1       4.219   3.968  19.420  0.00  0.00    +0.000 A 
ATOM      8  C   UNL     1       3.266   4.918  19.779  0.00  0.00    +0.000 A 
ATOM      9  O   UNL     1       3.171   6.178  19.272  0.00  0.00    +0.000 OA
ENDROOT
BRANCH   1  15
ATOM     10  C   UNL     1       1.123  13.153  18.931  0.00  0.00    +0.000 C 
ATOM     11  N   UNL     1       1.124  12.010  18.049  0.00  0.00    +0.000 N 
ATOM     12  C   UNL     1       1.345  10.750  18.578  0.00  0.00    +0.000 A 
ATOM     13  C   UNL     1       0.870  10.348  19.821  0.00  0.00    +0.000 A 
ATOM     14  C   UNL     1       1.117   9.048  20.268  0.00  0.00    +0.000 A 
ATOM     15  C   UNL     1       1.814   8.152  19.461  0.00  0.00    +0.000 A 
ATOM     16  C   UNL     1       2.223   8.638  18.224  0.00  0.00    +0.000 A 
ATOM     17  N   UNL     1       2.013   9.903  17.776  0.00  0.00    +0.000 NA
ATOM     18  H   UNL     1       1.712  12.090  17.222  0.00  0.00    +0.000 HD
ENDBRANCH   1  15
BRANCH   6  19
ATOM     19  O   UNL     1       5.053   1.786  19.736  0.00  0.00    +0.000 OA
ATOM     20  H   UNL     1       4.608   1.065  19.264  0.00  0.00    +0.000 HD
ENDBRANCH   6  19
TORSDOF 2
ENDMDL
MODEL 4
REMARK VINA RESULT:      -7.0      4.694      7.365
REMARK  Name = 
REMARK  3 active torsions:
REMARK  status: ('A' for Active; 'I' for Inactive)
REMARK    1  A    between atoms: C_1  and  N_2
REMARK    2  A    between atoms: C_6  and  C_7
REMARK    3  A    between atoms: C_12  and  O_13
REMARK                            x       y       z     vdW  Elec       q    Type
REMARK                         _______ _______ _______ _____ _____    ______ ____
ROOT
ATOM      1  C   UNL     1       3.056   6.888  18.111  0.00  0.00    +0.000 A 
ATOM      2  C   UNL     1       3.002   5.508  18.027  0.00  0.00    +0.000 A 
ATOM      3  C   UNL     1       4.090   5.097  17.215  0.00  0.00    +0.000 A 
ATOM      4  C   UNL     1       4.583   3.867  16.746  0.00  0.00    +0.000 A 
ATOM      5  C   UNL     1       5.726   3.865  15.933  0.00  0.00    +0.000 A 
ATOM      6  C   UNL     1       6.357   5.063  15.598  0.00  0.00    +0.000 A 
ATOM      7  C   UNL     1       5.888   6.298  16.047  0.00  0.00    +0.000 A 
ATOM      8  C   UNL     1       4.752   6.263  16.852  0.00  0.00    +0.000 A 
ATOM      9  O   UNL     1       4.129   7.346  17.394  0.00  0.00    +0.000 OA
ENDROOT
BRANCH   1  15
ATOM     10  C   UNL     1      -1.184  11.366  20.198  0.00  0.00    +0.000 C 
ATOM     11  N   UNL     1      -0.127  10.626  20.846  0.00  0.00    +0.000 N 
ATOM     12  C   UNL     1       0.634   9.744  20.100  0.00  0.00    +0.000 A 
ATOM     13  C   UNL     1       1.005   9.980  18.781  0.00  0.00    +0.000 A 
ATOM     14  C   UNL     1       1.797   9.046  18.108  0.00  0.00    +0.000 A 
ATOM     15  C   UNL     1       2.234   7.898  18.764  0.00  0.00    +0.000 A 
ATOM     16  C   UNL     1       1.834   7.765  20.089  0.00  0.00    +0.000 A 
ATOM     17  N   UNL     1       1.048   8.647  20.758  0.00  0.00    +0.000 NA
ATOM     18  H   UNL     1      -0.389  10.139  21.702  0.00  0.00    +0.000 HD
ENDBRANCH   1  15
BRANCH   6  19
ATOM     19  O   UNL     1       7.472   5.069  14.808  0.00  0.00    +0.000 OA
ATOM     20  H   UNL     1       7.731   5.989  14.637  0.00  0.00    +0.000 HD
ENDBRANCH   6  19
TORSDOF 2
ENDMDL
MODEL 5
REMARK VINA RESULT:      -7.0      4.569      7.414
REMARK  Name = 
REMARK  3 active torsions:
REMARK  status: ('A' for Active; 'I' for Inactive)
REMARK    1  A    between atoms: C_1  and  N_2
REMARK    2  A    between atoms: C_6  and  C_7
REMARK    3  A    between atoms: C_12  and  O_13
REMARK                            x       y       z     vdW  Elec       q    Type
REMARK                         _______ _______ _______ _____ _____    ______ ____
ROOT
ATOM      1  C   UNL     1       3.069   6.824  18.139  0.00  0.00    +0.000 A 
ATOM      2  C   UNL     1       3.059   5.445  18.024  0.00  0.00    +0.000 A 
ATOM      3  C   UNL     1       4.165   5.087  17.210  0.00  0.00    +0.000 A 
ATOM      4  C   UNL     1       4.699   3.883  16.717  0.00  0.00    +0.000 A 
ATOM      5  C   UNL     1       5.847   3.936  15.913  0.00  0.00    +0.000 A 
ATOM      6  C   UNL     1       6.442   5.161  15.611  0.00  0.00    +0.000 A 
ATOM      7  C   UNL     1       5.932   6.370  16.084  0.00  0.00    +0.000 A 
ATOM      8  C   UNL     1       4.792   6.281  16.879  0.00  0.00    +0.000 A 
ATOM      9  O   UNL     1       4.131   7.331  17.441  0.00  0.00    +0.000 OA
ENDROOT
BRANCH   1  15
ATOM     10  C   UNL     1      -0.080  11.128  21.873  0.00  0.00    +0.000 C 
ATOM     11  N   UNL     1      -0.241  10.703  20.502  0.00  0.00    +0.000 N 
ATOM     12  C   UNL     1       0.594   9.721  19.999  0.00  0.00    +0.000 A 
ATOM     13  C   UNL     1       1.040   8.638  20.747  0.00  0.00    +0.000 A 
ATOM     14  C   UNL     1       1.862   7.678  20.153  0.00  0.00    +0.000 A 
ATOM     15  C   UNL     1       2.211   7.792  18.809  0.00  0.00    +0.000 A 
ATOM     16  C   UNL     1       1.693   8.893  18.137  0.00  0.00    +0.000 A 
ATOM     17  N   UNL     1       0.910   9.851  18.698  0.00  0.00    +0.000 NA
ATOM     18  H   UNL     1      -0.272  11.448  19.809  0.00  0.00    +0.000 HD
ENDBRANCH   1  15
BRANCH   6  19
ATOM     19  O   UNL     1       7.563   5.220  14.829  0.00  0.00    +0.000 OA
ATOM     20  H   UNL     1       8.272   5.653  15.329  0.00  0.00    +0.000 HD
ENDBRANCH   6  19
TORSDOF 2
ENDMDL
MODEL 6
REMARK VINA RESULT:      -6.9      4.620      5.300
REMARK  Name = 
REMARK  3 active torsions:
REMARK  status: ('A' for Active; 'I' for Inactive)
REMARK    1  A    between atoms: C_1  and  N_2
REMARK    2  A    between atoms: C_6  and  C_7
REMARK    3  A    between atoms: C_12  and  O_13
REMARK                            x       y       z     vdW  Elec       q    Type
REMARK                         _______ _______ _______ _____ _____    ______ ____
ROOT
ATOM      1  C   UNL     1       2.310   7.874  18.764  0.00  0.00    +0.000 A 
ATOM      2  C   UNL     1       1.590   9.001  18.410  0.00  0.00    +0.000 A 
ATOM      3  C   UNL     1       1.002   9.510  19.597  0.00  0.00    +0.000 A 
ATOM      4  C   UNL     1       0.170  10.596  19.918  0.00  0.00    +0.000 A 
ATOM      5  C   UNL     1      -0.217  10.777  21.254  0.00  0.00    +0.000 A 
ATOM      6  C   UNL     1       0.219   9.892  22.241  0.00  0.00    +0.000 A 
ATOM      7  C   UNL     1       1.042   8.804  21.950  0.00  0.00    +0.000 A 
ATOM      8  C   UNL     1       1.406   8.655  20.614  0.00  0.00    +0.000 A 
ATOM      9  O   UNL     1       2.197   7.667  20.112  0.00  0.00    +0.000 OA
ENDROOT
BRANCH   1  15
ATOM     10  C   UNL     1       6.678   4.068  15.794  0.00  0.00    +0.000 C 
ATOM     11  N   UNL     1       5.258   3.949  16.027  0.00  0.00    +0.000 N 
ATOM     12  C   UNL     1       4.595   4.971  16.683  0.00  0.00    +0.000 A 
ATOM     13  C   UNL     1       4.903   6.315  16.514  0.00  0.00    +0.000 A 
ATOM     14  C   UNL     1       4.165   7.285  17.198  0.00  0.00    +0.000 A 
ATOM     15  C   UNL     1       3.109   6.907  18.023  0.00  0.00    +0.000 A 
ATOM     16  C   UNL     1       2.860   5.542  18.106  0.00  0.00    +0.000 A 
ATOM     17  N   UNL     1       3.576   4.579  17.469  0.00  0.00    +0.000 NA
ATOM     18  H   UNL     1       4.952   3.076  16.454  0.00  0.00    +0.000 HD
ENDBRANCH   1  15
BRANCH   6  19
ATOM     19  O   UNL     1      -0.152  10.063  23.546  0.00  0.00    +0.000 OA
ATOM     20  H   UNL     1       0.367  10.788  23.928  0.00  0.00    +0.000 HD
ENDBRANCH   6  19
TORSDOF 2
ENDMDL
MODEL 7
REMARK VINA RESULT:      -6.8      5.463      7.844
REMARK  Name = 
REMARK  3 active torsions:
REMARK  status: ('A' for Active; 'I' for Inactive)
REMARK    1  A    between atoms: C_1  and  N_2
REMARK    2  A    between atoms: C_6  and  C_7
REMARK    3  A    between atoms: C_12  and  O_13
REMARK                            x       y       z     vdW  Elec       q    Type
REMARK                         _______ _______ _______ _____ _____    ______ ____
ROOT
ATOM      1  C   UNL     1       2.077   7.845  19.270  0.00  0.00    +0.000 A 
ATOM      2  C   UNL     1       2.717   7.801  18.044  0.00  0.00    +0.000 A 
ATOM      3  C   UNL     1       3.486   6.608  18.018  0.00  0.00    +0.000 A 
ATOM      4  C   UNL     1       4.347   5.990  17.095  0.00  0.00    +0.000 A 
ATOM      5  C   UNL     1       4.944   4.769  17.443  0.00  0.00    +0.000 A 
ATOM      6  C   UNL     1       4.684   4.185  18.683  0.00  0.00    +0.000 A 
ATOM      7  C   UNL     1       3.836   4.777  19.619  0.00  0.00    +0.000 A 
ATOM      8  C   UNL     1       3.261   5.988  19.241  0.00  0.00    +0.000 A 
ATOM      9  O   UNL     1       2.409   6.734  19.997  0.00  0.00    +0.000 OA
ENDROOT
BRANCH   1  15
ATOM     10  C   UNL     1      -1.319  12.027  22.926  0.00  0.00    +0.000 C 
ATOM     11  N   UNL     1      -1.370  11.667  21.528  0.00  0.00    +0.000 N 
ATOM     12  C   UNL     1      -0.508  10.695  21.051  0.00  0.00    +0.000 A 
ATOM     13  C   UNL     1      -0.140   9.572  21.783  0.00  0.00    +0.000 A 
ATOM     14  C   UNL     1       0.717   8.627  21.214  0.00  0.00    +0.000 A 
ATOM     15  C   UNL     1       1.178   8.795  19.911  0.00  0.00    +0.000 A 
ATOM     16  C   UNL     1       0.732   9.934  19.250  0.00  0.00    +0.000 A 
ATOM     17  N   UNL     1      -0.083  10.878  19.789  0.00  0.00    +0.000 NA
ATOM     18  H   UNL     1      -1.333  12.443  20.870  0.00  0.00    +0.000 HD
ENDBRANCH   1  15
BRANCH   6  19
ATOM     19  O   UNL     1       5.260   2.994  19.029  0.00  0.00    +0.000 OA
ATOM     20  H   UNL     1       4.803   2.277  18.563  0.00  0.00    +0.000 HD
ENDBRANCH   6  19
TORSDOF 2
ENDMDL
MODEL 8
REMARK VINA RESULT:      -6.8      4.299      5.807
REMARK  Name = 
REMARK  3 active torsions:
REMARK  status: ('A' for Active; 'I' for Inactive)
REMARK    1  A    between atoms: C_1  and  N_2
REMARK    2  A    between atoms: C_6  and  C_7
REMARK    3  A    between atoms: C_12  and  O_13
REMARK                            x       y       z     vdW  Elec       q    Type
REMARK                         _______ _______ _______ _____ _____    ______ ____
ROOT
ATOM      1  C   UNL     1       2.380   6.069  18.593  0.00  0.00    +0.000 A 
ATOM      2  C   UNL     1       1.874   5.003  17.870  0.00  0.00    +0.000 A 
ATOM      3  C   UNL     1       2.601   3.849  18.265  0.00  0.00    +0.000 A 
ATOM      4  C   UNL     1       2.587   2.488  17.916  0.00  0.00    +0.000 A 
ATOM      5  C   UNL     1       3.492   1.622  18.548  0.00  0.00    +0.000 A 
ATOM      6  C   UNL     1       4.386   2.108  19.502  0.00  0.00    +0.000 A 
ATOM      7  C   UNL     1       4.424   3.455  19.864  0.00  0.00    +0.000 A 
ATOM      8  C   UNL     1       3.511   4.286  19.219  0.00  0.00    +0.000 A 
ATOM      9  O   UNL     1       3.379   5.626  19.419  0.00  0.00    +0.000 OA
ENDROOT
BRANCH   1  15
ATOM     10  C   UNL     1       1.508  12.425  19.697  0.00  0.00    +0.000 C 
ATOM     11  N   UNL     1       1.355  11.594  18.526  0.00  0.00    +0.000 N 
ATOM     12  C   UNL     1       1.598  10.236  18.628  0.00  0.00    +0.000 A 
ATOM     13  C   UNL     1       1.273   9.482  19.749  0.00  0.00    +0.000 A 
ATOM     14  C   UNL     1       1.531   8.109  19.758  0.00  0.00    +0.000 A 
ATOM     15  C   UNL     1       2.085   7.495  18.638  0.00  0.00    +0.000 A 
ATOM     16  C   UNL     1       2.348   8.326  17.555  0.00  0.00    +0.000 A 
ATOM     17  N   UNL     1       2.127   9.666  17.531  0.00  0.00    +0.000 NA
ATOM     18  H   UNL     1       1.834  11.918  17.688  0.00  0.00    +0.000 HD
ENDBRANCH   1  15
BRANCH   6  19
ATOM     19  O   UNL     1       5.271   1.270  20.123  0.00  0.00    +0.000 OA
ATOM     20  H   UNL     1       5.013   0.352  19.942  0.00  0.00    +0.000 HD
ENDBRANCH   6  19
TORSDOF 2
ENDMDL
MODEL 9
REMARK VINA RESULT:      -6.8      4.647      5.996
REMARK  Name = 
REMARK  3 active torsions:
REMARK  status: ('A' for Active; 'I' for Inactive)
REMARK    1  A    between atoms: C_1  and  N_2
REMARK    2  A    between atoms: C_6  and  C_7
REMARK    3  A    between atoms: C_12  and  O_13
REMARK                            x       y       z     vdW  Elec       q    Type
REMARK                         _______ _______ _______ _____ _____    ______ ____
ROOT
ATOM      1  C   UNL     1       2.331   6.093  18.733  0.00  0.00    +0.000 A 
ATOM      2  C   UNL     1       1.921   5.107  17.853  0.00  0.00    +0.000 A 
ATOM      3  C   UNL     1       2.640   3.929  18.182  0.00  0.00    +0.000 A 
ATOM      4  C   UNL     1       2.695   2.615  17.685  0.00  0.00    +0.000 A 
ATOM      5  C   UNL     1       3.562   1.698  18.297  0.00  0.00    +0.000 A 
ATOM      6  C   UNL     1       4.354   2.088  19.378  0.00  0.00    +0.000 A 
ATOM      7  C   UNL     1       4.322   3.386  19.890  0.00  0.00    +0.000 A 
ATOM      8  C   UNL     1       3.450   4.269  19.259  0.00  0.00    +0.000 A 
ATOM      9  O   UNL     1       3.263   5.576  19.593  0.00  0.00    +0.000 OA
ENDROOT
BRANCH   1  15
ATOM     10  C   UNL     1       0.286  12.273  18.677  0.00  0.00    +0.000 C 
ATOM     11  N   UNL     1       0.968  11.465  19.661  0.00  0.00    +0.000 N 
ATOM     12  C   UNL     1       1.296  10.158  19.349  0.00  0.00    +0.000 A 
ATOM     13  C   UNL     1       1.708   9.753  18.084  0.00  0.00    +0.000 A 
ATOM     14  C   UNL     1       2.045   8.416  17.862  0.00  0.00    +0.000 A 
ATOM     15  C   UNL     1       1.996   7.499  18.909  0.00  0.00    +0.000 A 
ATOM     16  C   UNL     1       1.600   8.004  20.142  0.00  0.00    +0.000 A 
ATOM     17  N   UNL     1       1.246   9.294  20.378  0.00  0.00    +0.000 NA
ATOM     18  H   UNL     1       0.547  11.451  20.589  0.00  0.00    +0.000 HD
ENDBRANCH   1  15
BRANCH   6  19
ATOM     19  O   UNL     1       5.200   1.200  19.981  0.00  0.00    +0.000 OA
ATOM     20  H   UNL     1       4.710   0.709  20.659  0.00  0.00    +0.000 HD
ENDBRANCH   6  19
TORSDOF 2
ENDMDL
