MODEL 1
REMARK VINA RESULT:      -8.2      0.000      0.000
REMARK  Name = 
REMARK  11 active torsions:
REMARK  status: ('A' for Active; 'I' for Inactive)
REMARK    1  A    between atoms: C_2  and  C_27
REMARK    2  A    between atoms: N_3  and  C_4
REMARK    3  A    between atoms: C_4  and  C_5
REMARK    4  A    between atoms: C_4  and  C_12
REMARK    5  A    between atoms: C_5  and  C_6
REMARK    6  A    between atoms: C_12  and  C_14
REMARK    7  A    between atoms: C_14  and  C_15
REMARK    8  A    between atoms: C_15  and  C_16
REMARK    9  A    between atoms: C_22  and  P_23
REMARK   10  A    between atoms: P_23  and  O_25
REMARK   11  A    between atoms: P_23  and  O_26
REMARK                            x       y       z     vdW  Elec       q    Type
REMARK                         _______ _______ _______ _____ _____    ______ ____
ROOT
ATOM      1  C   UNL     1       6.023   5.991  17.997  0.00  0.00    +0.000 C 
ENDROOT
BRANCH   1   4
ATOM      2  O   UNL     1       5.025   6.764  15.436  0.00  0.00    +0.000 OA
ATOM      3  C   UNL     1       5.752   5.778  15.522  0.00  0.00    +0.000 C 
ATOM      4  N   UNL     1       6.271   5.327  16.715  0.00  0.00    +0.000 N 
ATOM      5  H   UNL     1       7.131   4.788  16.640  0.00  0.00    +0.000 HD
BRANCH   3   6
ATOM      6  C   UNL     1       6.144   5.003  14.312  0.00  0.00    +0.000 A 
ATOM      7  C   UNL     1       7.382   5.282  13.713  0.00  0.00    +0.000 A 
ATOM      8  C   UNL     1       7.776   4.604  12.557  0.00  0.00    +0.000 A 
ATOM      9  C   UNL     1       6.935   3.650  11.985  0.00  0.00    +0.000 A 
ATOM     10  C   UNL     1       5.699   3.374  12.567  0.00  0.00    +0.000 A 
ATOM     11  C   UNL     1       5.302   4.047  13.726  0.00  0.00    +0.000 A 
ENDBRANCH   3   6
ENDBRANCH   1   4
BRANCH   1  12
ATOM     12  C   UNL     1       7.369   6.625  18.395  0.00  0.00    +0.000 C 
ATOM     13  O   UNL     1       8.196   6.045  19.104  0.00  0.00    +0.000 OA
BRANCH  12  14
ATOM     14  C   UNL     1       7.726   7.952  17.750  0.00  0.00    +0.000 C 
BRANCH  14  15
ATOM     15  C   UNL     1       8.656   8.782  18.634  0.00  0.00    +0.000 C 
BRANCH  15  16
ATOM     16  C   UNL     1       8.641  10.274  18.314  0.00  0.00    +0.000 C 
ATOM     17  O   UNL     1       8.067  10.744  17.336  0.00  0.00    +0.000 OA
ATOM     18  N   UNL     1       9.284  11.110  19.183  0.00  0.00    +0.000 N 
ATOM     19  C   UNL     1      10.067  10.728  20.343  0.00  0.00    +0.000 C 
ATOM     20  C   UNL     1       9.823  11.871  21.302  0.00  0.00    +0.000 C 
ATOM     21  C   UNL     1       9.774  13.089  20.386  0.00  0.00    +0.000 C 
ATOM     22  C   UNL     1       9.227  12.587  19.022  0.00  0.00    +0.000 C 
BRANCH  22  23
ATOM     23  P   UNL     1      10.178  13.181  17.575  0.00  0.00    +0.000 P 
ATOM     24  O   UNL     1       9.580  14.589  17.665  0.00  0.00    +0.000 OA
BRANCH  23  25
ATOM     25  O   UNL     1      11.579  13.251  18.426  0.00  0.00    +0.000 OA
ATOM     26  H   UNL     1      11.418  13.428  19.372  0.00  0.00    +0.000 HD
ENDBRANCH  23  25
BRANCH  23  27
ATOM     27  O   UNL     1      11.076  13.742  16.207  0.00  0.00    +0.000 OA
ATOM     28  H   UNL     1      10.596  13.384  15.434  0.00  0.00    +0.000 HD
ENDBRANCH  23  27
ENDBRANCH  22  23
ENDBRANCH  15  16
ENDBRANCH  14  15
ENDBRANCH  12  14
ENDBRANCH   1  12
BRANCH   1  29
ATOM     29  C   UNL     1       5.537   4.983  19.043  0.00  0.00    +0.000 C 
BRANCH  29  30
ATOM     30  C   UNL     1       4.071   4.634  18.971  0.00  0.00    +0.000 A 
ATOM     31  C   UNL     1       3.260   5.157  17.955  0.00  0.00    +0.000 A 
ATOM     32  C   UNL     1       1.927   4.757  17.844  0.00  0.00    +0.000 A 
ATOM     33  C   UNL     1       1.391   3.844  18.750  0.00  0.00    +0.000 A 
ATOM     34  C   UNL     1       2.184   3.337  19.778  0.00  0.00    +0.000 A 
ATOM     35  C   UNL     1       3.517   3.732  19.888  0.00  0.00    +0.000 A 
ENDBRANCH  29  30
ENDBRANCH   1  29
TORSDOF 11
ENDMDL
MODEL 2
REMARK VINA RESULT:      -8.2      4.970      5.825
REMARK  Name = 
REMARK  11 active torsions:
REMARK  status: ('A' for Active; 'I' for Inactive)
REMARK    1  A    between atoms: C_2  and  C_27
REMARK    2  A    between atoms: N_3  and  C_4
REMARK    3  A    between atoms: C_4  and  C_5
REMARK    4  A    between atoms: C_4  and  C_12
REMARK    5  A    between atoms: C_5  and  C_6
REMARK    6  A    between atoms: C_12  and  C_14
REMARK    7  A    between atoms: C_14  and  C_15
REMARK    8  A    between atoms: C_15  and  C_16
REMARK    9  A    between atoms: C_22  and  P_23
REMARK   10  A    between atoms: P_23  and  O_25
REMARK   11  A    between atoms: P_23  and  O_26
REMARK                            x       y       z     vdW  Elec       q    Type
REMARK                         _______ _______ _______ _____ _____    ______ ____
ROOT
ATOM      1  C   UNL     1       3.855   4.843  17.205  0.00  0.00    +0.000 C 
ENDROOT
BRANCH   1   4
ATOM      2  O   UNL     1       6.497   3.895  16.681  0.00  0.00    +0.000 OA
ATOM      3  C   UNL     1       5.827   4.341  15.753  0.00  0.00    +0.000 C 
ATOM      4  N   UNL     1       4.548   4.828  15.914  0.00  0.00    +0.000 N 
ATOM      5  H   UNL     1       3.963   4.796  15.083  0.00  0.00    +0.000 HD
BRANCH   3   6
ATOM      6  C   UNL     1       6.357   4.365  14.362  0.00  0.00    +0.000 A 
ATOM      7  C   UNL     1       5.827   3.458  13.430  0.00  0.00    +0.000 A 
ATOM      8  C   UNL     1       6.318   3.421  12.123  0.00  0.00    +0.000 A 
ATOM      9  C   UNL     1       7.347   4.280  11.739  0.00  0.00    +0.000 A 
ATOM     10  C   UNL     1       7.887   5.176  12.660  0.00  0.00    +0.000 A 
ATOM     11  C   UNL     1       7.396   5.220  13.968  0.00  0.00    +0.000 A 
ENDBRANCH   3   6
ENDBRANCH   1   4
BRANCH   1  12
ATOM     12  C   UNL     1       4.419   6.062  17.956  0.00  0.00    +0.000 C 
ATOM     13  O   UNL     1       5.462   6.017  18.615  0.00  0.00    +0.000 OA
BRANCH  12  14
ATOM     14  C   UNL     1       3.723   7.394  17.735  0.00  0.00    +0.000 C 
BRANCH  14  15
ATOM     15  C   UNL     1       2.409   7.483  18.509  0.00  0.00    +0.000 C 
BRANCH  15  16
ATOM     16  C   UNL     1       1.759   8.863  18.461  0.00  0.00    +0.000 C 
ATOM     17  O   UNL     1       1.746   9.564  17.453  0.00  0.00    +0.000 OA
ATOM     18  N   UNL     1       1.144   9.309  19.598  0.00  0.00    +0.000 N 
ATOM     19  C   UNL     1       1.119   8.652  20.890  0.00  0.00    +0.000 C 
ATOM     20  C   UNL     1      -0.231   9.050  21.441  0.00  0.00    +0.000 C 
ATOM     21  C   UNL     1      -0.395  10.487  20.958  0.00  0.00    +0.000 C 
ATOM     22  C   UNL     1       0.383  10.585  19.617  0.00  0.00    +0.000 C 
BRANCH  22  23
ATOM     23  P   UNL     1       1.462  12.059  19.489  0.00  0.00    +0.000 P 
ATOM     24  O   UNL     1       0.321  12.943  18.974  0.00  0.00    +0.000 OA
BRANCH  23  25
ATOM     25  O   UNL     1       1.481  12.282  21.115  0.00  0.00    +0.000 OA
ATOM     26  H   UNL     1       1.462  11.433  21.595  0.00  0.00    +0.000 HD
ENDBRANCH  23  25
BRANCH  23  27
ATOM     27  O   UNL     1       2.482  13.451  19.368  0.00  0.00    +0.000 OA
ATOM     28  H   UNL     1       1.939  14.184  19.721  0.00  0.00    +0.000 HD
ENDBRANCH  23  27
ENDBRANCH  22  23
ENDBRANCH  15  16
ENDBRANCH  14  15
ENDBRANCH  12  14
ENDBRANCH   1  12
BRANCH   1  29
ATOM     29  C   UNL     1       4.106   3.538  17.968  0.00  0.00    +0.000 C 
BRANCH  29  30
ATOM     30  C   UNL     1       3.142   3.254  19.093  0.00  0.00    +0.000 A 
ATOM     31  C   UNL     1       3.589   2.681  20.292  0.00  0.00    +0.000 A 
ATOM     32  C   UNL     1       2.706   2.506  21.359  0.00  0.00    +0.000 A 
ATOM     33  C   UNL     1       1.372   2.890  21.236  0.00  0.00    +0.000 A 
ATOM     34  C   UNL     1       0.914   3.438  20.040  0.00  0.00    +0.000 A 
ATOM     35  C   UNL     1       1.794   3.617  18.974  0.00  0.00    +0.000 A 
ENDBRANCH  29  30
ENDBRANCH   1  29
TORSDOF 11
ENDMDL
MODEL 3
REMARK VINA RESULT:      -8.0      0.808      4.585
REMARK  Name = 
REMARK  11 active torsions:
REMARK  status: ('A' for Active; 'I' for Inactive)
REMARK    1  A    between atoms: C_2  and  C_27
REMARK    2  A    between atoms: N_3  and  C_4
REMARK    3  A    between atoms: C_4  and  C_5
REMARK    4  A    between atoms: C_4  and  C_12
REMARK    5  A    between atoms: C_5  and  C_6
REMARK    6  A    between atoms: C_12  and  C_14
REMARK    7  A    between atoms: C_14  and  C_15
REMARK    8  A    between atoms: C_15  and  C_16
REMARK    9  A    between atoms: C_22  and  P_23
REMARK   10  A    between atoms: P_23  and  O_25
REMARK   11  A    between atoms: P_23  and  O_26
REMARK                            x       y       z     vdW  Elec       q    Type
REMARK                         _______ _______ _______ _____ _____    ______ ____
ROOT
ATOM      1  C   UNL     1       6.888   5.506  17.174  0.00  0.00    +0.000 C 
ENDROOT
BRANCH   1   4
ATOM      2  O   UNL     1       4.397   6.888  17.360  0.00  0.00    +0.000 OA
ATOM      3  C   UNL     1       4.511   5.786  17.891  0.00  0.00    +0.000 C 
ATOM      4  N   UNL     1       5.676   5.052  17.860  0.00  0.00    +0.000 N 
ATOM      5  H   UNL     1       5.560   4.047  17.964  0.00  0.00    +0.000 HD
BRANCH   3   6
ATOM      6  C   UNL     1       3.365   5.151  18.598  0.00  0.00    +0.000 A 
ATOM      7  C   UNL     1       2.569   4.236  17.891  0.00  0.00    +0.000 A 
ATOM      8  C   UNL     1       1.463   3.640  18.504  0.00  0.00    +0.000 A 
ATOM      9  C   UNL     1       1.138   3.961  19.821  0.00  0.00    +0.000 A 
ATOM     10  C   UNL     1       1.916   4.877  20.527  0.00  0.00    +0.000 A 
ATOM     11  C   UNL     1       3.025   5.472  19.920  0.00  0.00    +0.000 A 
ENDBRANCH   3   6
ENDBRANCH   1   4
BRANCH   1  12
ATOM     12  C   UNL     1       7.549   6.511  18.136  0.00  0.00    +0.000 C 
ATOM     13  O   UNL     1       8.011   6.181  19.232  0.00  0.00    +0.000 OA
BRANCH  12  14
ATOM     14  C   UNL     1       7.761   7.923  17.621  0.00  0.00    +0.000 C 
BRANCH  14  15
ATOM     15  C   UNL     1       8.576   8.768  18.599  0.00  0.00    +0.000 C 
BRANCH  15  16
ATOM     16  C   UNL     1       8.594  10.256  18.261  0.00  0.00    +0.000 C 
ATOM     17  O   UNL     1       8.059  10.723  17.260  0.00  0.00    +0.000 OA
ATOM     18  N   UNL     1       9.219  11.094  19.142  0.00  0.00    +0.000 N 
ATOM     19  C   UNL     1       9.957  10.715  20.332  0.00  0.00    +0.000 C 
ATOM     20  C   UNL     1       9.697  11.872  21.269  0.00  0.00    +0.000 C 
ATOM     21  C   UNL     1       9.697  13.080  20.338  0.00  0.00    +0.000 C 
ATOM     22  C   UNL     1       9.189  12.569  18.963  0.00  0.00    +0.000 C 
BRANCH  22  23
ATOM     23  P   UNL     1      10.195  13.133  17.541  0.00  0.00    +0.000 P 
ATOM     24  O   UNL     1       9.787  14.597  17.736  0.00  0.00    +0.000 OA
BRANCH  23  25
ATOM     25  O   UNL     1      11.601  12.962  18.370  0.00  0.00    +0.000 OA
ATOM     26  H   UNL     1      11.677  12.077  18.774  0.00  0.00    +0.000 HD
ENDBRANCH  23  25
BRANCH  23  27
ATOM     27  O   UNL     1      11.147  13.665  16.198  0.00  0.00    +0.000 OA
ATOM     28  H   UNL     1      11.983  13.164  16.276  0.00  0.00    +0.000 HD
ENDBRANCH  23  27
ENDBRANCH  22  23
ENDBRANCH  15  16
ENDBRANCH  14  15
ENDBRANCH  12  14
ENDBRANCH   1  12
BRANCH   1  29
ATOM     29  C   UNL     1       6.538   6.152  15.829  0.00  0.00    +0.000 C 
BRANCH  29  30
ATOM     30  C   UNL     1       6.509   5.210  14.651  0.00  0.00    +0.000 A 
ATOM     31  C   UNL     1       5.440   4.322  14.469  0.00  0.00    +0.000 A 
ATOM     32  C   UNL     1       5.379   3.520  13.328  0.00  0.00    +0.000 A 
ATOM     33  C   UNL     1       6.387   3.588  12.367  0.00  0.00    +0.000 A 
ATOM     34  C   UNL     1       7.465   4.451  12.552  0.00  0.00    +0.000 A 
ATOM     35  C   UNL     1       7.527   5.256  13.688  0.00  0.00    +0.000 A 
ENDBRANCH  29  30
ENDBRANCH   1  29
TORSDOF 11
ENDMDL
MODEL 4
REMARK VINA RESULT:      -8.0      1.313      1.356
REMARK  Name = 
REMARK  11 active torsions:
REMARK  status: ('A' for Active; 'I' for Inactive)
REMARK    1  A    between atoms: C_2  and  C_27
REMARK    2  A    between atoms: N_3  and  C_4
REMARK    3  A    between atoms: C_4  and  C_5
REMARK    4  A    between atoms: C_4  and  C_12
REMARK    5  A    between atoms: C_5  and  C_6
REMARK    6  A    between atoms: C_12  and  C_14
REMARK    7  A    between atoms: C_14  and  C_15
REMARK    8  A    between atoms: C_15  and  C_16
REMARK    9  A    between atoms: C_22  and  P_23
REMARK   10  A    between atoms: P_23  and  O_25
REMARK   11  A    between atoms: P_23  and  O_26
REMARK                            x       y       z     vdW  Elec       q    Type
REMARK                         _______ _______ _______ _____ _____    ______ ____
ROOT
ATOM      1  C   UNL     1       6.294   6.899  17.692  0.00  0.00    +0.000 C 
ENDROOT
BRANCH   1   4
ATOM      2  O   UNL     1       7.573   4.488  16.853  0.00  0.00    +0.000 OA
ATOM      3  C   UNL     1       7.041   5.207  16.011  0.00  0.00    +0.000 C 
ATOM      4  N   UNL     1       6.409   6.391  16.322  0.00  0.00    +0.000 N 
ATOM      5  H   UNL     1       5.694   6.689  15.664  0.00  0.00    +0.000 HD
BRANCH   3   6
ATOM      6  C   UNL     1       7.025   4.825  14.572  0.00  0.00    +0.000 A 
ATOM      7  C   UNL     1       7.847   5.536  13.683  0.00  0.00    +0.000 A 
ATOM      8  C   UNL     1       7.838   5.234  12.318  0.00  0.00    +0.000 A 
ATOM      9  C   UNL     1       7.003   4.230  11.830  0.00  0.00    +0.000 A 
ATOM     10  C   UNL     1       6.175   3.527  12.704  0.00  0.00    +0.000 A 
ATOM     11  C   UNL     1       6.183   3.822  14.070  0.00  0.00    +0.000 A 
ENDBRANCH   3   6
ENDBRANCH   1   4
BRANCH   1  12
ATOM     12  C   UNL     1       7.702   7.403  18.060  0.00  0.00    +0.000 C 
ATOM     13  O   UNL     1       8.498   6.733  18.723  0.00  0.00    +0.000 OA
BRANCH  12  14
ATOM     14  C   UNL     1       8.152   8.714  17.439  0.00  0.00    +0.000 C 
BRANCH  14  15
ATOM     15  C   UNL     1       7.620   9.920  18.211  0.00  0.00    +0.000 C 
BRANCH  15  16
ATOM     16  C   UNL     1       8.371  11.216  17.922  0.00  0.00    +0.000 C 
ATOM     17  O   UNL     1       8.068  11.978  17.008  0.00  0.00    +0.000 OA
ATOM     18  N   UNL     1       9.412  11.538  18.747  0.00  0.00    +0.000 N 
ATOM     19  C   UNL     1       9.951  10.732  19.826  0.00  0.00    +0.000 C 
ATOM     20  C   UNL     1      10.406  11.771  20.825  0.00  0.00    +0.000 C 
ATOM     21  C   UNL     1      10.946  12.890  19.941  0.00  0.00    +0.000 C 
ATOM     22  C   UNL     1      10.129  12.834  18.621  0.00  0.00    +0.000 C 
BRANCH  22  23
ATOM     23  P   UNL     1      11.154  12.934  17.107  0.00  0.00    +0.000 P 
ATOM     24  O   UNL     1      11.751  14.287  17.509  0.00  0.00    +0.000 OA
BRANCH  23  25
ATOM     25  O   UNL     1      12.217  11.811  17.659  0.00  0.00    +0.000 OA
ATOM     26  H   UNL     1      11.868  10.906  17.562  0.00  0.00    +0.000 HD
ENDBRANCH  23  25
BRANCH  23  27
ATOM     27  O   UNL     1      12.123  13.028  15.677  0.00  0.00    +0.000 OA
ATOM     28  H   UNL     1      12.693  13.810  15.817  0.00  0.00    +0.000 HD
ENDBRANCH  23  27
ENDBRANCH  22  23
ENDBRANCH  15  16
ENDBRANCH  14  15
ENDBRANCH  12  14
ENDBRANCH   1  12
BRANCH   1  29
ATOM     29  C   UNL     1       5.819   5.793  18.640  0.00  0.00    +0.000 C 
BRANCH  29  30
ATOM     30  C   UNL     1       4.427   5.275  18.380  0.00  0.00    +0.000 A 
ATOM     31  C   UNL     1       3.315   6.122  18.487  0.00  0.00    +0.000 A 
ATOM     32  C   UNL     1       2.042   5.656  18.156  0.00  0.00    +0.000 A 
ATOM     33  C   UNL     1       1.865   4.341  17.729  0.00  0.00    +0.000 A 
ATOM     34  C   UNL     1       2.961   3.485  17.643  0.00  0.00    +0.000 A 
ATOM     35  C   UNL     1       4.235   3.949  17.969  0.00  0.00    +0.000 A 
ENDBRANCH  29  30
ENDBRANCH   1  29
TORSDOF 11
ENDMDL
MODEL 5
REMARK VINA RESULT:      -8.0      4.787      7.602
REMARK  Name = 
REMARK  11 active torsions:
REMARK  status: ('A' for Active; 'I' for Inactive)
REMARK    1  A    between atoms: C_2  and  C_27
REMARK    2  A    between atoms: N_3  and  C_4
REMARK    3  A    between atoms: C_4  and  C_5
REMARK    4  A    between atoms: C_4  and  C_12
REMARK    5  A    between atoms: C_5  and  C_6
REMARK    6  A    between atoms: C_12  and  C_14
REMARK    7  A    between atoms: C_14  and  C_15
REMARK    8  A    between atoms: C_15  and  C_16
REMARK    9  A    between atoms: C_22  and  P_23
REMARK   10  A    between atoms: P_23  and  O_25
REMARK   11  A    between atoms: P_23  and  O_26
REMARK                            x       y       z     vdW  Elec       q    Type
REMARK                         _______ _______ _______ _____ _____    ______ ____
ROOT
ATOM      1  C   UNL     1       5.032   4.930  16.752  0.00  0.00    +0.000 C 
ENDROOT
BRANCH   1   4
ATOM      2  O   UNL     1       5.624   3.923  19.357  0.00  0.00    +0.000 OA
ATOM      3  C   UNL     1       4.456   3.957  18.980  0.00  0.00    +0.000 C 
ATOM      4  N   UNL     1       4.078   4.418  17.738  0.00  0.00    +0.000 N 
ATOM      5  H   UNL     1       3.125   4.767  17.675  0.00  0.00    +0.000 HD
BRANCH   3   6
ATOM      6  C   UNL     1       3.347   3.514  19.870  0.00  0.00    +0.000 A 
ATOM      7  C   UNL     1       2.089   4.117  19.720  0.00  0.00    +0.000 A 
ATOM      8  C   UNL     1       1.029   3.757  20.556  0.00  0.00    +0.000 A 
ATOM      9  C   UNL     1       1.218   2.801  21.552  0.00  0.00    +0.000 A 
ATOM     10  C   UNL     1       2.468   2.204  21.716  0.00  0.00    +0.000 A 
ATOM     11  C   UNL     1       3.530   2.558  20.879  0.00  0.00    +0.000 A 
ENDBRANCH   3   6
ENDBRANCH   1   4
BRANCH   1  12
ATOM     12  C   UNL     1       5.155   6.437  17.048  0.00  0.00    +0.000 C 
ATOM     13  O   UNL     1       6.233   6.981  17.301  0.00  0.00    +0.000 OA
BRANCH  12  14
ATOM     14  C   UNL     1       3.906   7.281  16.866  0.00  0.00    +0.000 C 
BRANCH  14  15
ATOM     15  C   UNL     1       3.083   7.362  18.151  0.00  0.00    +0.000 C 
BRANCH  15  16
ATOM     16  C   UNL     1       2.167   8.580  18.220  0.00  0.00    +0.000 C 
ATOM     17  O   UNL     1       1.972   9.328  17.267  0.00  0.00    +0.000 OA
ATOM     18  N   UNL     1       1.523   8.817  19.402  0.00  0.00    +0.000 N 
ATOM     19  C   UNL     1       1.683   8.085  20.644  0.00  0.00    +0.000 C 
ATOM     20  C   UNL     1       0.304   8.163  21.258  0.00  0.00    +0.000 C 
ATOM     21  C   UNL     1      -0.165   9.565  20.885  0.00  0.00    +0.000 C 
ATOM     22  C   UNL     1       0.521   9.907  19.534  0.00  0.00    +0.000 C 
BRANCH  22  23
ATOM     23  P   UNL     1       1.275  11.575  19.484  0.00  0.00    +0.000 P 
ATOM     24  O   UNL     1      -0.024  12.231  19.005  0.00  0.00    +0.000 OA
BRANCH  23  25
ATOM     25  O   UNL     1       1.255  11.718  21.119  0.00  0.00    +0.000 OA
ATOM     26  H   UNL     1       2.151  11.851  21.481  0.00  0.00    +0.000 HD
ENDBRANCH  23  25
BRANCH  23  27
ATOM     27  O   UNL     1       1.988  13.150  19.437  0.00  0.00    +0.000 OA
ATOM     28  H   UNL     1       1.877  13.498  20.344  0.00  0.00    +0.000 HD
ENDBRANCH  23  27
ENDBRANCH  22  23
ENDBRANCH  15  16
ENDBRANCH  14  15
ENDBRANCH  12  14
ENDBRANCH   1  12
BRANCH   1  29
ATOM     29  C   UNL     1       4.529   4.670  15.328  0.00  0.00    +0.000 C 
BRANCH  29  30
ATOM     30  C   UNL     1       5.606   4.466  14.291  0.00  0.00    +0.000 A 
ATOM     31  C   UNL     1       5.402   3.604  13.206  0.00  0.00    +0.000 A 
ATOM     32  C   UNL     1       6.369   3.492  12.205  0.00  0.00    +0.000 A 
ATOM     33  C   UNL     1       7.550   4.229  12.285  0.00  0.00    +0.000 A 
ATOM     34  C   UNL     1       7.771   5.071  13.374  0.00  0.00    +0.000 A 
ATOM     35  C   UNL     1       6.805   5.187  14.372  0.00  0.00    +0.000 A 
ENDBRANCH  29  30
ENDBRANCH   1  29
TORSDOF 11
ENDMDL
MODEL 6
REMARK VINA RESULT:      -8.0      7.166     10.305
REMARK  Name = 
REMARK  11 active torsions:
REMARK  status: ('A' for Active; 'I' for Inactive)
REMARK    1  A    between atoms: C_2  and  C_27
REMARK    2  A    between atoms: N_3  and  C_4
REMARK    3  A    between atoms: C_4  and  C_5
REMARK    4  A    between atoms: C_4  and  C_12
REMARK    5  A    between atoms: C_5  and  C_6
REMARK    6  A    between atoms: C_12  and  C_14
REMARK    7  A    between atoms: C_14  and  C_15
REMARK    8  A    between atoms: C_15  and  C_16
REMARK    9  A    between atoms: C_22  and  P_23
REMARK   10  A    between atoms: P_23  and  O_25
REMARK   11  A    between atoms: P_23  and  O_26
REMARK                            x       y       z     vdW  Elec       q    Type
REMARK                         _______ _______ _______ _____ _____    ______ ____
ROOT
ATOM      1  C   UNL     1       0.892  10.870  19.243  0.00  0.00    +0.000 C 
ENDROOT
BRANCH   1   4
ATOM      2  O   UNL     1      -0.593  12.923  17.927  0.00  0.00    +0.000 OA
ATOM      3  C   UNL     1      -1.180  11.917  18.318  0.00  0.00    +0.000 C 
ATOM      4  N   UNL     1      -0.547  10.881  18.969  0.00  0.00    +0.000 N 
ATOM      5  H   UNL     1      -1.004   9.976  18.894  0.00  0.00    +0.000 HD
BRANCH   3   6
ATOM      6  C   UNL     1      -2.640  11.739  18.087  0.00  0.00    +0.000 A 
ATOM      7  C   UNL     1      -3.525  12.062  19.128  0.00  0.00    +0.000 A 
ATOM      8  C   UNL     1      -4.901  11.878  18.967  0.00  0.00    +0.000 A 
ATOM      9  C   UNL     1      -5.402  11.363  17.773  0.00  0.00    +0.000 A 
ATOM     10  C   UNL     1      -4.530  11.029  16.738  0.00  0.00    +0.000 A 
ATOM     11  C   UNL     1      -3.154  11.215  16.892  0.00  0.00    +0.000 A 
ENDBRANCH   3   6
ENDBRANCH   1   4
BRANCH   1  12
ATOM     12  C   UNL     1       1.292   9.383  19.260  0.00  0.00    +0.000 C 
ATOM     13  O   UNL     1       1.225   8.685  20.275  0.00  0.00    +0.000 OA
BRANCH  12  14
ATOM     14  C   UNL     1       1.633   8.744  17.925  0.00  0.00    +0.000 C 
BRANCH  14  15
ATOM     15  C   UNL     1       3.007   8.076  17.949  0.00  0.00    +0.000 C 
BRANCH  15  16
ATOM     16  C   UNL     1       2.951   6.551  17.926  0.00  0.00    +0.000 C 
ATOM     17  O   UNL     1       2.030   5.906  18.418  0.00  0.00    +0.000 OA
ATOM     18  N   UNL     1       3.973   5.894  17.300  0.00  0.00    +0.000 N 
ATOM     19  C   UNL     1       5.168   6.484  16.727  0.00  0.00    +0.000 C 
ATOM     20  C   UNL     1       5.463   5.572  15.558  0.00  0.00    +0.000 C 
ATOM     21  C   UNL     1       5.089   4.193  16.089  0.00  0.00    +0.000 C 
ATOM     22  C   UNL     1       3.951   4.418  17.122  0.00  0.00    +0.000 C 
BRANCH  22  23
ATOM     23  P   UNL     1       4.181   3.509  18.694  0.00  0.00    +0.000 P 
ATOM     24  O   UNL     1       3.792   2.168  18.062  0.00  0.00    +0.000 OA
BRANCH  23  25
ATOM     25  O   UNL     1       5.817   3.579  18.584  0.00  0.00    +0.000 OA
ATOM     26  H   UNL     1       6.232   2.733  18.837  0.00  0.00    +0.000 HD
ENDBRANCH  23  25
BRANCH  23  27
ATOM     27  O   UNL     1       4.399   2.649  20.179  0.00  0.00    +0.000 OA
ATOM     28  H   UNL     1       3.706   3.004  20.772  0.00  0.00    +0.000 HD
ENDBRANCH  23  27
ENDBRANCH  22  23
ENDBRANCH  15  16
ENDBRANCH  14  15
ENDBRANCH  12  14
ENDBRANCH   1  12
BRANCH   1  29
ATOM     29  C   UNL     1       1.193  11.555  20.581  0.00  0.00    +0.000 C 
BRANCH  29  30
ATOM     30  C   UNL     1      -0.008  11.810  21.458  0.00  0.00    +0.000 A 
ATOM     31  C   UNL     1      -0.518  10.802  22.286  0.00  0.00    +0.000 A 
ATOM     32  C   UNL     1      -1.572  11.075  23.160  0.00  0.00    +0.000 A 
ATOM     33  C   UNL     1      -2.132  12.352  23.206  0.00  0.00    +0.000 A 
ATOM     34  C   UNL     1      -1.646  13.354  22.369  0.00  0.00    +0.000 A 
ATOM     35  C   UNL     1      -0.591  13.084  21.498  0.00  0.00    +0.000 A 
ENDBRANCH  29  30
ENDBRANCH   1  29
TORSDOF 11
ENDMDL
MODEL 7
REMARK VINA RESULT:      -7.9      6.728     10.288
REMARK  Name = 
REMARK  11 active torsions:
REMARK  status: ('A' for Active; 'I' for Inactive)
REMARK    1  A    between atoms: C_2  and  C_27
REMARK    2  A    between atoms: N_3  and  C_4
REMARK    3  A    between atoms: C_4  and  C_5
REMARK    4  A    between atoms: C_4  and  C_12
REMARK    5  A    between atoms: C_5  and  C_6
REMARK    6  A    between atoms: C_12  and  C_14
REMARK    7  A    between atoms: C_14  and  C_15
REMARK    8  A    between atoms: C_15  and  C_16
REMARK    9  A    between atoms: C_22  and  P_23
REMARK   10  A    between atoms: P_23  and  O_25
REMARK   11  A    between atoms: P_23  and  O_26
REMARK                            x       y       z     vdW  Elec       q    Type
REMARK                         _______ _______ _______ _____ _____    ______ ____
ROOT
ATOM      1  C   UNL     1       1.035  10.754  19.414  0.00  0.00    +0.000 C 
ENDROOT
BRANCH   1   4
ATOM      2  O   UNL     1       1.526  12.989  21.123  0.00  0.00    +0.000 OA
ATOM      3  C   UNL     1       1.144  13.188  19.972  0.00  0.00    +0.000 C 
ATOM      4  N   UNL     1       0.874  12.172  19.082  0.00  0.00    +0.000 N 
ATOM      5  H   UNL     1       0.954  12.422  18.099  0.00  0.00    +0.000 HD
BRANCH   3   6
ATOM      6  C   UNL     1       0.966  14.570  19.449  0.00  0.00    +0.000 A 
ATOM      7  C   UNL     1      -0.332  15.004  19.136  0.00  0.00    +0.000 A 
ATOM      8  C   UNL     1      -0.542  16.281  18.610  0.00  0.00    +0.000 A 
ATOM      9  C   UNL     1       0.540  17.130  18.383  0.00  0.00    +0.000 A 
ATOM     10  C   UNL     1       1.834  16.704  18.680  0.00  0.00    +0.000 A 
ATOM     11  C   UNL     1       2.049  15.429  19.211  0.00  0.00    +0.000 A 
ENDBRANCH   3   6
ENDBRANCH   1   4
BRANCH   1  12
ATOM     12  C   UNL     1       1.784  10.138  18.218  0.00  0.00    +0.000 C 
ATOM     13  O   UNL     1       2.538  10.792  17.494  0.00  0.00    +0.000 OA
BRANCH  12  14
ATOM     14  C   UNL     1       1.685   8.633  18.042  0.00  0.00    +0.000 C 
BRANCH  14  15
ATOM     15  C   UNL     1       3.061   7.990  17.868  0.00  0.00    +0.000 C 
BRANCH  15  16
ATOM     16  C   UNL     1       3.035   6.464  17.895  0.00  0.00    +0.000 C 
ATOM     17  O   UNL     1       2.146   5.817  18.440  0.00  0.00    +0.000 OA
ATOM     18  N   UNL     1       4.047   5.807  17.252  0.00  0.00    +0.000 N 
ATOM     19  C   UNL     1       5.208   6.401  16.617  0.00  0.00    +0.000 C 
ATOM     20  C   UNL     1       5.479   5.458  15.467  0.00  0.00    +0.000 C 
ATOM     21  C   UNL     1       5.153   4.090  16.055  0.00  0.00    +0.000 C 
ATOM     22  C   UNL     1       4.049   4.326  17.121  0.00  0.00    +0.000 C 
BRANCH  22  23
ATOM     23  P   UNL     1       4.355   3.472  18.711  0.00  0.00    +0.000 P 
ATOM     24  O   UNL     1       3.986   2.102  18.133  0.00  0.00    +0.000 OA
BRANCH  23  25
ATOM     25  O   UNL     1       5.984   3.586  18.548  0.00  0.00    +0.000 OA
ATOM     26  H   UNL     1       6.234   4.264  17.892  0.00  0.00    +0.000 HD
ENDBRANCH  23  25
BRANCH  23  27
ATOM     27  O   UNL     1       4.644   2.666  20.215  0.00  0.00    +0.000 OA
ATOM     28  H   UNL     1       4.781   1.729  19.968  0.00  0.00    +0.000 HD
ENDBRANCH  23  27
ENDBRANCH  22  23
ENDBRANCH  15  16
ENDBRANCH  14  15
ENDBRANCH  12  14
ENDBRANCH   1  12
BRANCH   1  29
ATOM     29  C   UNL     1      -0.329  10.092  19.634  0.00  0.00    +0.000 C 
BRANCH  29  30
ATOM     30  C   UNL     1      -1.431  10.569  18.720  0.00  0.00    +0.000 A 
ATOM     31  C   UNL     1      -1.586  10.024  17.439  0.00  0.00    +0.000 A 
ATOM     32  C   UNL     1      -2.662  10.408  16.637  0.00  0.00    +0.000 A 
ATOM     33  C   UNL     1      -3.584  11.345  17.101  0.00  0.00    +0.000 A 
ATOM     34  C   UNL     1      -3.424  11.910  18.364  0.00  0.00    +0.000 A 
ATOM     35  C   UNL     1      -2.352  11.525  19.169  0.00  0.00    +0.000 A 
ENDBRANCH  29  30
ENDBRANCH   1  29
TORSDOF 11
ENDMDL
MODEL 8
REMARK VINA RESULT:      -7.9      6.294      9.170
REMARK  Name = 
REMARK  11 active torsions:
REMARK  status: ('A' for Active; 'I' for Inactive)
REMARK    1  A    between atoms: C_2  and  C_27
REMARK    2  A    between atoms: N_3  and  C_4
REMARK    3  A    between atoms: C_4  and  C_5
REMARK    4  A    between atoms: C_4  and  C_12
REMARK    5  A    between atoms: C_5  and  C_6
REMARK    6  A    between atoms: C_12  and  C_14
REMARK    7  A    between atoms: C_14  and  C_15
REMARK    8  A    between atoms: C_15  and  C_16
REMARK    9  A    between atoms: C_22  and  P_23
REMARK   10  A    between atoms: P_23  and  O_25
REMARK   11  A    between atoms: P_23  and  O_26
REMARK                            x       y       z     vdW  Elec       q    Type
REMARK                         _______ _______ _______ _____ _____    ______ ____
ROOT
ATOM      1  C   UNL     1       1.189   9.548  20.322  0.00  0.00    +0.000 C 
ENDROOT
BRANCH   1   4
ATOM      2  O   UNL     1       0.557  11.620  18.462  0.00  0.00    +0.000 OA
ATOM      3  C   UNL     1      -0.266  10.732  18.670  0.00  0.00    +0.000 C 
ATOM      4  N   UNL     1      -0.051   9.699  19.556  0.00  0.00    +0.000 N 
ATOM      5  H   UNL     1      -0.578   8.849  19.369  0.00  0.00    +0.000 HD
BRANCH   3   6
ATOM      6  C   UNL     1      -1.566  10.702  17.946  0.00  0.00    +0.000 A 
ATOM      7  C   UNL     1      -2.617  11.500  18.427  0.00  0.00    +0.000 A 
ATOM      8  C   UNL     1      -3.865  11.477  17.799  0.00  0.00    +0.000 A 
ATOM      9  C   UNL     1      -4.077  10.654  16.695  0.00  0.00    +0.000 A 
ATOM     10  C   UNL     1      -3.043   9.850  16.217  0.00  0.00    +0.000 A 
ATOM     11  C   UNL     1      -1.791   9.872  16.839  0.00  0.00    +0.000 A 
ENDBRANCH   3   6
ENDBRANCH   1   4
BRANCH   1  12
ATOM     12  C   UNL     1       1.705   8.136  19.988  0.00  0.00    +0.000 C 
ATOM     13  O   UNL     1       1.419   7.143  20.663  0.00  0.00    +0.000 OA
BRANCH  12  14
ATOM     14  C   UNL     1       2.468   7.969  18.686  0.00  0.00    +0.000 C 
BRANCH  14  15
ATOM     15  C   UNL     1       2.346   6.550  18.132  0.00  0.00    +0.000 C 
BRANCH  15  16
ATOM     16  C   UNL     1       3.578   5.685  18.378  0.00  0.00    +0.000 C 
ATOM     17  O   UNL     1       3.685   4.927  19.338  0.00  0.00    +0.000 OA
ATOM     18  N   UNL     1       4.588   5.753  17.459  0.00  0.00    +0.000 N 
ATOM     19  C   UNL     1       4.663   6.635  16.310  0.00  0.00    +0.000 C 
ATOM     20  C   UNL     1       5.416   5.801  15.298  0.00  0.00    +0.000 C 
ATOM     21  C   UNL     1       6.433   5.052  16.152  0.00  0.00    +0.000 C 
ATOM     22  C   UNL     1       5.776   4.864  17.546  0.00  0.00    +0.000 C 
BRANCH  22  23
ATOM     23  P   UNL     1       6.875   5.282  18.950  0.00  0.00    +0.000 P 
ATOM     24  O   UNL     1       7.988   4.352  18.453  0.00  0.00    +0.000 OA
BRANCH  23  25
ATOM     25  O   UNL     1       7.235   6.758  18.329  0.00  0.00    +0.000 OA
ATOM     26  H   UNL     1       7.853   6.691  17.577  0.00  0.00    +0.000 HD
ENDBRANCH  23  25
BRANCH  23  27
ATOM     27  O   UNL     1       7.913   5.677  20.276  0.00  0.00    +0.000 OA
ATOM     28  H   UNL     1       8.778   5.289  20.035  0.00  0.00    +0.000 HD
ENDBRANCH  23  27
ENDBRANCH  22  23
ENDBRANCH  15  16
ENDBRANCH  14  15
ENDBRANCH  12  14
ENDBRANCH   1  12
BRANCH   1  29
ATOM     29  C   UNL     1       0.920   9.715  21.821  0.00  0.00    +0.000 C 
BRANCH  29  30
ATOM     30  C   UNL     1      -0.042  10.819  22.185  0.00  0.00    +0.000 A 
ATOM     31  C   UNL     1      -1.184  10.551  22.951  0.00  0.00    +0.000 A 
ATOM     32  C   UNL     1      -2.019  11.593  23.357  0.00  0.00    +0.000 A 
ATOM     33  C   UNL     1      -1.728  12.907  22.993  0.00  0.00    +0.000 A 
ATOM     34  C   UNL     1      -0.608  13.180  22.211  0.00  0.00    +0.000 A 
ATOM     35  C   UNL     1       0.230  12.141  21.807  0.00  0.00    +0.000 A 
ENDBRANCH  29  30
ENDBRANCH   1  29
TORSDOF 11
ENDMDL
MODEL 9
REMARK VINA RESULT:      -7.8      4.938      5.751
REMARK  Name = 
REMARK  11 active torsions:
REMARK  status: ('A' for Active; 'I' for Inactive)
REMARK    1  A    between atoms: C_2  and  C_27
REMARK    2  A    between atoms: N_3  and  C_4
REMARK    3  A    between atoms: C_4  and  C_5
REMARK    4  A    between atoms: C_4  and  C_12
REMARK    5  A    between atoms: C_5  and  C_6
REMARK    6  A    between atoms: C_12  and  C_14
REMARK    7  A    between atoms: C_14  and  C_15
REMARK    8  A    between atoms: C_15  and  C_16
REMARK    9  A    between atoms: C_22  and  P_23
REMARK   10  A    between atoms: P_23  and  O_25
REMARK   11  A    between atoms: P_23  and  O_26
REMARK                            x       y       z     vdW  Elec       q    Type
REMARK                         _______ _______ _______ _____ _____    ______ ____
ROOT
ATOM      1  C   UNL     1       4.016   4.994  17.210  0.00  0.00    +0.000 C 
ENDROOT
BRANCH   1   4
ATOM      2  O   UNL     1       6.660   4.067  16.662  0.00  0.00    +0.000 OA
ATOM      3  C   UNL     1       5.940   4.407  15.727  0.00  0.00    +0.000 C 
ATOM      4  N   UNL     1       4.655   4.875  15.898  0.00  0.00    +0.000 N 
ATOM      5  H   UNL     1       4.037   4.751  15.099  0.00  0.00    +0.000 HD
BRANCH   3   6
ATOM      6  C   UNL     1       6.411   4.312  14.318  0.00  0.00    +0.000 A 
ATOM      7  C   UNL     1       7.442   5.168  13.900  0.00  0.00    +0.000 A 
ATOM      8  C   UNL     1       7.893   5.137  12.577  0.00  0.00    +0.000 A 
ATOM      9  C   UNL     1       7.312   4.261  11.662  0.00  0.00    +0.000 A 
ATOM     10  C   UNL     1       6.279   3.416  12.065  0.00  0.00    +0.000 A 
ATOM     11  C   UNL     1       5.828   3.440  13.388  0.00  0.00    +0.000 A 
ENDBRANCH   3   6
ENDBRANCH   1   4
BRANCH   1  12
ATOM     12  C   UNL     1       4.611   6.267  17.840  0.00  0.00    +0.000 C 
ATOM     13  O   UNL     1       5.728   6.294  18.363  0.00  0.00    +0.000 OA
BRANCH  12  14
ATOM     14  C   UNL     1       3.831   7.558  17.659  0.00  0.00    +0.000 C 
BRANCH  14  15
ATOM     15  C   UNL     1       2.444   7.477  18.296  0.00  0.00    +0.000 C 
BRANCH  15  16
ATOM     16  C   UNL     1       1.727   8.822  18.382  0.00  0.00    +0.000 C 
ATOM     17  O   UNL     1       1.611   9.582  17.425  0.00  0.00    +0.000 OA
ATOM     18  N   UNL     1       1.174   9.164  19.584  0.00  0.00    +0.000 N 
ATOM     19  C   UNL     1       1.270   8.426  20.829  0.00  0.00    +0.000 C 
ATOM     20  C   UNL     1      -0.055   8.719  21.494  0.00  0.00    +0.000 C 
ATOM     21  C   UNL     1      -0.320  10.172  21.118  0.00  0.00    +0.000 C 
ATOM     22  C   UNL     1       0.356  10.395  19.738  0.00  0.00    +0.000 C 
BRANCH  22  23
ATOM     23  P   UNL     1       1.352  11.927  19.635  0.00  0.00    +0.000 P 
ATOM     24  O   UNL     1       0.140  12.778  19.237  0.00  0.00    +0.000 OA
BRANCH  23  25
ATOM     25  O   UNL     1       1.456  12.061  21.268  0.00  0.00    +0.000 OA
ATOM     26  H   UNL     1       1.762  12.947  21.538  0.00  0.00    +0.000 HD
ENDBRANCH  23  25
BRANCH  23  27
ATOM     27  O   UNL     1       2.293  13.376  19.538  0.00  0.00    +0.000 OA
ATOM     28  H   UNL     1       2.999  13.254  20.205  0.00  0.00    +0.000 HD
ENDBRANCH  23  27
ENDBRANCH  22  23
ENDBRANCH  15  16
ENDBRANCH  14  15
ENDBRANCH  12  14
ENDBRANCH   1  12
BRANCH   1  29
ATOM     29  C   UNL     1       4.297   3.753  18.064  0.00  0.00    +0.000 C 
BRANCH  29  30
ATOM     30  C   UNL     1       3.263   3.448  19.119  0.00  0.00    +0.000 A 
ATOM     31  C   UNL     1       3.112   4.281  20.236  0.00  0.00    +0.000 A 
ATOM     32  C   UNL     1       2.093   4.041  21.159  0.00  0.00    +0.000 A 
ATOM     33  C   UNL     1       1.226   2.963  20.983  0.00  0.00    +0.000 A 
ATOM     34  C   UNL     1       1.385   2.116  19.888  0.00  0.00    +0.000 A 
ATOM     35  C   UNL     1       2.399   2.356  18.963  0.00  0.00    +0.000 A 
ENDBRANCH  29  30
ENDBRANCH   1  29
TORSDOF 11
ENDMDL
