MODEL 1
REMARK VINA RESULT:      -7.9      0.000      0.000
REMARK  Name = 
REMARK  5 active torsions:
REMARK  status: ('A' for Active; 'I' for Inactive)
REMARK    1  A    between atoms: C_1  and  C_2
REMARK    2  A    between atoms: C_4  and  C_5
REMARK    3  A    between atoms: C_8  and  C_9
REMARK    4  A    between atoms: C_9  and  O_10
REMARK    5  A    between atoms: C_14  and  C_15
REMARK                            x       y       z     vdW  Elec       q    Type
REMARK                         _______ _______ _______ _____ _____    ______ ____
ROOT
ATOM      1  C   UNL     1       2.153   2.666  20.726  0.00  0.00    +0.000 C 
ATOM      2  C   UNL     1       2.939   3.800  20.129  0.00  0.00    +0.000 A 
ATOM      3  N   UNL     1       2.370   5.040  20.089  0.00  0.00    +0.000 NA
ATOM      4  C   UNL     1       2.994   6.078  19.474  0.00  0.00    +0.000 A 
ATOM      5  C   UNL     1       4.259   5.864  18.926  0.00  0.00    +0.000 A 
ATOM      6  C   UNL     1       4.840   4.595  18.958  0.00  0.00    +0.000 A 
ATOM      7  N   UNL     1       4.158   3.571  19.549  0.00  0.00    +0.000 NA
ENDROOT
BRANCH   6   8
ATOM      8  C   UNL     1       6.096   4.437  18.093  0.00  0.00    +0.000 C 
ATOM      9  C   UNL     1       7.310   5.357  18.348  0.00  0.00    +0.000 C 
ATOM     10  C   UNL     1       7.384   6.564  17.400  0.00  0.00    +0.000 C 
ATOM     11  N   UNL     1       7.291   6.127  15.999  0.00  0.00    +0.000 NA
ATOM     12  C   UNL     1       5.983   5.507  15.754  0.00  0.00    +0.000 C 
ATOM     13  C   UNL     1       5.840   4.219  16.577  0.00  0.00    +0.000 C 
ATOM     14  H   UNL     1       8.059   5.443  15.781  0.00  0.00    +0.000 HD
ENDBRANCH   6   8
BRANCH   4  15
ATOM     15  C   UNL     1       2.299   7.390  19.272  0.00  0.00    +0.000 A 
ATOM     16  C   UNL     1       2.373   8.084  18.049  0.00  0.00    +0.000 A 
ATOM     17  C   UNL     1       1.730   9.329  17.899  0.00  0.00    +0.000 A 
ATOM     18  C   UNL     1       1.040   9.910  18.977  0.00  0.00    +0.000 A 
ATOM     19  C   UNL     1       0.985   9.234  20.196  0.00  0.00    +0.000 A 
ATOM     20  C   UNL     1       1.603   7.996  20.342  0.00  0.00    +0.000 A 
BRANCH  18  21
ATOM     21  C   UNL     1       0.358  11.246  18.849  0.00  0.00    +0.000 C 
BRANCH  21  22
ATOM     22  O   UNL     1      -0.643  11.193  17.867  0.00  0.00    +0.000 OA
ATOM     23  H   UNL     1      -1.261  11.949  18.045  0.00  0.00    +0.000 HD
ENDBRANCH  21  22
ENDBRANCH  18  21
ENDBRANCH   4  15
TORSDOF 4
ENDMDL
MODEL 2
REMARK VINA RESULT:      -7.9      0.332      1.105
REMARK  Name = 
REMARK  5 active torsions:
REMARK  status: ('A' for Active; 'I' for Inactive)
REMARK    1  A    between atoms: C_1  and  C_2
REMARK    2  A    between atoms: C_4  and  C_5
REMARK    3  A    between atoms: C_8  and  C_9
REMARK    4  A    between atoms: C_9  and  O_10
REMARK    5  A    between atoms: C_14  and  C_15
REMARK                            x       y       z     vdW  Elec       q    Type
REMARK                         _______ _______ _______ _____ _____    ______ ____
ROOT
ATOM      1  C   UNL     1       1.897   2.427  19.818  0.00  0.00    +0.000 C 
ATOM      2  C   UNL     1       2.768   3.621  19.545  0.00  0.00    +0.000 A 
ATOM      3  N   UNL     1       2.221   4.867  19.648  0.00  0.00    +0.000 NA
ATOM      4  C   UNL     1       2.934   5.976  19.318  0.00  0.00    +0.000 A 
ATOM      5  C   UNL     1       4.261   5.818  18.919  0.00  0.00    +0.000 A 
ATOM      6  C   UNL     1       4.821   4.545  18.804  0.00  0.00    +0.000 A 
ATOM      7  N   UNL     1       4.054   3.457  19.105  0.00  0.00    +0.000 NA
ENDROOT
BRANCH   6   8
ATOM      8  C   UNL     1       6.184   4.498  18.104  0.00  0.00    +0.000 C 
ATOM      9  C   UNL     1       7.259   5.545  18.472  0.00  0.00    +0.000 C 
ATOM     10  C   UNL     1       7.329   6.731  17.499  0.00  0.00    +0.000 C 
ATOM     11  N   UNL     1       7.455   6.256  16.113  0.00  0.00    +0.000 NA
ATOM     12  C   UNL     1       6.257   5.498  15.733  0.00  0.00    +0.000 C 
ATOM     13  C   UNL     1       6.143   4.221  16.577  0.00  0.00    +0.000 C 
ATOM     14  H   UNL     1       8.309   5.650  16.014  0.00  0.00    +0.000 HD
ENDBRANCH   6   8
BRANCH   4  15
ATOM     15  C   UNL     1       2.286   7.325  19.259  0.00  0.00    +0.000 A 
ATOM     16  C   UNL     1       1.648   7.888  20.381  0.00  0.00    +0.000 A 
ATOM     17  C   UNL     1       1.024   9.148  20.286  0.00  0.00    +0.000 A 
ATOM     18  C   UNL     1       0.999   9.841  19.063  0.00  0.00    +0.000 A 
ATOM     19  C   UNL     1       1.611   9.274  17.945  0.00  0.00    +0.000 A 
ATOM     20  C   UNL     1       2.244   8.038  18.040  0.00  0.00    +0.000 A 
BRANCH  18  21
ATOM     21  C   UNL     1       0.327  11.181  18.929  0.00  0.00    +0.000 C 
BRANCH  21  22
ATOM     22  O   UNL     1      -0.618  11.153  17.892  0.00  0.00    +0.000 OA
ATOM     23  H   UNL     1      -1.398  11.685  18.199  0.00  0.00    +0.000 HD
ENDBRANCH  21  22
ENDBRANCH  18  21
ENDBRANCH   4  15
TORSDOF 4
ENDMDL
MODEL 3
REMARK VINA RESULT:      -7.7      3.098      6.519
REMARK  Name = 
REMARK  5 active torsions:
REMARK  status: ('A' for Active; 'I' for Inactive)
REMARK    1  A    between atoms: C_1  and  C_2
REMARK    2  A    between atoms: C_4  and  C_5
REMARK    3  A    between atoms: C_8  and  C_9
REMARK    4  A    between atoms: C_9  and  O_10
REMARK    5  A    between atoms: C_14  and  C_15
REMARK                            x       y       z     vdW  Elec       q    Type
REMARK                         _______ _______ _______ _____ _____    ______ ____
ROOT
ATOM      1  C   UNL     1       1.484   3.402  21.138  0.00  0.00    +0.000 C 
ATOM      2  C   UNL     1       1.849   4.611  20.323  0.00  0.00    +0.000 A 
ATOM      3  N   UNL     1       2.617   4.440  19.207  0.00  0.00    +0.000 NA
ATOM      4  C   UNL     1       3.058   5.505  18.489  0.00  0.00    +0.000 A 
ATOM      5  C   UNL     1       2.665   6.784  18.885  0.00  0.00    +0.000 A 
ATOM      6  C   UNL     1       1.887   6.963  20.031  0.00  0.00    +0.000 A 
ATOM      7  N   UNL     1       1.503   5.866  20.746  0.00  0.00    +0.000 NA
ENDROOT
BRANCH   6   8
ATOM      8  C   UNL     1       1.755   8.416  20.502  0.00  0.00    +0.000 C 
ATOM      9  C   UNL     1       1.149   8.707  21.892  0.00  0.00    +0.000 C 
ATOM     10  C   UNL     1      -0.340   9.082  21.854  0.00  0.00    +0.000 C 
ATOM     11  N   UNL     1      -0.574  10.173  20.897  0.00  0.00    +0.000 NA
ATOM     12  C   UNL     1      -0.239   9.728  19.538  0.00  0.00    +0.000 C 
ATOM     13  C   UNL     1       1.262   9.425  19.430  0.00  0.00    +0.000 C 
ATOM     14  H   UNL     1       0.008  11.011  21.152  0.00  0.00    +0.000 HD
ENDBRANCH   6   8
BRANCH   4  15
ATOM     15  C   UNL     1       4.043   5.334  17.373  0.00  0.00    +0.000 A 
ATOM     16  C   UNL     1       4.556   6.437  16.664  0.00  0.00    +0.000 A 
ATOM     17  C   UNL     1       5.461   6.241  15.602  0.00  0.00    +0.000 A 
ATOM     18  C   UNL     1       5.834   4.943  15.214  0.00  0.00    +0.000 A 
ATOM     19  C   UNL     1       5.308   3.847  15.900  0.00  0.00    +0.000 A 
ATOM     20  C   UNL     1       4.429   4.039  16.961  0.00  0.00    +0.000 A 
BRANCH  18  21
ATOM     21  C   UNL     1       6.786   4.704  14.073  0.00  0.00    +0.000 C 
BRANCH  21  22
ATOM     22  O   UNL     1       7.886   5.570  14.163  0.00  0.00    +0.000 OA
ATOM     23  H   UNL     1       7.682   6.355  13.591  0.00  0.00    +0.000 HD
ENDBRANCH  21  22
ENDBRANCH  18  21
ENDBRANCH   4  15
TORSDOF 4
ENDMDL
MODEL 4
REMARK VINA RESULT:      -7.4      1.426      2.070
REMARK  Name = 
REMARK  5 active torsions:
REMARK  status: ('A' for Active; 'I' for Inactive)
REMARK    1  A    between atoms: C_1  and  C_2
REMARK    2  A    between atoms: C_4  and  C_5
REMARK    3  A    between atoms: C_8  and  C_9
REMARK    4  A    between atoms: C_9  and  O_10
REMARK    5  A    between atoms: C_14  and  C_15
REMARK                            x       y       z     vdW  Elec       q    Type
REMARK                         _______ _______ _______ _____ _____    ______ ____
ROOT
ATOM      1  C   UNL     1       2.089   2.969  20.714  0.00  0.00    +0.000 C 
ATOM      2  C   UNL     1       2.575   4.203  20.006  0.00  0.00    +0.000 A 
ATOM      3  N   UNL     1       2.087   5.416  20.397  0.00  0.00    +0.000 NA
ATOM      4  C   UNL     1       2.416   6.553  19.730  0.00  0.00    +0.000 A 
ATOM      5  C   UNL     1       3.310   6.462  18.662  0.00  0.00    +0.000 A 
ATOM      6  C   UNL     1       3.804   5.222  18.254  0.00  0.00    +0.000 A 
ATOM      7  N   UNL     1       3.412   4.101  18.927  0.00  0.00    +0.000 NA
ENDROOT
BRANCH   6   8
ATOM      8  C   UNL     1       4.553   5.233  16.916  0.00  0.00    +0.000 C 
ATOM      9  C   UNL     1       5.585   4.123  16.620  0.00  0.00    +0.000 C 
ATOM     10  C   UNL     1       7.038   4.538  16.896  0.00  0.00    +0.000 C 
ATOM     11  N   UNL     1       7.355   5.800  16.212  0.00  0.00    +0.000 NA
ATOM     12  C   UNL     1       6.522   6.883  16.751  0.00  0.00    +0.000 C 
ATOM     13  C   UNL     1       5.042   6.625  16.434  0.00  0.00    +0.000 C 
ATOM     14  H   UNL     1       7.192   5.704  15.178  0.00  0.00    +0.000 HD
ENDBRANCH   6   8
BRANCH   4  15
ATOM     15  C   UNL     1       1.747   7.856  20.042  0.00  0.00    +0.000 A 
ATOM     16  C   UNL     1       1.193   8.118  21.309  0.00  0.00    +0.000 A 
ATOM     17  C   UNL     1       0.547   9.344  21.564  0.00  0.00    +0.000 A 
ATOM     18  C   UNL     1       0.415  10.304  20.546  0.00  0.00    +0.000 A 
ATOM     19  C   UNL     1       0.942  10.037  19.282  0.00  0.00    +0.000 A 
ATOM     20  C   UNL     1       1.597   8.835  19.034  0.00  0.00    +0.000 A 
BRANCH  18  21
ATOM     21  C   UNL     1      -0.285  11.616  20.785  0.00  0.00    +0.000 C 
BRANCH  21  22
ATOM     22  O   UNL     1       0.044  12.123  22.051  0.00  0.00    +0.000 OA
ATOM     23  H   UNL     1       0.070  13.111  21.967  0.00  0.00    +0.000 HD
ENDBRANCH  21  22
ENDBRANCH  18  21
ENDBRANCH   4  15
TORSDOF 4
ENDMDL
MODEL 5
REMARK VINA RESULT:      -7.4      1.618      2.011
REMARK  Name = 
REMARK  5 active torsions:
REMARK  status: ('A' for Active; 'I' for Inactive)
REMARK    1  A    between atoms: C_1  and  C_2
REMARK    2  A    between atoms: C_4  and  C_5
REMARK    3  A    between atoms: C_8  and  C_9
REMARK    4  A    between atoms: C_9  and  O_10
REMARK    5  A    between atoms: C_14  and  C_15
REMARK                            x       y       z     vdW  Elec       q    Type
REMARK                         _______ _______ _______ _____ _____    ______ ____
ROOT
ATOM      1  C   UNL     1       2.019   2.987  20.860  0.00  0.00    +0.000 C 
ATOM      2  C   UNL     1       2.478   4.237  20.163  0.00  0.00    +0.000 A 
ATOM      3  N   UNL     1       1.975   5.437  20.572  0.00  0.00    +0.000 NA
ATOM      4  C   UNL     1       2.280   6.587  19.916  0.00  0.00    +0.000 A 
ATOM      5  C   UNL     1       3.165   6.524  18.840  0.00  0.00    +0.000 A 
ATOM      6  C   UNL     1       3.676   5.296  18.413  0.00  0.00    +0.000 A 
ATOM      7  N   UNL     1       3.308   4.162  19.076  0.00  0.00    +0.000 NA
ENDROOT
BRANCH   6   8
ATOM      8  C   UNL     1       4.412   5.335  17.069  0.00  0.00    +0.000 C 
ATOM      9  C   UNL     1       5.407   4.206  16.720  0.00  0.00    +0.000 C 
ATOM     10  C   UNL     1       6.874   4.565  16.997  0.00  0.00    +0.000 C 
ATOM     11  N   UNL     1       7.224   5.842  16.359  0.00  0.00    +0.000 NA
ATOM     12  C   UNL     1       6.430   6.929  16.946  0.00  0.00    +0.000 C 
ATOM     13  C   UNL     1       4.940   6.729  16.635  0.00  0.00    +0.000 C 
ATOM     14  H   UNL     1       7.049   5.790  15.323  0.00  0.00    +0.000 HD
ENDBRANCH   6   8
BRANCH   4  15
ATOM     15  C   UNL     1       1.592   7.876  20.250  0.00  0.00    +0.000 A 
ATOM     16  C   UNL     1       1.461   8.909  19.303  0.00  0.00    +0.000 A 
ATOM     17  C   UNL     1       0.833  10.121  19.655  0.00  0.00    +0.000 A 
ATOM     18  C   UNL     1       0.363  10.325  20.964  0.00  0.00    +0.000 A 
ATOM     19  C   UNL     1       0.513   9.311  21.911  0.00  0.00    +0.000 A 
ATOM     20  C   UNL     1       1.117   8.106  21.560  0.00  0.00    +0.000 A 
BRANCH  18  21
ATOM     21  C   UNL     1      -0.298  11.615  21.373  0.00  0.00    +0.000 C 
BRANCH  21  22
ATOM     22  O   UNL     1      -0.320  11.733  22.770  0.00  0.00    +0.000 OA
ATOM     23  H   UNL     1       0.591  12.010  23.050  0.00  0.00    +0.000 HD
ENDBRANCH  21  22
ENDBRANCH  18  21
ENDBRANCH   4  15
TORSDOF 4
ENDMDL
MODEL 6
REMARK VINA RESULT:      -7.4      3.067      6.507
REMARK  Name = 
REMARK  5 active torsions:
REMARK  status: ('A' for Active; 'I' for Inactive)
REMARK    1  A    between atoms: C_1  and  C_2
REMARK    2  A    between atoms: C_4  and  C_5
REMARK    3  A    between atoms: C_8  and  C_9
REMARK    4  A    between atoms: C_9  and  O_10
REMARK    5  A    between atoms: C_14  and  C_15
REMARK                            x       y       z     vdW  Elec       q    Type
REMARK                         _______ _______ _______ _____ _____    ______ ____
ROOT
ATOM      1  C   UNL     1       1.428   3.279  21.209  0.00  0.00    +0.000 C 
ATOM      2  C   UNL     1       1.820   4.453  20.356  0.00  0.00    +0.000 A 
ATOM      3  N   UNL     1       2.579   4.230  19.244  0.00  0.00    +0.000 NA
ATOM      4  C   UNL     1       3.044   5.261  18.492  0.00  0.00    +0.000 A 
ATOM      5  C   UNL     1       2.684   6.561  18.851  0.00  0.00    +0.000 A 
ATOM      6  C   UNL     1       1.915   6.794  19.993  0.00  0.00    +0.000 A 
ATOM      7  N   UNL     1       1.507   5.729  20.743  0.00  0.00    +0.000 NA
ENDROOT
BRANCH   6   8
ATOM      8  C   UNL     1       1.822   8.263  20.420  0.00  0.00    +0.000 C 
ATOM      9  C   UNL     1       1.144   8.618  21.762  0.00  0.00    +0.000 C 
ATOM     10  C   UNL     1      -0.321   9.058  21.620  0.00  0.00    +0.000 C 
ATOM     11  N   UNL     1      -0.444  10.132  20.624  0.00  0.00    +0.000 NA
ATOM     12  C   UNL     1      -0.046   9.636  19.301  0.00  0.00    +0.000 C 
ATOM     13  C   UNL     1       1.443   9.264  19.295  0.00  0.00    +0.000 C 
ATOM     14  H   UNL     1       0.159  10.950  20.896  0.00  0.00    +0.000 HD
ENDBRANCH   6   8
BRANCH   4  15
ATOM     15  C   UNL     1       4.020   5.032  17.378  0.00  0.00    +0.000 A 
ATOM     16  C   UNL     1       4.227   3.752  16.830  0.00  0.00    +0.000 A 
ATOM     17  C   UNL     1       5.171   3.564  15.801  0.00  0.00    +0.000 A 
ATOM     18  C   UNL     1       5.943   4.643  15.336  0.00  0.00    +0.000 A 
ATOM     19  C   UNL     1       5.756   5.908  15.895  0.00  0.00    +0.000 A 
ATOM     20  C   UNL     1       4.810   6.099  16.898  0.00  0.00    +0.000 A 
BRANCH  18  21
ATOM     21  C   UNL     1       6.970   4.468  14.250  0.00  0.00    +0.000 C 
BRANCH  21  22
ATOM     22  O   UNL     1       7.783   5.608  14.155  0.00  0.00    +0.000 OA
ATOM     23  H   UNL     1       7.259   6.366  14.522  0.00  0.00    +0.000 HD
ENDBRANCH  21  22
ENDBRANCH  18  21
ENDBRANCH   4  15
TORSDOF 4
ENDMDL
MODEL 7
REMARK VINA RESULT:      -7.4      1.940      4.330
REMARK  Name = 
REMARK  5 active torsions:
REMARK  status: ('A' for Active; 'I' for Inactive)
REMARK    1  A    between atoms: C_1  and  C_2
REMARK    2  A    between atoms: C_4  and  C_5
REMARK    3  A    between atoms: C_8  and  C_9
REMARK    4  A    between atoms: C_9  and  O_10
REMARK    5  A    between atoms: C_14  and  C_15
REMARK                            x       y       z     vdW  Elec       q    Type
REMARK                         _______ _______ _______ _____ _____    ______ ____
ROOT
ATOM      1  C   UNL     1       6.144   6.191  16.276  0.00  0.00    +0.000 C 
ATOM      2  C   UNL     1       4.818   5.946  16.940  0.00  0.00    +0.000 A 
ATOM      3  N   UNL     1       4.096   7.019  17.375  0.00  0.00    +0.000 NA
ATOM      4  C   UNL     1       2.939   6.854  18.068  0.00  0.00    +0.000 A 
ATOM      5  C   UNL     1       2.473   5.556  18.282  0.00  0.00    +0.000 A 
ATOM      6  C   UNL     1       3.213   4.455  17.846  0.00  0.00    +0.000 A 
ATOM      7  N   UNL     1       4.391   4.669  17.192  0.00  0.00    +0.000 NA
ENDROOT
BRANCH   6   8
ATOM      8  C   UNL     1       2.730   3.101  18.378  0.00  0.00    +0.000 C 
ATOM      9  C   UNL     1       1.217   2.860  18.570  0.00  0.00    +0.000 C 
ATOM     10  C   UNL     1       0.734   3.065  20.013  0.00  0.00    +0.000 C 
ATOM     11  N   UNL     1       1.553   2.281  20.949  0.00  0.00    +0.000 NA
ATOM     12  C   UNL     1       2.941   2.759  20.921  0.00  0.00    +0.000 C 
ATOM     13  C   UNL     1       3.566   2.503  19.542  0.00  0.00    +0.000 C 
ATOM     14  H   UNL     1       1.521   1.261  20.694  0.00  0.00    +0.000 HD
ENDBRANCH   6   8
BRANCH   4  15
ATOM     15  C   UNL     1       2.239   8.018  18.699  0.00  0.00    +0.000 A 
ATOM     16  C   UNL     1       1.756   7.962  20.020  0.00  0.00    +0.000 A 
ATOM     17  C   UNL     1       1.078   9.065  20.577  0.00  0.00    +0.000 A 
ATOM     18  C   UNL     1       0.845  10.219  19.809  0.00  0.00    +0.000 A 
ATOM     19  C   UNL     1       1.302  10.268  18.492  0.00  0.00    +0.000 A 
ATOM     20  C   UNL     1       1.988   9.187  17.946  0.00  0.00    +0.000 A 
BRANCH  18  21
ATOM     21  C   UNL     1       0.110  11.406  20.373  0.00  0.00    +0.000 C 
BRANCH  21  22
ATOM     22  O   UNL     1       0.549  11.680  21.676  0.00  0.00    +0.000 OA
ATOM     23  H   UNL     1       0.978  12.575  21.653  0.00  0.00    +0.000 HD
ENDBRANCH  21  22
ENDBRANCH  18  21
ENDBRANCH   4  15
TORSDOF 4
ENDMDL
MODEL 8
REMARK VINA RESULT:      -7.4      1.905      4.226
REMARK  Name = 
REMARK  5 active torsions:
REMARK  status: ('A' for Active; 'I' for Inactive)
REMARK    1  A    between atoms: C_1  and  C_2
REMARK    2  A    between atoms: C_4  and  C_5
REMARK    3  A    between atoms: C_8  and  C_9
REMARK    4  A    between atoms: C_9  and  O_10
REMARK    5  A    between atoms: C_14  and  C_15
REMARK                            x       y       z     vdW  Elec       q    Type
REMARK                         _______ _______ _______ _____ _____    ______ ____
ROOT
ATOM      1  C   UNL     1       6.168   6.110  16.232  0.00  0.00    +0.000 C 
ATOM      2  C   UNL     1       4.875   5.846  16.952  0.00  0.00    +0.000 A 
ATOM      3  N   UNL     1       4.103   6.910  17.319  0.00  0.00    +0.000 NA
ATOM      4  C   UNL     1       2.975   6.737  18.056  0.00  0.00    +0.000 A 
ATOM      5  C   UNL     1       2.590   5.437  18.389  0.00  0.00    +0.000 A 
ATOM      6  C   UNL     1       3.383   4.348  18.022  0.00  0.00    +0.000 A 
ATOM      7  N   UNL     1       4.531   4.573  17.319  0.00  0.00    +0.000 NA
ENDROOT
BRANCH   6   8
ATOM      8  C   UNL     1       2.994   3.017  18.676  0.00  0.00    +0.000 C 
ATOM      9  C   UNL     1       1.519   2.560  18.640  0.00  0.00    +0.000 C 
ATOM     10  C   UNL     1       0.740   2.876  19.925  0.00  0.00    +0.000 C 
ATOM     11  N   UNL     1       1.459   2.369  21.103  0.00  0.00    +0.000 NA
ATOM     12  C   UNL     1       2.748   3.060  21.238  0.00  0.00    +0.000 C 
ATOM     13  C   UNL     1       3.659   2.726  20.048  0.00  0.00    +0.000 C 
ATOM     14  H   UNL     1       1.615   1.333  21.016  0.00  0.00    +0.000 HD
ENDBRANCH   6   8
BRANCH   4  15
ATOM     15  C   UNL     1       2.223   7.908  18.611  0.00  0.00    +0.000 A 
ATOM     16  C   UNL     1       1.993   9.067  17.846  0.00  0.00    +0.000 A 
ATOM     17  C   UNL     1       1.305  10.163  18.405  0.00  0.00    +0.000 A 
ATOM     18  C   UNL     1       0.874  10.126  19.742  0.00  0.00    +0.000 A 
ATOM     19  C   UNL     1       1.122   8.987  20.509  0.00  0.00    +0.000 A 
ATOM     20  C   UNL     1       1.784   7.897  19.954  0.00  0.00    +0.000 A 
BRANCH  18  21
ATOM     21  C   UNL     1       0.151  11.288  20.370  0.00  0.00    +0.000 C 
BRANCH  21  22
ATOM     22  O   UNL     1       0.715  11.600  21.617  0.00  0.00    +0.000 OA
ATOM     23  H   UNL     1       1.669  11.818  21.455  0.00  0.00    +0.000 HD
ENDBRANCH  21  22
ENDBRANCH  18  21
ENDBRANCH   4  15
TORSDOF 4
ENDMDL
MODEL 9
REMARK VINA RESULT:      -7.3      1.795      2.519
REMARK  Name = 
REMARK  5 active torsions:
REMARK  status: ('A' for Active; 'I' for Inactive)
REMARK    1  A    between atoms: C_1  and  C_2
REMARK    2  A    between atoms: C_4  and  C_5
REMARK    3  A    between atoms: C_8  and  C_9
REMARK    4  A    between atoms: C_9  and  O_10
REMARK    5  A    between atoms: C_14  and  C_15
REMARK                            x       y       z     vdW  Elec       q    Type
REMARK                         _______ _______ _______ _____ _____    ______ ____
ROOT
ATOM      1  C   UNL     1       1.566   2.969  18.837  0.00  0.00    +0.000 C 
ATOM      2  C   UNL     1       2.259   4.293  18.675  0.00  0.00    +0.000 A 
ATOM      3  N   UNL     1       1.819   5.356  19.410  0.00  0.00    +0.000 NA
ATOM      4  C   UNL     1       2.343   6.597  19.233  0.00  0.00    +0.000 A 
ATOM      5  C   UNL     1       3.383   6.755  18.317  0.00  0.00    +0.000 A 
ATOM      6  C   UNL     1       3.830   5.672  17.558  0.00  0.00    +0.000 A 
ATOM      7  N   UNL     1       3.245   4.453  17.738  0.00  0.00    +0.000 NA
ENDROOT
BRANCH   6   8
ATOM      8  C   UNL     1       4.778   6.036  16.409  0.00  0.00    +0.000 C 
ATOM      9  C   UNL     1       5.182   4.948  15.390  0.00  0.00    +0.000 C 
ATOM     10  C   UNL     1       6.544   4.300  15.681  0.00  0.00    +0.000 C 
ATOM     11  N   UNL     1       7.581   5.329  15.848  0.00  0.00    +0.000 NA
ATOM     12  C   UNL     1       7.276   6.160  17.020  0.00  0.00    +0.000 C 
ATOM     13  C   UNL     1       5.977   6.945  16.794  0.00  0.00    +0.000 C 
ATOM     14  H   UNL     1       7.638   5.930  14.988  0.00  0.00    +0.000 HD
ENDBRANCH   6   8
BRANCH   4  15
ATOM     15  C   UNL     1       1.744   7.794  19.905  0.00  0.00    +0.000 A 
ATOM     16  C   UNL     1       1.379   7.773  21.265  0.00  0.00    +0.000 A 
ATOM     17  C   UNL     1       0.793   8.907  21.862  0.00  0.00    +0.000 A 
ATOM     18  C   UNL     1       0.533  10.060  21.099  0.00  0.00    +0.000 A 
ATOM     19  C   UNL     1       0.873  10.074  19.746  0.00  0.00    +0.000 A 
ATOM     20  C   UNL     1       1.468   8.961  19.159  0.00  0.00    +0.000 A 
BRANCH  18  21
ATOM     21  C   UNL     1      -0.106  11.280  21.707  0.00  0.00    +0.000 C 
BRANCH  21  22
ATOM     22  O   UNL     1      -0.380  11.064  23.065  0.00  0.00    +0.000 OA
ATOM     23  H   UNL     1      -0.965  11.808  23.363  0.00  0.00    +0.000 HD
ENDBRANCH  21  22
ENDBRANCH  18  21
ENDBRANCH   4  15
TORSDOF 4
ENDMDL
