MODEL 1
REMARK VINA RESULT:      -6.2      0.000      0.000
REMARK  Name = 
REMARK  4 active torsions:
REMARK  status: ('A' for Active; 'I' for Inactive)
REMARK    1  A    between atoms: C_1  and  C_2
REMARK    2  A    between atoms: C_2  and  C_3
REMARK    3  A    between atoms: C_6  and  O_7
REMARK    4  A    between atoms: C_8  and  C_9
REMARK                            x       y       z     vdW  Elec       q    Type
REMARK                         _______ _______ _______ _____ _____    ______ ____
ROOT
ATOM      1  C   UNL     1       1.685   4.790  17.989  0.00  0.00    +0.000 C 
ATOM      2  C   UNL     1       2.039   4.264  19.394  0.00  0.00    +0.000 C 
ATOM      3  C   UNL     1       2.385   5.514  20.234  0.00  0.00    +0.000 C 
ATOM      4  C   UNL     1       0.925   3.381  20.007  0.00  0.00    +0.000 C 
ATOM      5  C   UNL     1       0.892   2.129  19.104  0.00  0.00    +0.000 C 
ATOM      6  C   UNL     1       2.385   1.908  18.761  0.00  0.00    +0.000 C 
ATOM      7  C   UNL     1       3.095   3.107  19.473  0.00  0.00    +0.000 C 
ATOM      8  C   UNL     1       4.487   3.428  18.961  0.00  0.00    +0.000 C 
ATOM      9  C   UNL     1       3.101   2.741  20.994  0.00  0.00    +0.000 C 
ATOM     10  C   UNL     1       1.621   2.901  21.271  0.00  0.00    +0.000 C 
ATOM     11  O   UNL     1       1.067   2.639  22.325  0.00  0.00    +0.000 OA
ENDROOT
BRANCH   6  12
ATOM     12  O   UNL     1       2.596   1.831  17.364  0.00  0.00    +0.000 OA
ATOM     13  H   UNL     1       2.153   2.564  16.912  0.00  0.00    +0.000 HD
ENDBRANCH   6  12
TORSDOF 1
ENDMDL
MODEL 2
REMARK VINA RESULT:      -6.1      1.687      3.323
REMARK  Name = 
REMARK  4 active torsions:
REMARK  status: ('A' for Active; 'I' for Inactive)
REMARK    1  A    between atoms: C_1  and  C_2
REMARK    2  A    between atoms: C_2  and  C_3
REMARK    3  A    between atoms: C_6  and  O_7
REMARK    4  A    between atoms: C_8  and  C_9
REMARK                            x       y       z     vdW  Elec       q    Type
REMARK                         _______ _______ _______ _____ _____    ______ ____
ROOT
ATOM      1  C   UNL     1       2.801   2.788  21.102  0.00  0.00    +0.000 C 
ATOM      2  C   UNL     1       2.386   3.785  20.003  0.00  0.00    +0.000 C 
ATOM      3  C   UNL     1       1.382   4.751  20.672  0.00  0.00    +0.000 C 
ATOM      4  C   UNL     1       3.592   4.490  19.339  0.00  0.00    +0.000 C 
ATOM      5  C   UNL     1       4.334   3.358  18.596  0.00  0.00    +0.000 C 
ATOM      6  C   UNL     1       3.178   2.467  18.078  0.00  0.00    +0.000 C 
ATOM      7  C   UNL     1       1.902   3.178  18.640  0.00  0.00    +0.000 C 
ATOM      8  C   UNL     1       0.654   2.316  18.690  0.00  0.00    +0.000 C 
ATOM      9  C   UNL     1       1.703   4.443  17.743  0.00  0.00    +0.000 C 
ATOM     10  C   UNL     1       2.887   5.253  18.230  0.00  0.00    +0.000 C 
ATOM     11  O   UNL     1       3.246   6.324  17.770  0.00  0.00    +0.000 OA
ENDROOT
BRANCH   6  12
ATOM     12  O   UNL     1       3.337   1.119  18.474  0.00  0.00    +0.000 OA
ATOM     13  H   UNL     1       4.239   0.961  18.792  0.00  0.00    +0.000 HD
ENDBRANCH   6  12
TORSDOF 1
ENDMDL
MODEL 3
REMARK VINA RESULT:      -6.0      1.648      2.632
REMARK  Name = 
REMARK  4 active torsions:
REMARK  status: ('A' for Active; 'I' for Inactive)
REMARK    1  A    between atoms: C_1  and  C_2
REMARK    2  A    between atoms: C_2  and  C_3
REMARK    3  A    between atoms: C_6  and  O_7
REMARK    4  A    between atoms: C_8  and  C_9
REMARK                            x       y       z     vdW  Elec       q    Type
REMARK                         _______ _______ _______ _____ _____    ______ ____
ROOT
ATOM      1  C   UNL     1       1.678   5.453  20.618  0.00  0.00    +0.000 C 
ATOM      2  C   UNL     1       2.723   4.503  20.000  0.00  0.00    +0.000 C 
ATOM      3  C   UNL     1       3.899   5.405  19.560  0.00  0.00    +0.000 C 
ATOM      4  C   UNL     1       3.132   3.354  20.951  0.00  0.00    +0.000 C 
ATOM      5  C   UNL     1       1.851   2.504  21.095  0.00  0.00    +0.000 C 
ATOM      6  C   UNL     1       1.229   2.571  19.678  0.00  0.00    +0.000 C 
ATOM      7  C   UNL     1       2.214   3.506  18.901  0.00  0.00    +0.000 C 
ATOM      8  C   UNL     1       1.651   4.126  17.636  0.00  0.00    +0.000 C 
ATOM      9  C   UNL     1       3.477   2.631  18.611  0.00  0.00    +0.000 C 
ATOM     10  C   UNL     1       4.013   2.532  20.025  0.00  0.00    +0.000 C 
ATOM     11  O   UNL     1       4.970   1.860  20.371  0.00  0.00    +0.000 OA
ENDROOT
BRANCH   6  12
ATOM     12  O   UNL     1      -0.114   3.013  19.715  0.00  0.00    +0.000 OA
ATOM     13  H   UNL     1      -0.419   3.098  20.631  0.00  0.00    +0.000 HD
ENDBRANCH   6  12
TORSDOF 1
ENDMDL
MODEL 4
REMARK VINA RESULT:      -6.0      1.714      3.011
REMARK  Name = 
REMARK  4 active torsions:
REMARK  status: ('A' for Active; 'I' for Inactive)
REMARK    1  A    between atoms: C_1  and  C_2
REMARK    2  A    between atoms: C_2  and  C_3
REMARK    3  A    between atoms: C_6  and  O_7
REMARK    4  A    between atoms: C_8  and  C_9
REMARK                            x       y       z     vdW  Elec       q    Type
REMARK                         _______ _______ _______ _____ _____    ______ ____
ROOT
ATOM      1  C   UNL     1       1.394   2.819  20.432  0.00  0.00    +0.000 C 
ATOM      2  C   UNL     1       2.528   3.698  19.869  0.00  0.00    +0.000 C 
ATOM      3  C   UNL     1       2.455   5.028  20.653  0.00  0.00    +0.000 C 
ATOM      4  C   UNL     1       3.911   3.008  19.927  0.00  0.00    +0.000 C 
ATOM      5  C   UNL     1       3.789   1.827  18.941  0.00  0.00    +0.000 C 
ATOM      6  C   UNL     1       2.915   2.411  17.804  0.00  0.00    +0.000 C 
ATOM      7  C   UNL     1       2.595   3.857  18.311  0.00  0.00    +0.000 C 
ATOM      8  C   UNL     1       1.402   4.522  17.648  0.00  0.00    +0.000 C 
ATOM      9  C   UNL     1       3.911   4.673  18.098  0.00  0.00    +0.000 C 
ATOM     10  C   UNL     1       4.756   4.025  19.176  0.00  0.00    +0.000 C 
ATOM     11  O   UNL     1       5.938   4.247  19.376  0.00  0.00    +0.000 OA
ENDROOT
BRANCH   6  12
ATOM     12  O   UNL     1       1.784   1.603  17.543  0.00  0.00    +0.000 OA
ATOM     13  H   UNL     1       1.477   1.176  18.357  0.00  0.00    +0.000 HD
ENDBRANCH   6  12
TORSDOF 1
ENDMDL
MODEL 5
REMARK VINA RESULT:      -5.9      1.362      2.600
REMARK  Name = 
REMARK  4 active torsions:
REMARK  status: ('A' for Active; 'I' for Inactive)
REMARK    1  A    between atoms: C_1  and  C_2
REMARK    2  A    between atoms: C_2  and  C_3
REMARK    3  A    between atoms: C_6  and  O_7
REMARK    4  A    between atoms: C_8  and  C_9
REMARK                            x       y       z     vdW  Elec       q    Type
REMARK                         _______ _______ _______ _____ _____    ______ ____
ROOT
ATOM      1  C   UNL     1       2.643   2.208  17.525  0.00  0.00    +0.000 C 
ATOM      2  C   UNL     1       2.160   2.897  18.816  0.00  0.00    +0.000 C 
ATOM      3  C   UNL     1       0.627   2.697  18.849  0.00  0.00    +0.000 C 
ATOM      4  C   UNL     1       2.888   2.386  20.082  0.00  0.00    +0.000 C 
ATOM      5  C   UNL     1       4.347   2.855  19.897  0.00  0.00    +0.000 C 
ATOM      6  C   UNL     1       4.185   4.240  19.223  0.00  0.00    +0.000 C 
ATOM      7  C   UNL     1       2.635   4.372  19.054  0.00  0.00    +0.000 C 
ATOM      8  C   UNL     1       2.184   5.399  18.031  0.00  0.00    +0.000 C 
ATOM      9  C   UNL     1       2.086   4.691  20.483  0.00  0.00    +0.000 C 
ATOM     10  C   UNL     1       2.328   3.340  21.124  0.00  0.00    +0.000 C 
ATOM     11  O   UNL     1       2.148   3.075  22.301  0.00  0.00    +0.000 OA
ENDROOT
BRANCH   6  12
ATOM     12  O   UNL     1       4.929   4.330  18.023  0.00  0.00    +0.000 OA
ATOM     13  H   UNL     1       5.438   5.154  18.000  0.00  0.00    +0.000 HD
ENDBRANCH   6  12
TORSDOF 1
ENDMDL
MODEL 6
REMARK VINA RESULT:      -5.8      3.778      5.090
REMARK  Name = 
REMARK  4 active torsions:
REMARK  status: ('A' for Active; 'I' for Inactive)
REMARK    1  A    between atoms: C_1  and  C_2
REMARK    2  A    between atoms: C_2  and  C_3
REMARK    3  A    between atoms: C_6  and  O_7
REMARK    4  A    between atoms: C_8  and  C_9
REMARK                            x       y       z     vdW  Elec       q    Type
REMARK                         _______ _______ _______ _____ _____    ______ ____
ROOT
ATOM      1  C   UNL     1       4.942   6.716  15.356  0.00  0.00    +0.000 C 
ATOM      2  C   UNL     1       5.057   6.055  16.743  0.00  0.00    +0.000 C 
ATOM      3  C   UNL     1       4.168   6.899  17.684  0.00  0.00    +0.000 C 
ATOM      4  C   UNL     1       4.703   4.549  16.725  0.00  0.00    +0.000 C 
ATOM      5  C   UNL     1       5.821   3.905  15.878  0.00  0.00    +0.000 C 
ATOM      6  C   UNL     1       7.075   4.720  16.280  0.00  0.00    +0.000 C 
ATOM      7  C   UNL     1       6.504   5.779  17.280  0.00  0.00    +0.000 C 
ATOM      8  C   UNL     1       7.384   6.995  17.502  0.00  0.00    +0.000 C 
ATOM      9  C   UNL     1       6.242   4.997  18.609  0.00  0.00    +0.000 C 
ATOM     10  C   UNL     1       5.060   4.167  18.152  0.00  0.00    +0.000 C 
ATOM     11  O   UNL     1       4.515   3.295  18.809  0.00  0.00    +0.000 OA
ENDROOT
BRANCH   6  12
ATOM     12  O   UNL     1       7.736   5.257  15.150  0.00  0.00    +0.000 OA
ATOM     13  H   UNL     1       8.510   4.721  14.922  0.00  0.00    +0.000 HD
ENDBRANCH   6  12
TORSDOF 1
ENDMDL
MODEL 7
REMARK VINA RESULT:      -5.8      1.679      2.547
REMARK  Name = 
REMARK  4 active torsions:
REMARK  status: ('A' for Active; 'I' for Inactive)
REMARK    1  A    between atoms: C_1  and  C_2
REMARK    2  A    between atoms: C_2  and  C_3
REMARK    3  A    between atoms: C_6  and  O_7
REMARK    4  A    between atoms: C_8  and  C_9
REMARK                            x       y       z     vdW  Elec       q    Type
REMARK                         _______ _______ _______ _____ _____    ______ ____
ROOT
ATOM      1  C   UNL     1       3.988   4.244  17.019  0.00  0.00    +0.000 C 
ATOM      2  C   UNL     1       2.752   3.953  17.892  0.00  0.00    +0.000 C 
ATOM      3  C   UNL     1       1.693   5.000  17.479  0.00  0.00    +0.000 C 
ATOM      4  C   UNL     1       2.266   2.489  17.783  0.00  0.00    +0.000 C 
ATOM      5  C   UNL     1       3.407   1.661  18.413  0.00  0.00    +0.000 C 
ATOM      6  C   UNL     1       3.887   2.560  19.578  0.00  0.00    +0.000 C 
ATOM      7  C   UNL     1       2.988   3.833  19.438  0.00  0.00    +0.000 C 
ATOM      8  C   UNL     1       3.512   5.073  20.139  0.00  0.00    +0.000 C 
ATOM      9  C   UNL     1       1.582   3.409  19.975  0.00  0.00    +0.000 C 
ATOM     10  C   UNL     1       1.180   2.481  18.847  0.00  0.00    +0.000 C 
ATOM     11  O   UNL     1       0.170   1.798  18.820  0.00  0.00    +0.000 OA
ENDROOT
BRANCH   6  12
ATOM     12  O   UNL     1       5.280   2.801  19.515  0.00  0.00    +0.000 OA
ATOM     13  H   UNL     1       5.743   2.306  20.207  0.00  0.00    +0.000 HD
ENDBRANCH   6  12
TORSDOF 1
ENDMDL
MODEL 8
REMARK VINA RESULT:      -5.8      1.963      3.432
REMARK  Name = 
REMARK  4 active torsions:
REMARK  status: ('A' for Active; 'I' for Inactive)
REMARK    1  A    between atoms: C_1  and  C_2
REMARK    2  A    between atoms: C_2  and  C_3
REMARK    3  A    between atoms: C_6  and  O_7
REMARK    4  A    between atoms: C_8  and  C_9
REMARK                            x       y       z     vdW  Elec       q    Type
REMARK                         _______ _______ _______ _____ _____    ______ ____
ROOT
ATOM      1  C   UNL     1       2.746   3.026  21.255  0.00  0.00    +0.000 C 
ATOM      2  C   UNL     1       2.298   3.832  20.020  0.00  0.00    +0.000 C 
ATOM      3  C   UNL     1       0.753   3.850  20.069  0.00  0.00    +0.000 C 
ATOM      4  C   UNL     1       2.942   5.237  19.950  0.00  0.00    +0.000 C 
ATOM      5  C   UNL     1       4.443   4.957  19.725  0.00  0.00    +0.000 C 
ATOM      6  C   UNL     1       4.431   3.722  18.792  0.00  0.00    +0.000 C 
ATOM      7  C   UNL     1       2.906   3.409  18.638  0.00  0.00    +0.000 C 
ATOM      8  C   UNL     1       2.582   2.005  18.159  0.00  0.00    +0.000 C 
ATOM      9  C   UNL     1       2.354   4.500  17.663  0.00  0.00    +0.000 C 
ATOM     10  C   UNL     1       2.449   5.697  18.587  0.00  0.00    +0.000 C 
ATOM     11  O   UNL     1       2.215   6.851  18.273  0.00  0.00    +0.000 OA
ENDROOT
BRANCH   6  12
ATOM     12  O   UNL     1       5.211   2.663  19.314  0.00  0.00    +0.000 OA
ATOM     13  H   UNL     1       4.810   2.312  20.123  0.00  0.00    +0.000 HD
ENDBRANCH   6  12
TORSDOF 1
ENDMDL
MODEL 9
REMARK VINA RESULT:      -5.8      1.897      3.213
REMARK  Name = 
REMARK  4 active torsions:
REMARK  status: ('A' for Active; 'I' for Inactive)
REMARK    1  A    between atoms: C_1  and  C_2
REMARK    2  A    between atoms: C_2  and  C_3
REMARK    3  A    between atoms: C_6  and  O_7
REMARK    4  A    between atoms: C_8  and  C_9
REMARK                            x       y       z     vdW  Elec       q    Type
REMARK                         _______ _______ _______ _____ _____    ______ ____
ROOT
ATOM      1  C   UNL     1       1.177   2.163  18.951  0.00  0.00    +0.000 C 
ATOM      2  C   UNL     1       2.173   3.325  18.771  0.00  0.00    +0.000 C 
ATOM      3  C   UNL     1       2.702   3.202  17.324  0.00  0.00    +0.000 C 
ATOM      4  C   UNL     1       1.557   4.705  19.101  0.00  0.00    +0.000 C 
ATOM      5  C   UNL     1       1.279   4.645  20.618  0.00  0.00    +0.000 C 
ATOM      6  C   UNL     1       2.483   3.836  21.161  0.00  0.00    +0.000 C 
ATOM      7  C   UNL     1       3.285   3.481  19.865  0.00  0.00    +0.000 C 
ATOM      8  C   UNL     1       4.260   2.327  20.007  0.00  0.00    +0.000 C 
ATOM      9  C   UNL     1       4.005   4.805  19.447  0.00  0.00    +0.000 C 
ATOM     10  C   UNL     1       2.790   5.588  18.991  0.00  0.00    +0.000 C 
ATOM     11  O   UNL     1       2.794   6.756  18.640  0.00  0.00    +0.000 OA
ENDROOT
BRANCH   6  12
ATOM     12  O   UNL     1       2.064   2.724  21.930  0.00  0.00    +0.000 OA
ATOM     13  H   UNL     1       1.097   2.681  21.967  0.00  0.00    +0.000 HD
ENDBRANCH   6  12
TORSDOF 1
ENDMDL
