MODEL 1
REMARK VINA RESULT:      -8.0      0.000      0.000
REMARK  Name = 
REMARK  7 active torsions:
REMARK  status: ('A' for Active; 'I' for Inactive)
REMARK    1  A    between atoms: C_2  and  O_3
REMARK    2  A    between atoms: C_2  and  C_4
REMARK    3  A    between atoms: C_9  and  C_10
REMARK    4  A    between atoms: C_10  and  N_11
REMARK    5  A    between atoms: C_15  and  C_16
REMARK    6  A    between atoms: C_16  and  C_17
REMARK    7  A    between atoms: C_17  and  C_18
REMARK                            x       y       z     vdW  Elec       q    Type
REMARK                         _______ _______ _______ _____ _____    ______ ____
ROOT
ATOM      1  N   UNL     1       5.895   5.062  18.048  0.00  0.00    +0.000 NA
ATOM      2  C   UNL     1       7.330   4.991  18.412  0.00  0.00    +0.000 C 
ATOM      3  C   UNL     1       7.806   6.411  18.600  0.00  0.00    +0.000 C 
ATOM      4  C   UNL     1       7.043   7.167  17.536  0.00  0.00    +0.000 C 
ATOM      5  C   UNL     1       5.731   6.389  17.355  0.00  0.00    +0.000 C 
ENDROOT
BRANCH   1   6
ATOM      6  C   UNL     1       5.005   5.064  19.245  0.00  0.00    +0.000 C 
BRANCH   6  12
ATOM      7  C   UNL     1       3.175   3.294  19.690  0.00  0.00    +0.000 A 
ATOM      8  C   UNL     1       1.963   2.740  19.238  0.00  0.00    +0.000 A 
ATOM      9  C   UNL     1       1.200   3.390  18.272  0.00  0.00    +0.000 A 
ATOM     10  C   UNL     1       1.668   4.592  17.791  0.00  0.00    +0.000 A 
ATOM     11  N   UNL     1       2.843   5.142  18.174  0.00  0.00    +0.000 NA
ATOM     12  C   UNL     1       3.611   4.482  19.096  0.00  0.00    +0.000 A 
BRANCH   7  14
ATOM     13  O   UNL     1       4.954   1.977  20.518  0.00  0.00    +0.000 OA
ATOM     14  C   UNL     1       3.882   2.520  20.737  0.00  0.00    +0.000 C 
BRANCH  14  15
ATOM     15  O   UNL     1       3.189   2.294  21.869  0.00  0.00    +0.000 OA
ATOM     16  H   UNL     1       3.693   2.432  22.706  0.00  0.00    +0.000 HD
ENDBRANCH  14  15
ENDBRANCH   7  14
ENDBRANCH   6  12
ENDBRANCH   1   6
BRANCH   5  17
ATOM     17  C   UNL     1       5.378   6.257  15.863  0.00  0.00    +0.000 C 
BRANCH  17  18
ATOM     18  C   UNL     1       5.143   4.807  15.438  0.00  0.00    +0.000 C 
BRANCH  18  19
ATOM     19  C   UNL     1       5.855   4.454  14.155  0.00  0.00    +0.000 A 
ATOM     20  C   UNL     1       5.280   3.545  13.257  0.00  0.00    +0.000 A 
ATOM     21  C   UNL     1       5.910   3.249  12.048  0.00  0.00    +0.000 A 
ATOM     22  C   UNL     1       7.125   3.849  11.726  0.00  0.00    +0.000 A 
ATOM     23  C   UNL     1       7.718   4.737  12.621  0.00  0.00    +0.000 A 
ATOM     24  C   UNL     1       7.090   5.037  13.833  0.00  0.00    +0.000 A 
ENDBRANCH  18  19
ENDBRANCH  17  18
ENDBRANCH   5  17
TORSDOF 7
ENDMDL
MODEL 2
REMARK VINA RESULT:      -7.9      1.077      1.231
REMARK  Name = 
REMARK  7 active torsions:
REMARK  status: ('A' for Active; 'I' for Inactive)
REMARK    1  A    between atoms: C_2  and  O_3
REMARK    2  A    between atoms: C_2  and  C_4
REMARK    3  A    between atoms: C_9  and  C_10
REMARK    4  A    between atoms: C_10  and  N_11
REMARK    5  A    between atoms: C_15  and  C_16
REMARK    6  A    between atoms: C_16  and  C_17
REMARK    7  A    between atoms: C_17  and  C_18
REMARK                            x       y       z     vdW  Elec       q    Type
REMARK                         _______ _______ _______ _____ _____    ______ ____
ROOT
ATOM      1  N   UNL     1       5.929   4.822  18.227  0.00  0.00    +0.000 NA
ATOM      2  C   UNL     1       7.408   4.900  18.226  0.00  0.00    +0.000 C 
ATOM      3  C   UNL     1       7.770   6.365  18.202  0.00  0.00    +0.000 C 
ATOM      4  C   UNL     1       6.701   6.963  17.317  0.00  0.00    +0.000 C 
ATOM      5  C   UNL     1       5.469   6.068  17.516  0.00  0.00    +0.000 C 
ENDROOT
BRANCH   1   6
ATOM      6  C   UNL     1       5.359   4.852  19.605  0.00  0.00    +0.000 C 
BRANCH   6  12
ATOM      7  C   UNL     1       3.373   3.205  19.441  0.00  0.00    +0.000 A 
ATOM      8  C   UNL     1       1.973   3.077  19.399  0.00  0.00    +0.000 A 
ATOM      9  C   UNL     1       1.150   4.146  19.745  0.00  0.00    +0.000 A 
ATOM     10  C   UNL     1       1.758   5.318  20.139  0.00  0.00    +0.000 A 
ATOM     11  N   UNL     1       3.098   5.492  20.161  0.00  0.00    +0.000 NA
ATOM     12  C   UNL     1       3.905   4.451  19.783  0.00  0.00    +0.000 A 
BRANCH   7  14
ATOM     13  O   UNL     1       3.822   1.298  18.120  0.00  0.00    +0.000 OA
ATOM     14  C   UNL     1       4.139   1.991  19.074  0.00  0.00    +0.000 C 
BRANCH  14  15
ATOM     15  O   UNL     1       5.074   1.597  19.959  0.00  0.00    +0.000 OA
ATOM     16  H   UNL     1       5.614   0.819  19.683  0.00  0.00    +0.000 HD
ENDBRANCH  14  15
ENDBRANCH   7  14
ENDBRANCH   6  12
ENDBRANCH   1   6
BRANCH   5  17
ATOM     17  C   UNL     1       4.781   5.782  16.170  0.00  0.00    +0.000 C 
BRANCH  17  18
ATOM     18  C   UNL     1       4.997   4.346  15.689  0.00  0.00    +0.000 C 
BRANCH  18  19
ATOM     19  C   UNL     1       5.793   4.276  14.409  0.00  0.00    +0.000 A 
ATOM     20  C   UNL     1       5.319   3.525  13.325  0.00  0.00    +0.000 A 
ATOM     21  C   UNL     1       6.026   3.491  12.123  0.00  0.00    +0.000 A 
ATOM     22  C   UNL     1       7.217   4.199  11.992  0.00  0.00    +0.000 A 
ATOM     23  C   UNL     1       7.712   4.931  13.070  0.00  0.00    +0.000 A 
ATOM     24  C   UNL     1       7.006   4.967  14.276  0.00  0.00    +0.000 A 
ENDBRANCH  18  19
ENDBRANCH  17  18
ENDBRANCH   5  17
TORSDOF 7
ENDMDL
MODEL 3
REMARK VINA RESULT:      -7.9      3.161      6.702
REMARK  Name = 
REMARK  7 active torsions:
REMARK  status: ('A' for Active; 'I' for Inactive)
REMARK    1  A    between atoms: C_2  and  O_3
REMARK    2  A    between atoms: C_2  and  C_4
REMARK    3  A    between atoms: C_9  and  C_10
REMARK    4  A    between atoms: C_10  and  N_11
REMARK    5  A    between atoms: C_15  and  C_16
REMARK    6  A    between atoms: C_16  and  C_17
REMARK    7  A    between atoms: C_17  and  C_18
REMARK                            x       y       z     vdW  Elec       q    Type
REMARK                         _______ _______ _______ _____ _____    ______ ____
ROOT
ATOM      1  N   UNL     1       3.639   3.646  19.112  0.00  0.00    +0.000 NA
ATOM      2  C   UNL     1       3.779   2.195  19.375  0.00  0.00    +0.000 C 
ATOM      3  C   UNL     1       2.647   1.506  18.650  0.00  0.00    +0.000 C 
ATOM      4  C   UNL     1       1.503   2.482  18.806  0.00  0.00    +0.000 C 
ATOM      5  C   UNL     1       2.165   3.865  18.892  0.00  0.00    +0.000 C 
ENDROOT
BRANCH   1   6
ATOM      6  C   UNL     1       4.349   4.069  17.870  0.00  0.00    +0.000 C 
BRANCH   6  12
ATOM      7  C   UNL     1       6.071   5.764  16.951  0.00  0.00    +0.000 A 
ATOM      8  C   UNL     1       7.301   6.407  17.180  0.00  0.00    +0.000 A 
ATOM      9  C   UNL     1       7.897   6.375  18.438  0.00  0.00    +0.000 A 
ATOM     10  C   UNL     1       7.234   5.705  19.442  0.00  0.00    +0.000 A 
ATOM     11  N   UNL     1       6.068   5.046  19.256  0.00  0.00    +0.000 NA
ATOM     12  C   UNL     1       5.502   5.046  18.008  0.00  0.00    +0.000 A 
BRANCH   7  14
ATOM     13  O   UNL     1       5.669   5.005  14.749  0.00  0.00    +0.000 OA
ATOM     14  C   UNL     1       5.528   5.891  15.579  0.00  0.00    +0.000 C 
BRANCH  14  15
ATOM     15  O   UNL     1       5.045   7.104  15.248  0.00  0.00    +0.000 OA
ATOM     16  H   UNL     1       5.350   7.456  14.379  0.00  0.00    +0.000 HD
ENDBRANCH  14  15
ENDBRANCH   7  14
ENDBRANCH   6  12
ENDBRANCH   1   6
BRANCH   5  17
ATOM     17  C   UNL     1       1.506   4.717  19.990  0.00  0.00    +0.000 C 
BRANCH  17  18
ATOM     18  C   UNL     1       2.398   5.865  20.462  0.00  0.00    +0.000 C 
BRANCH  18  19
ATOM     19  C   UNL     1       2.125   7.154  19.726  0.00  0.00    +0.000 A 
ATOM     20  C   UNL     1       2.550   7.311  18.400  0.00  0.00    +0.000 A 
ATOM     21  C   UNL     1       2.261   8.482  17.698  0.00  0.00    +0.000 A 
ATOM     22  C   UNL     1       1.554   9.511  18.313  0.00  0.00    +0.000 A 
ATOM     23  C   UNL     1       1.146   9.376  19.639  0.00  0.00    +0.000 A 
ATOM     24  C   UNL     1       1.433   8.205  20.345  0.00  0.00    +0.000 A 
ENDBRANCH  18  19
ENDBRANCH  17  18
ENDBRANCH   5  17
TORSDOF 7
ENDMDL
MODEL 4
REMARK VINA RESULT:      -7.9      1.809      2.382
REMARK  Name = 
REMARK  7 active torsions:
REMARK  status: ('A' for Active; 'I' for Inactive)
REMARK    1  A    between atoms: C_2  and  O_3
REMARK    2  A    between atoms: C_2  and  C_4
REMARK    3  A    between atoms: C_9  and  C_10
REMARK    4  A    between atoms: C_10  and  N_11
REMARK    5  A    between atoms: C_15  and  C_16
REMARK    6  A    between atoms: C_16  and  C_17
REMARK    7  A    between atoms: C_17  and  C_18
REMARK                            x       y       z     vdW  Elec       q    Type
REMARK                         _______ _______ _______ _____ _____    ______ ____
ROOT
ATOM      1  N   UNL     1       6.041   4.802  17.935  0.00  0.00    +0.000 NA
ATOM      2  C   UNL     1       7.488   4.859  18.248  0.00  0.00    +0.000 C 
ATOM      3  C   UNL     1       7.816   6.302  18.548  0.00  0.00    +0.000 C 
ATOM      4  C   UNL     1       6.935   7.057  17.579  0.00  0.00    +0.000 C 
ATOM      5  C   UNL     1       5.708   6.158  17.369  0.00  0.00    +0.000 C 
ENDROOT
BRANCH   1   6
ATOM      6  C   UNL     1       5.204   4.604  19.154  0.00  0.00    +0.000 C 
BRANCH   6  12
ATOM      7  C   UNL     1       2.620   4.666  19.111  0.00  0.00    +0.000 A 
ATOM      8  C   UNL     1       1.440   3.906  19.203  0.00  0.00    +0.000 A 
ATOM      9  C   UNL     1       1.479   2.517  19.106  0.00  0.00    +0.000 A 
ATOM     10  C   UNL     1       2.707   1.925  18.907  0.00  0.00    +0.000 A 
ATOM     11  N   UNL     1       3.867   2.617  18.847  0.00  0.00    +0.000 NA
ATOM     12  C   UNL     1       3.831   3.980  18.981  0.00  0.00    +0.000 A 
BRANCH   7  14
ATOM     13  O   UNL     1       2.113   6.676  20.247  0.00  0.00    +0.000 OA
ATOM     14  C   UNL     1       2.445   6.134  19.203  0.00  0.00    +0.000 C 
BRANCH  14  15
ATOM     15  O   UNL     1       2.483   6.805  18.036  0.00  0.00    +0.000 OA
ATOM     16  H   UNL     1       2.573   7.784  18.116  0.00  0.00    +0.000 HD
ENDBRANCH  14  15
ENDBRANCH   7  14
ENDBRANCH   6  12
ENDBRANCH   1   6
BRANCH   5  17
ATOM     17  C   UNL     1       5.312   6.116  15.883  0.00  0.00    +0.000 C 
BRANCH  17  18
ATOM     18  C   UNL     1       5.039   4.697  15.384  0.00  0.00    +0.000 C 
BRANCH  18  19
ATOM     19  C   UNL     1       5.750   4.390  14.088  0.00  0.00    +0.000 A 
ATOM     20  C   UNL     1       6.977   5.000  13.797  0.00  0.00    +0.000 A 
ATOM     21  C   UNL     1       7.663   4.687  12.622  0.00  0.00    +0.000 A 
ATOM     22  C   UNL     1       7.127   3.770  11.723  0.00  0.00    +0.000 A 
ATOM     23  C   UNL     1       5.896   3.174  11.990  0.00  0.00    +0.000 A 
ATOM     24  C   UNL     1       5.207   3.485  13.165  0.00  0.00    +0.000 A 
ENDBRANCH  18  19
ENDBRANCH  17  18
ENDBRANCH   5  17
TORSDOF 7
ENDMDL
MODEL 5
REMARK VINA RESULT:      -7.9      3.199      6.738
REMARK  Name = 
REMARK  7 active torsions:
REMARK  status: ('A' for Active; 'I' for Inactive)
REMARK    1  A    between atoms: C_2  and  O_3
REMARK    2  A    between atoms: C_2  and  C_4
REMARK    3  A    between atoms: C_9  and  C_10
REMARK    4  A    between atoms: C_10  and  N_11
REMARK    5  A    between atoms: C_15  and  C_16
REMARK    6  A    between atoms: C_16  and  C_17
REMARK    7  A    between atoms: C_17  and  C_18
REMARK                            x       y       z     vdW  Elec       q    Type
REMARK                         _______ _______ _______ _____ _____    ______ ____
ROOT
ATOM      1  N   UNL     1       3.421   3.676  19.136  0.00  0.00    +0.000 NA
ATOM      2  C   UNL     1       3.447   2.206  19.315  0.00  0.00    +0.000 C 
ATOM      3  C   UNL     1       2.238   1.655  18.598  0.00  0.00    +0.000 C 
ATOM      4  C   UNL     1       1.186   2.711  18.850  0.00  0.00    +0.000 C 
ATOM      5  C   UNL     1       1.964   4.028  18.985  0.00  0.00    +0.000 C 
ENDROOT
BRANCH   1   6
ATOM      6  C   UNL     1       4.122   4.110  17.893  0.00  0.00    +0.000 C 
BRANCH   6  12
ATOM      7  C   UNL     1       5.951   5.696  16.985  0.00  0.00    +0.000 A 
ATOM      8  C   UNL     1       7.217   6.261  17.220  0.00  0.00    +0.000 A 
ATOM      9  C   UNL     1       7.803   6.192  18.481  0.00  0.00    +0.000 A 
ATOM     10  C   UNL     1       7.095   5.563  19.481  0.00  0.00    +0.000 A 
ATOM     11  N   UNL     1       5.891   4.978  19.288  0.00  0.00    +0.000 NA
ATOM     12  C   UNL     1       5.333   5.014  18.037  0.00  0.00    +0.000 A 
BRANCH   7  14
ATOM     13  O   UNL     1       5.545   4.978  14.770  0.00  0.00    +0.000 OA
ATOM     14  C   UNL     1       5.423   5.857  15.610  0.00  0.00    +0.000 C 
BRANCH  14  15
ATOM     15  O   UNL     1       4.980   7.088  15.291  0.00  0.00    +0.000 OA
ATOM     16  H   UNL     1       5.600   7.632  14.751  0.00  0.00    +0.000 HD
ENDBRANCH  14  15
ENDBRANCH   7  14
ENDBRANCH   6  12
ENDBRANCH   1   6
BRANCH   5  17
ATOM     17  C   UNL     1       1.416   4.867  20.152  0.00  0.00    +0.000 C 
BRANCH  17  18
ATOM     18  C   UNL     1       2.341   6.023  20.534  0.00  0.00    +0.000 C 
BRANCH  18  19
ATOM     19  C   UNL     1       2.056   7.280  19.747  0.00  0.00    +0.000 A 
ATOM     20  C   UNL     1       1.322   8.322  20.329  0.00  0.00    +0.000 A 
ATOM     21  C   UNL     1       1.093   9.505  19.625  0.00  0.00    +0.000 A 
ATOM     22  C   UNL     1       1.585   9.656  18.332  0.00  0.00    +0.000 A 
ATOM     23  C   UNL     1       2.296   8.617  17.734  0.00  0.00    +0.000 A 
ATOM     24  C   UNL     1       2.528   7.431  18.436  0.00  0.00    +0.000 A 
ENDBRANCH  18  19
ENDBRANCH  17  18
ENDBRANCH   5  17
TORSDOF 7
ENDMDL
MODEL 6
REMARK VINA RESULT:      -7.7      0.807      1.399
REMARK  Name = 
REMARK  7 active torsions:
REMARK  status: ('A' for Active; 'I' for Inactive)
REMARK    1  A    between atoms: C_2  and  O_3
REMARK    2  A    between atoms: C_2  and  C_4
REMARK    3  A    between atoms: C_9  and  C_10
REMARK    4  A    between atoms: C_10  and  N_11
REMARK    5  A    between atoms: C_15  and  C_16
REMARK    6  A    between atoms: C_16  and  C_17
REMARK    7  A    between atoms: C_17  and  C_18
REMARK                            x       y       z     vdW  Elec       q    Type
REMARK                         _______ _______ _______ _____ _____    ______ ____
ROOT
ATOM      1  N   UNL     1       6.300   5.061  18.018  0.00  0.00    +0.000 NA
ATOM      2  C   UNL     1       7.723   5.170  18.416  0.00  0.00    +0.000 C 
ATOM      3  C   UNL     1       8.006   6.638  18.631  0.00  0.00    +0.000 C 
ATOM      4  C   UNL     1       7.175   7.303  17.558  0.00  0.00    +0.000 C 
ATOM      5  C   UNL     1       5.980   6.366  17.337  0.00  0.00    +0.000 C 
ENDROOT
BRANCH   1   6
ATOM      6  C   UNL     1       5.390   4.930  19.194  0.00  0.00    +0.000 C 
BRANCH   6  12
ATOM      7  C   UNL     1       3.446   3.279  18.774  0.00  0.00    +0.000 A 
ATOM      8  C   UNL     1       2.145   3.126  18.262  0.00  0.00    +0.000 A 
ATOM      9  C   UNL     1       1.356   4.238  17.981  0.00  0.00    +0.000 A 
ATOM     10  C   UNL     1       1.891   5.481  18.234  0.00  0.00    +0.000 A 
ATOM     11  N   UNL     1       3.148   5.673  18.694  0.00  0.00    +0.000 NA
ATOM     12  C   UNL     1       3.937   4.578  18.933  0.00  0.00    +0.000 A 
BRANCH   7  14
ATOM     13  O   UNL     1       3.900   0.978  18.483  0.00  0.00    +0.000 OA
ATOM     14  C   UNL     1       4.176   2.021  19.055  0.00  0.00    +0.000 C 
BRANCH  14  15
ATOM     15  O   UNL     1       5.021   2.054  20.104  0.00  0.00    +0.000 OA
ATOM     16  H   UNL     1       5.595   1.258  20.207  0.00  0.00    +0.000 HD
ENDBRANCH  14  15
ENDBRANCH   7  14
ENDBRANCH   6  12
ENDBRANCH   1   6
BRANCH   5  17
ATOM     17  C   UNL     1       5.680   6.210  15.835  0.00  0.00    +0.000 C 
BRANCH  17  18
ATOM     18  C   UNL     1       5.347   4.770  15.446  0.00  0.00    +0.000 C 
BRANCH  18  19
ATOM     19  C   UNL     1       5.879   4.399  14.082  0.00  0.00    +0.000 A 
ATOM     20  C   UNL     1       7.103   4.917  13.640  0.00  0.00    +0.000 A 
ATOM     21  C   UNL     1       7.623   4.544  12.400  0.00  0.00    +0.000 A 
ATOM     22  C   UNL     1       6.924   3.657  11.586  0.00  0.00    +0.000 A 
ATOM     23  C   UNL     1       5.694   3.153  12.005  0.00  0.00    +0.000 A 
ATOM     24  C   UNL     1       5.170   3.525  13.246  0.00  0.00    +0.000 A 
ENDBRANCH  18  19
ENDBRANCH  17  18
ENDBRANCH   5  17
TORSDOF 7
ENDMDL
MODEL 7
REMARK VINA RESULT:      -7.7      3.240      6.925
REMARK  Name = 
REMARK  7 active torsions:
REMARK  status: ('A' for Active; 'I' for Inactive)
REMARK    1  A    between atoms: C_2  and  O_3
REMARK    2  A    between atoms: C_2  and  C_4
REMARK    3  A    between atoms: C_9  and  C_10
REMARK    4  A    between atoms: C_10  and  N_11
REMARK    5  A    between atoms: C_15  and  C_16
REMARK    6  A    between atoms: C_16  and  C_17
REMARK    7  A    between atoms: C_17  and  C_18
REMARK                            x       y       z     vdW  Elec       q    Type
REMARK                         _______ _______ _______ _____ _____    ______ ____
ROOT
ATOM      1  N   UNL     1       3.475   4.163  19.267  0.00  0.00    +0.000 NA
ATOM      2  C   UNL     1       2.913   3.122  20.159  0.00  0.00    +0.000 C 
ATOM      3  C   UNL     1       2.166   2.147  19.280  0.00  0.00    +0.000 C 
ATOM      4  C   UNL     1       1.562   3.041  18.222  0.00  0.00    +0.000 C 
ATOM      5  C   UNL     1       2.534   4.222  18.092  0.00  0.00    +0.000 C 
ENDROOT
BRANCH   1   6
ATOM      6  C   UNL     1       4.824   3.798  18.748  0.00  0.00    +0.000 C 
BRANCH   6  12
ATOM      7  C   UNL     1       6.158   5.570  17.419  0.00  0.00    +0.000 A 
ATOM      8  C   UNL     1       7.320   6.361  17.384  0.00  0.00    +0.000 A 
ATOM      9  C   UNL     1       8.109   6.517  18.521  0.00  0.00    +0.000 A 
ATOM     10  C   UNL     1       7.701   5.882  19.673  0.00  0.00    +0.000 A 
ATOM     11  N   UNL     1       6.610   5.086  19.740  0.00  0.00    +0.000 NA
ATOM     12  C   UNL     1       5.857   4.903  18.610  0.00  0.00    +0.000 A 
BRANCH   7  14
ATOM     13  O   UNL     1       5.161   4.437  15.599  0.00  0.00    +0.000 OA
ATOM     14  C   UNL     1       5.391   5.502  16.153  0.00  0.00    +0.000 C 
BRANCH  14  15
ATOM     15  O   UNL     1       5.134   6.682  15.558  0.00  0.00    +0.000 OA
ATOM     16  H   UNL     1       5.849   7.357  15.634  0.00  0.00    +0.000 HD
ENDBRANCH  14  15
ENDBRANCH   7  14
ENDBRANCH   6  12
ENDBRANCH   1   6
BRANCH   5  17
ATOM     17  C   UNL     1       1.766   5.552  17.995  0.00  0.00    +0.000 C 
BRANCH  17  18
ATOM     18  C   UNL     1       2.666   6.771  18.199  0.00  0.00    +0.000 C 
BRANCH  18  19
ATOM     19  C   UNL     1       2.012   7.842  19.039  0.00  0.00    +0.000 A 
ATOM     20  C   UNL     1       1.591   9.040  18.448  0.00  0.00    +0.000 A 
ATOM     21  C   UNL     1       0.945  10.016  19.208  0.00  0.00    +0.000 A 
ATOM     22  C   UNL     1       0.721   9.810  20.566  0.00  0.00    +0.000 A 
ATOM     23  C   UNL     1       1.156   8.632  21.170  0.00  0.00    +0.000 A 
ATOM     24  C   UNL     1       1.803   7.652  20.412  0.00  0.00    +0.000 A 
ENDBRANCH  18  19
ENDBRANCH  17  18
ENDBRANCH   5  17
TORSDOF 7
ENDMDL
MODEL 8
REMARK VINA RESULT:      -7.7      2.483      5.752
REMARK  Name = 
REMARK  7 active torsions:
REMARK  status: ('A' for Active; 'I' for Inactive)
REMARK    1  A    between atoms: C_2  and  O_3
REMARK    2  A    between atoms: C_2  and  C_4
REMARK    3  A    between atoms: C_9  and  C_10
REMARK    4  A    between atoms: C_10  and  N_11
REMARK    5  A    between atoms: C_15  and  C_16
REMARK    6  A    between atoms: C_16  and  C_17
REMARK    7  A    between atoms: C_17  and  C_18
REMARK                            x       y       z     vdW  Elec       q    Type
REMARK                         _______ _______ _______ _____ _____    ______ ____
ROOT
ATOM      1  N   UNL     1       2.911   6.028  18.936  0.00  0.00    +0.000 NA
ATOM      2  C   UNL     1       2.483   7.208  18.150  0.00  0.00    +0.000 C 
ATOM      3  C   UNL     1       2.235   8.326  19.135  0.00  0.00    +0.000 C 
ATOM      4  C   UNL     1       1.644   7.603  20.324  0.00  0.00    +0.000 C 
ATOM      5  C   UNL     1       2.259   6.197  20.284  0.00  0.00    +0.000 C 
ENDROOT
BRANCH   1   6
ATOM      6  C   UNL     1       4.387   5.993  19.149  0.00  0.00    +0.000 C 
BRANCH   6  12
ATOM      7  C   UNL     1       6.631   5.230  18.117  0.00  0.00    +0.000 A 
ATOM      8  C   UNL     1       7.265   4.717  16.971  0.00  0.00    +0.000 A 
ATOM      9  C   UNL     1       6.520   4.178  15.927  0.00  0.00    +0.000 A 
ATOM     10  C   UNL     1       5.150   4.155  16.065  0.00  0.00    +0.000 A 
ATOM     11  N   UNL     1       4.499   4.667  17.134  0.00  0.00    +0.000 NA
ATOM     12  C   UNL     1       5.233   5.232  18.144  0.00  0.00    +0.000 A 
BRANCH   7  14
ATOM     13  O   UNL     1       7.527   5.298  20.303  0.00  0.00    +0.000 OA
ATOM     14  C   UNL     1       7.533   5.753  19.169  0.00  0.00    +0.000 C 
BRANCH  14  15
ATOM     15  O   UNL     1       8.213   6.872  18.856  0.00  0.00    +0.000 OA
ATOM     16  H   UNL     1       9.108   6.727  18.468  0.00  0.00    +0.000 HD
ENDBRANCH  14  15
ENDBRANCH   7  14
ENDBRANCH   6  12
ENDBRANCH   1   6
BRANCH   5  17
ATOM     17  C   UNL     1       1.193   5.127  20.582  0.00  0.00    +0.000 C 
BRANCH  17  18
ATOM     18  C   UNL     1       1.787   3.853  21.184  0.00  0.00    +0.000 C 
BRANCH  18  19
ATOM     19  C   UNL     1       2.460   2.982  20.152  0.00  0.00    +0.000 A 
ATOM     20  C   UNL     1       1.788   2.643  18.970  0.00  0.00    +0.000 A 
ATOM     21  C   UNL     1       2.420   1.876  17.991  0.00  0.00    +0.000 A 
ATOM     22  C   UNL     1       3.725   1.432  18.184  0.00  0.00    +0.000 A 
ATOM     23  C   UNL     1       4.396   1.743  19.365  0.00  0.00    +0.000 A 
ATOM     24  C   UNL     1       3.766   2.511  20.348  0.00  0.00    +0.000 A 
ENDBRANCH  18  19
ENDBRANCH  17  18
ENDBRANCH   5  17
TORSDOF 7
ENDMDL
MODEL 9
REMARK VINA RESULT:      -7.7      3.785      5.778
REMARK  Name = 
REMARK  7 active torsions:
REMARK  status: ('A' for Active; 'I' for Inactive)
REMARK    1  A    between atoms: C_2  and  O_3
REMARK    2  A    between atoms: C_2  and  C_4
REMARK    3  A    between atoms: C_9  and  C_10
REMARK    4  A    between atoms: C_10  and  N_11
REMARK    5  A    between atoms: C_15  and  C_16
REMARK    6  A    between atoms: C_16  and  C_17
REMARK    7  A    between atoms: C_17  and  C_18
REMARK                            x       y       z     vdW  Elec       q    Type
REMARK                         _______ _______ _______ _____ _____    ______ ____
ROOT
ATOM      1  N   UNL     1       2.000   4.891  19.728  0.00  0.00    +0.000 NA
ATOM      2  C   UNL     1       0.871   4.002  20.085  0.00  0.00    +0.000 C 
ATOM      3  C   UNL     1       1.366   3.078  21.173  0.00  0.00    +0.000 C 
ATOM      4  C   UNL     1       2.800   2.821  20.770  0.00  0.00    +0.000 C 
ATOM      5  C   UNL     1       3.241   4.088  20.025  0.00  0.00    +0.000 C 
ENDROOT
BRANCH   1   6
ATOM      6  C   UNL     1       2.045   6.120  20.572  0.00  0.00    +0.000 C 
BRANCH   6  12
ATOM      7  C   UNL     1       1.189   8.548  20.342  0.00  0.00    +0.000 A 
ATOM      8  C   UNL     1       0.960   9.618  19.458  0.00  0.00    +0.000 A 
ATOM      9  C   UNL     1       1.517   9.618  18.182  0.00  0.00    +0.000 A 
ATOM     10  C   UNL     1       2.303   8.544  17.828  0.00  0.00    +0.000 A 
ATOM     11  N   UNL     1       2.519   7.481  18.635  0.00  0.00    +0.000 NA
ATOM     12  C   UNL     1       1.939   7.465  19.876  0.00  0.00    +0.000 A 
BRANCH   7  14
ATOM     13  O   UNL     1      -0.559   8.252  21.905  0.00  0.00    +0.000 OA
ATOM     14  C   UNL     1       0.564   8.677  21.679  0.00  0.00    +0.000 C 
BRANCH  14  15
ATOM     15  O   UNL     1       1.222   9.451  22.563  0.00  0.00    +0.000 OA
ATOM     16  H   UNL     1       2.204   9.372  22.542  0.00  0.00    +0.000 HD
ENDBRANCH  14  15
ENDBRANCH   7  14
ENDBRANCH   6  12
ENDBRANCH   1   6
BRANCH   5  17
ATOM     17  C   UNL     1       4.047   3.727  18.765  0.00  0.00    +0.000 C 
BRANCH  17  18
ATOM     18  C   UNL     1       4.220   4.911  17.814  0.00  0.00    +0.000 C 
BRANCH  18  19
ATOM     19  C   UNL     1       5.547   5.610  17.991  0.00  0.00    +0.000 A 
ATOM     20  C   UNL     1       5.882   6.700  17.178  0.00  0.00    +0.000 A 
ATOM     21  C   UNL     1       7.086   7.380  17.366  0.00  0.00    +0.000 A 
ATOM     22  C   UNL     1       7.971   6.974  18.360  0.00  0.00    +0.000 A 
ATOM     23  C   UNL     1       7.660   5.876  19.160  0.00  0.00    +0.000 A 
ATOM     24  C   UNL     1       6.454   5.193  18.975  0.00  0.00    +0.000 A 
ENDBRANCH  18  19
ENDBRANCH  17  18
ENDBRANCH   5  17
TORSDOF 7
ENDMDL
