MODEL 1
REMARK VINA RESULT:      -7.9      0.000      0.000
REMARK  Name = 
REMARK  4 active torsions:
REMARK  status: ('A' for Active; 'I' for Inactive)
REMARK    1  A    between atoms: C_1  and  C_2
REMARK    2  A    between atoms: C_6  and  N_7
REMARK    3  A    between atoms: C_8  and  C_9
REMARK    4  A    between atoms: N_19  and  C_20
REMARK                            x       y       z     vdW  Elec       q    Type
REMARK                         _______ _______ _______ _____ _____    ______ ____
ROOT
ATOM      1  N   UNL     1       2.839   6.705  18.494  0.00  0.00    +0.000 N 
ATOM      2  C   UNL     1       1.996   6.614  19.633  0.00  0.00    +0.000 A 
ATOM      3  N   UNL     1       1.295   7.613  20.099  0.00  0.00    +0.000 NA
ATOM      4  C   UNL     1       1.446   8.787  19.437  0.00  0.00    +0.000 A 
ATOM      5  C   UNL     1       2.241   8.993  18.343  0.00  0.00    +0.000 A 
ATOM      6  C   UNL     1       2.032  10.317  17.959  0.00  0.00    +0.000 A 
ATOM      7  N   UNL     1       1.175  10.943  18.767  0.00  0.00    +0.000 NA
ATOM      8  N   UNL     1       0.856  10.017  19.727  0.00  0.00    +0.000 N 
ATOM      9  C   UNL     1       3.032   7.924  17.812  0.00  0.00    +0.000 A 
ATOM     10  O   UNL     1       3.761   8.106  16.844  0.00  0.00    +0.000 OA
ENDROOT
BRANCH   1  16
ATOM     11  C   UNL     1       6.999   4.361  17.096  0.00  0.00    +0.000 C 
ATOM     12  C   UNL     1       5.505   4.403  17.230  0.00  0.00    +0.000 A 
ATOM     13  C   UNL     1       4.718   3.336  16.787  0.00  0.00    +0.000 A 
ATOM     14  C   UNL     1       3.330   3.369  16.932  0.00  0.00    +0.000 A 
ATOM     15  C   UNL     1       2.717   4.472  17.522  0.00  0.00    +0.000 A 
ATOM     16  C   UNL     1       3.486   5.560  17.945  0.00  0.00    +0.000 A 
ATOM     17  C   UNL     1       4.883   5.519  17.805  0.00  0.00    +0.000 A 
ENDBRANCH   1  16
BRANCH   8  18
ATOM     18  C   UNL     1       0.032  10.390  20.828  0.00  0.00    +0.000 A 
ATOM     19  C   UNL     1      -0.843  11.484  20.698  0.00  0.00    +0.000 A 
ATOM     20  C   UNL     1      -1.670  11.854  21.760  0.00  0.00    +0.000 A 
ATOM     21  C   UNL     1      -1.606  11.149  22.954  0.00  0.00    +0.000 A 
ATOM     22  F   UNL     1      -2.399  11.501  23.974  0.00  0.00    +0.000 F 
ATOM     23  C   UNL     1      -0.730  10.083  23.110  0.00  0.00    +0.000 A 
ATOM     24  C   UNL     1       0.086   9.698  22.047  0.00  0.00    +0.000 A 
ENDBRANCH   8  18
BRANCH   2  25
ATOM     25  C   UNL     1       1.919   5.377  20.395  0.00  0.00    +0.000 A 
ATOM     26  C   UNL     1       2.796   4.792  21.292  0.00  0.00    +0.000 A 
ATOM     27  C   UNL     1       2.216   3.564  21.696  0.00  0.00    +0.000 A 
ATOM     28  C   UNL     1       1.030   3.458  21.011  0.00  0.00    +0.000 A 
ATOM     29  O   UNL     1       0.856   4.533  20.204  0.00  0.00    +0.000 OA
ENDBRANCH   2  25
TORSDOF 3
ENDMDL
MODEL 2
REMARK VINA RESULT:      -7.6      2.901      7.190
REMARK  Name = 
REMARK  4 active torsions:
REMARK  status: ('A' for Active; 'I' for Inactive)
REMARK    1  A    between atoms: C_1  and  C_2
REMARK    2  A    between atoms: C_6  and  N_7
REMARK    3  A    between atoms: C_8  and  C_9
REMARK    4  A    between atoms: N_19  and  C_20
REMARK                            x       y       z     vdW  Elec       q    Type
REMARK                         _______ _______ _______ _____ _____    ______ ____
ROOT
ATOM      1  N   UNL     1       1.379  10.070  19.341  0.00  0.00    +0.000 N 
ATOM      2  C   UNL     1       1.130   9.166  20.406  0.00  0.00    +0.000 A 
ATOM      3  N   UNL     1       1.537   7.924  20.414  0.00  0.00    +0.000 NA
ATOM      4  C   UNL     1       2.200   7.523  19.302  0.00  0.00    +0.000 A 
ATOM      5  C   UNL     1       2.481   8.302  18.212  0.00  0.00    +0.000 A 
ATOM      6  C   UNL     1       3.232   7.503  17.351  0.00  0.00    +0.000 A 
ATOM      7  N   UNL     1       3.408   6.272  17.836  0.00  0.00    +0.000 NA
ATOM      8  N   UNL     1       2.714   6.258  19.019  0.00  0.00    +0.000 N 
ATOM      9  C   UNL     1       2.041   9.663  18.164  0.00  0.00    +0.000 A 
ATOM     10  O   UNL     1       2.271  10.361  17.183  0.00  0.00    +0.000 OA
ENDROOT
BRANCH   1  16
ATOM     11  C   UNL     1       2.237  14.629  21.141  0.00  0.00    +0.000 C 
ATOM     12  C   UNL     1       1.415  13.683  20.316  0.00  0.00    +0.000 A 
ATOM     13  C   UNL     1       0.270  14.129  19.647  0.00  0.00    +0.000 A 
ATOM     14  C   UNL     1      -0.482  13.252  18.864  0.00  0.00    +0.000 A 
ATOM     15  C   UNL     1      -0.095  11.919  18.744  0.00  0.00    +0.000 A 
ATOM     16  C   UNL     1       1.030  11.449  19.429  0.00  0.00    +0.000 A 
ATOM     17  C   UNL     1       1.788  12.337  20.209  0.00  0.00    +0.000 A 
ENDBRANCH   1  16
BRANCH   8  18
ATOM     18  C   UNL     1       2.599   5.046  19.760  0.00  0.00    +0.000 A 
ATOM     19  C   UNL     1       3.667   4.131  19.759  0.00  0.00    +0.000 A 
ATOM     20  C   UNL     1       3.580   2.946  20.493  0.00  0.00    +0.000 A 
ATOM     21  C   UNL     1       2.421   2.667  21.204  0.00  0.00    +0.000 A 
ATOM     22  F   UNL     1       2.334   1.532  21.909  0.00  0.00    +0.000 F 
ATOM     23  C   UNL     1       1.346   3.546  21.195  0.00  0.00    +0.000 A 
ATOM     24  C   UNL     1       1.435   4.738  20.479  0.00  0.00    +0.000 A 
ENDBRANCH   8  18
BRANCH   2  25
ATOM     25  C   UNL     1       0.331   9.577  21.551  0.00  0.00    +0.000 A 
ATOM     26  C   UNL     1      -0.804  10.363  21.646  0.00  0.00    +0.000 A 
ATOM     27  C   UNL     1      -1.125  10.460  23.023  0.00  0.00    +0.000 A 
ATOM     28  C   UNL     1      -0.160   9.747  23.690  0.00  0.00    +0.000 A 
ATOM     29  O   UNL     1       0.737   9.234  22.814  0.00  0.00    +0.000 OA
ENDBRANCH   2  25
TORSDOF 3
ENDMDL
MODEL 3
REMARK VINA RESULT:      -7.5      4.841      9.379
REMARK  Name = 
REMARK  4 active torsions:
REMARK  status: ('A' for Active; 'I' for Inactive)
REMARK    1  A    between atoms: C_1  and  C_2
REMARK    2  A    between atoms: C_6  and  N_7
REMARK    3  A    between atoms: C_8  and  C_9
REMARK    4  A    between atoms: N_19  and  C_20
REMARK                            x       y       z     vdW  Elec       q    Type
REMARK                         _______ _______ _______ _____ _____    ______ ____
ROOT
ATOM      1  N   UNL     1       0.683  14.380  19.419  0.00  0.00    +0.000 N 
ATOM      2  C   UNL     1       1.822  13.606  19.073  0.00  0.00    +0.000 A 
ATOM      3  N   UNL     1       1.814  12.302  18.985  0.00  0.00    +0.000 NA
ATOM      4  C   UNL     1       0.634  11.707  19.284  0.00  0.00    +0.000 A 
ATOM      5  C   UNL     1      -0.519  12.350  19.645  0.00  0.00    +0.000 A 
ATOM      6  C   UNL     1      -1.487  11.356  19.787  0.00  0.00    +0.000 A 
ATOM      7  N   UNL     1      -0.991  10.139  19.558  0.00  0.00    +0.000 NA
ATOM      8  N   UNL     1       0.342  10.343  19.309  0.00  0.00    +0.000 N 
ATOM      9  C   UNL     1      -0.545  13.777  19.763  0.00  0.00    +0.000 A 
ATOM     10  O   UNL     1      -1.568  14.358  20.105  0.00  0.00    +0.000 OA
ENDROOT
BRANCH   1  16
ATOM     11  C   UNL     1       0.033  18.631  16.916  0.00  0.00    +0.000 C 
ATOM     12  C   UNL     1       0.414  17.896  18.168  0.00  0.00    +0.000 A 
ATOM     13  C   UNL     1       0.828  18.594  19.307  0.00  0.00    +0.000 A 
ATOM     14  C   UNL     1       1.163  17.910  20.476  0.00  0.00    +0.000 A 
ATOM     15  C   UNL     1       1.086  16.520  20.517  0.00  0.00    +0.000 A 
ATOM     16  C   UNL     1       0.702  15.804  19.379  0.00  0.00    +0.000 A 
ATOM     17  C   UNL     1       0.359  16.497  18.207  0.00  0.00    +0.000 A 
ENDBRANCH   1  16
BRANCH   8  18
ATOM     18  C   UNL     1       1.210   9.228  19.128  0.00  0.00    +0.000 A 
ATOM     19  C   UNL     1       1.843   9.039  17.885  0.00  0.00    +0.000 A 
ATOM     20  C   UNL     1       2.710   7.961  17.694  0.00  0.00    +0.000 A 
ATOM     21  C   UNL     1       2.926   7.065  18.731  0.00  0.00    +0.000 A 
ATOM     22  F   UNL     1       3.759   6.032  18.551  0.00  0.00    +0.000 F 
ATOM     23  C   UNL     1       2.291   7.221  19.956  0.00  0.00    +0.000 A 
ATOM     24  C   UNL     1       1.438   8.304  20.159  0.00  0.00    +0.000 A 
ENDBRANCH   8  18
BRANCH   2  25
ATOM     25  C   UNL     1       3.109  14.247  18.851  0.00  0.00    +0.000 A 
ATOM     26  C   UNL     1       3.740  14.669  17.694  0.00  0.00    +0.000 A 
ATOM     27  C   UNL     1       5.002  15.188  18.077  0.00  0.00    +0.000 A 
ATOM     28  C   UNL     1       5.078  15.037  19.440  0.00  0.00    +0.000 A 
ATOM     29  O   UNL     1       3.954  14.446  19.912  0.00  0.00    +0.000 OA
ENDBRANCH   2  25
TORSDOF 3
ENDMDL
MODEL 4
REMARK VINA RESULT:      -7.5      4.851      9.341
REMARK  Name = 
REMARK  4 active torsions:
REMARK  status: ('A' for Active; 'I' for Inactive)
REMARK    1  A    between atoms: C_1  and  C_2
REMARK    2  A    between atoms: C_6  and  N_7
REMARK    3  A    between atoms: C_8  and  C_9
REMARK    4  A    between atoms: N_19  and  C_20
REMARK                            x       y       z     vdW  Elec       q    Type
REMARK                         _______ _______ _______ _____ _____    ______ ____
ROOT
ATOM      1  N   UNL     1       0.760  14.422  19.412  0.00  0.00    +0.000 N 
ATOM      2  C   UNL     1       1.894  13.606  19.161  0.00  0.00    +0.000 A 
ATOM      3  N   UNL     1       1.850  12.302  19.093  0.00  0.00    +0.000 NA
ATOM      4  C   UNL     1       0.632  11.750  19.317  0.00  0.00    +0.000 A 
ATOM      5  C   UNL     1      -0.521  12.436  19.584  0.00  0.00    +0.000 A 
ATOM      6  C   UNL     1      -1.529  11.476  19.672  0.00  0.00    +0.000 A 
ATOM      7  N   UNL     1      -1.058  10.240  19.499  0.00  0.00    +0.000 NA
ATOM      8  N   UNL     1       0.295  10.397  19.342  0.00  0.00    +0.000 N 
ATOM      9  C   UNL     1      -0.508  13.865  19.677  0.00  0.00    +0.000 A 
ATOM     10  O   UNL     1      -1.533  14.485  19.936  0.00  0.00    +0.000 OA
ENDROOT
BRANCH   1  16
ATOM     11  C   UNL     1       0.693  18.631  16.759  0.00  0.00    +0.000 C 
ATOM     12  C   UNL     1       0.824  17.915  18.072  0.00  0.00    +0.000 A 
ATOM     13  C   UNL     1       1.050  18.627  19.254  0.00  0.00    +0.000 A 
ATOM     14  C   UNL     1       1.151  17.962  20.476  0.00  0.00    +0.000 A 
ATOM     15  C   UNL     1       1.027  16.575  20.526  0.00  0.00    +0.000 A 
ATOM     16  C   UNL     1       0.829  15.844  19.351  0.00  0.00    +0.000 A 
ATOM     17  C   UNL     1       0.720  16.519  18.124  0.00  0.00    +0.000 A 
ENDBRANCH   1  16
BRANCH   8  18
ATOM     18  C   UNL     1       1.136   9.252  19.241  0.00  0.00    +0.000 A 
ATOM     19  C   UNL     1       1.300   8.414  20.360  0.00  0.00    +0.000 A 
ATOM     20  C   UNL     1       2.107   7.277  20.275  0.00  0.00    +0.000 A 
ATOM     21  C   UNL     1       2.765   6.993  19.087  0.00  0.00    +0.000 A 
ATOM     22  F   UNL     1       3.539   5.903  19.003  0.00  0.00    +0.000 F 
ATOM     23  C   UNL     1       2.637   7.823  17.981  0.00  0.00    +0.000 A 
ATOM     24  C   UNL     1       1.819   8.949  18.054  0.00  0.00    +0.000 A 
ENDBRANCH   8  18
BRANCH   2  25
ATOM     25  C   UNL     1       3.214  14.202  19.022  0.00  0.00    +0.000 A 
ATOM     26  C   UNL     1       4.130  14.641  19.963  0.00  0.00    +0.000 A 
ATOM     27  C   UNL     1       5.233  15.172  19.249  0.00  0.00    +0.000 A 
ATOM     28  C   UNL     1       4.923  15.046  17.918  0.00  0.00    +0.000 A 
ATOM     29  O   UNL     1       3.696  14.488  17.771  0.00  0.00    +0.000 OA
ENDBRANCH   2  25
TORSDOF 3
ENDMDL
MODEL 5
REMARK VINA RESULT:      -7.3      5.259      8.619
REMARK  Name = 
REMARK  4 active torsions:
REMARK  status: ('A' for Active; 'I' for Inactive)
REMARK    1  A    between atoms: C_1  and  C_2
REMARK    2  A    between atoms: C_6  and  N_7
REMARK    3  A    between atoms: C_8  and  C_9
REMARK    4  A    between atoms: N_19  and  C_20
REMARK                            x       y       z     vdW  Elec       q    Type
REMARK                         _______ _______ _______ _____ _____    ______ ____
ROOT
ATOM      1  N   UNL     1       0.363  13.546  18.875  0.00  0.00    +0.000 N 
ATOM      2  C   UNL     1       1.550  12.779  19.010  0.00  0.00    +0.000 A 
ATOM      3  N   UNL     1       2.748  13.298  19.060  0.00  0.00    +0.000 NA
ATOM      4  C   UNL     1       2.802  14.648  18.938  0.00  0.00    +0.000 A 
ATOM      5  C   UNL     1       1.727  15.482  18.787  0.00  0.00    +0.000 A 
ATOM      6  C   UNL     1       2.244  16.777  18.775  0.00  0.00    +0.000 A 
ATOM      7  N   UNL     1       3.573  16.786  18.884  0.00  0.00    +0.000 NA
ATOM      8  N   UNL     1       3.933  15.463  18.921  0.00  0.00    +0.000 N 
ATOM      9  C   UNL     1       0.401  14.947  18.717  0.00  0.00    +0.000 A 
ATOM     10  O   UNL     1      -0.564  15.686  18.562  0.00  0.00    +0.000 OA
ENDROOT
BRANCH   1  16
ATOM     11  C   UNL     1      -3.289  10.882  16.796  0.00  0.00    +0.000 C 
ATOM     12  C   UNL     1      -2.740  11.671  17.948  0.00  0.00    +0.000 A 
ATOM     13  C   UNL     1      -3.499  11.866  19.107  0.00  0.00    +0.000 A 
ATOM     14  C   UNL     1      -2.979  12.582  20.185  0.00  0.00    +0.000 A 
ATOM     15  C   UNL     1      -1.692  13.111  20.114  0.00  0.00    +0.000 A 
ATOM     16  C   UNL     1      -0.929  12.951  18.953  0.00  0.00    +0.000 A 
ATOM     17  C   UNL     1      -1.454  12.222  17.874  0.00  0.00    +0.000 A 
ENDBRANCH   1  16
BRANCH   8  18
ATOM     18  C   UNL     1       5.311  15.101  18.927  0.00  0.00    +0.000 A 
ATOM     19  C   UNL     1       6.047  15.201  20.122  0.00  0.00    +0.000 A 
ATOM     20  C   UNL     1       7.394  14.835  20.151  0.00  0.00    +0.000 A 
ATOM     21  C   UNL     1       8.008  14.394  18.987  0.00  0.00    +0.000 A 
ATOM     22  F   UNL     1       9.299  14.040  19.013  0.00  0.00    +0.000 F 
ATOM     23  C   UNL     1       7.305  14.314  17.793  0.00  0.00    +0.000 A 
ATOM     24  C   UNL     1       5.955  14.661  17.761  0.00  0.00    +0.000 A 
ENDBRANCH   8  18
BRANCH   2  25
ATOM     25  C   UNL     1       1.489  11.326  19.039  0.00  0.00    +0.000 A 
ATOM     26  C   UNL     1       1.777  10.373  18.076  0.00  0.00    +0.000 A 
ATOM     27  C   UNL     1       1.495   9.108  18.650  0.00  0.00    +0.000 A 
ATOM     28  C   UNL     1       1.034   9.359  19.919  0.00  0.00    +0.000 A 
ATOM     29  O   UNL     1       1.001  10.694  20.153  0.00  0.00    +0.000 OA
ENDBRANCH   2  25
TORSDOF 3
ENDMDL
MODEL 6
REMARK VINA RESULT:      -7.2      5.234      8.749
REMARK  Name = 
REMARK  4 active torsions:
REMARK  status: ('A' for Active; 'I' for Inactive)
REMARK    1  A    between atoms: C_1  and  C_2
REMARK    2  A    between atoms: C_6  and  N_7
REMARK    3  A    between atoms: C_8  and  C_9
REMARK    4  A    between atoms: N_19  and  C_20
REMARK                            x       y       z     vdW  Elec       q    Type
REMARK                         _______ _______ _______ _____ _____    ______ ____
ROOT
ATOM      1  N   UNL     1       0.367  13.637  18.917  0.00  0.00    +0.000 N 
ATOM      2  C   UNL     1       1.540  12.853  19.077  0.00  0.00    +0.000 A 
ATOM      3  N   UNL     1       2.747  13.352  19.117  0.00  0.00    +0.000 NA
ATOM      4  C   UNL     1       2.825  14.697  18.959  0.00  0.00    +0.000 A 
ATOM      5  C   UNL     1       1.766  15.545  18.782  0.00  0.00    +0.000 A 
ATOM      6  C   UNL     1       2.305  16.830  18.735  0.00  0.00    +0.000 A 
ATOM      7  N   UNL     1       3.634  16.819  18.850  0.00  0.00    +0.000 NA
ATOM      8  N   UNL     1       3.970  15.491  18.924  0.00  0.00    +0.000 N 
ATOM      9  C   UNL     1       0.430  15.032  18.721  0.00  0.00    +0.000 A 
ATOM     10  O   UNL     1      -0.521  15.784  18.542  0.00  0.00    +0.000 OA
ENDROOT
BRANCH   1  16
ATOM     11  C   UNL     1      -3.811  12.816  21.491  0.00  0.00    +0.000 C 
ATOM     12  C   UNL     1      -2.980  12.631  20.256  0.00  0.00    +0.000 A 
ATOM     13  C   UNL     1      -3.453  11.867  19.184  0.00  0.00    +0.000 A 
ATOM     14  C   UNL     1      -2.686  11.713  18.028  0.00  0.00    +0.000 A 
ATOM     15  C   UNL     1      -1.437  12.323  17.934  0.00  0.00    +0.000 A 
ATOM     16  C   UNL     1      -0.936  13.067  19.007  0.00  0.00    +0.000 A 
ATOM     17  C   UNL     1      -1.714  13.225  20.165  0.00  0.00    +0.000 A 
ENDBRANCH   1  16
BRANCH   8  18
ATOM     18  C   UNL     1       5.341  15.105  18.944  0.00  0.00    +0.000 A 
ATOM     19  C   UNL     1       5.944  14.632  17.764  0.00  0.00    +0.000 A 
ATOM     20  C   UNL     1       7.292  14.266  17.760  0.00  0.00    +0.000 A 
ATOM     21  C   UNL     1       8.026  14.349  18.935  0.00  0.00    +0.000 A 
ATOM     22  F   UNL     1       9.318  13.999  18.934  0.00  0.00    +0.000 F 
ATOM     23  C   UNL     1       7.442  14.788  20.115  0.00  0.00    +0.000 A 
ATOM     24  C   UNL     1       6.102  15.172  20.121  0.00  0.00    +0.000 A 
ENDBRANCH   8  18
BRANCH   2  25
ATOM     25  C   UNL     1       1.453  11.402  19.146  0.00  0.00    +0.000 A 
ATOM     26  C   UNL     1       1.683  10.421  18.197  0.00  0.00    +0.000 A 
ATOM     27  C   UNL     1       1.401   9.176  18.814  0.00  0.00    +0.000 A 
ATOM     28  C   UNL     1       0.997   9.468  20.094  0.00  0.00    +0.000 A 
ATOM     29  O   UNL     1       0.999  10.808  20.294  0.00  0.00    +0.000 OA
ENDBRANCH   2  25
TORSDOF 3
ENDMDL
MODEL 7
REMARK VINA RESULT:      -7.1      5.765     11.102
REMARK  Name = 
REMARK  4 active torsions:
REMARK  status: ('A' for Active; 'I' for Inactive)
REMARK    1  A    between atoms: C_1  and  C_2
REMARK    2  A    between atoms: C_6  and  N_7
REMARK    3  A    between atoms: C_8  and  C_9
REMARK    4  A    between atoms: N_19  and  C_20
REMARK                            x       y       z     vdW  Elec       q    Type
REMARK                         _______ _______ _______ _____ _____    ______ ____
ROOT
ATOM      1  N   UNL     1      -4.429  14.658  22.019  0.00  0.00    +0.000 N 
ATOM      2  C   UNL     1      -4.458  13.254  21.813  0.00  0.00    +0.000 A 
ATOM      3  N   UNL     1      -3.400  12.488  21.875  0.00  0.00    +0.000 NA
ATOM      4  C   UNL     1      -2.232  13.131  22.120  0.00  0.00    +0.000 A 
ATOM      5  C   UNL     1      -2.084  14.477  22.317  0.00  0.00    +0.000 A 
ATOM      6  C   UNL     1      -0.734  14.679  22.602  0.00  0.00    +0.000 A 
ATOM      7  N   UNL     1      -0.040  13.540  22.568  0.00  0.00    +0.000 NA
ATOM      8  N   UNL     1      -0.953  12.583  22.204  0.00  0.00    +0.000 N 
ATOM      9  C   UNL     1      -3.219  15.348  22.245  0.00  0.00    +0.000 A 
ATOM     10  O   UNL     1      -3.091  16.557  22.401  0.00  0.00    +0.000 OA
ENDROOT
BRANCH   1  16
ATOM     11  C   UNL     1      -7.861  17.440  19.732  0.00  0.00    +0.000 C 
ATOM     12  C   UNL     1      -7.300  16.820  20.977  0.00  0.00    +0.000 A 
ATOM     13  C   UNL     1      -7.917  17.021  22.216  0.00  0.00    +0.000 A 
ATOM     14  C   UNL     1      -7.405  16.427  23.370  0.00  0.00    +0.000 A 
ATOM     15  C   UNL     1      -6.269  15.625  23.295  0.00  0.00    +0.000 A 
ATOM     16  C   UNL     1      -5.622  15.435  22.070  0.00  0.00    +0.000 A 
ATOM     17  C   UNL     1      -6.145  16.029  20.910  0.00  0.00    +0.000 A 
ENDBRANCH   1  16
BRANCH   8  18
ATOM     18  C   UNL     1      -0.522  11.246  21.964  0.00  0.00    +0.000 A 
ATOM     19  C   UNL     1       0.048  10.916  20.721  0.00  0.00    +0.000 A 
ATOM     20  C   UNL     1       0.492   9.615  20.473  0.00  0.00    +0.000 A 
ATOM     21  C   UNL     1       0.344   8.645  21.454  0.00  0.00    +0.000 A 
ATOM     22  F   UNL     1       0.769   7.397  21.220  0.00  0.00    +0.000 F 
ATOM     23  C   UNL     1      -0.240   8.945  22.677  0.00  0.00    +0.000 A 
ATOM     24  C   UNL     1      -0.669  10.245  22.937  0.00  0.00    +0.000 A 
ENDBRANCH   8  18
BRANCH   2  25
ATOM     25  C   UNL     1      -5.700  12.588  21.452  0.00  0.00    +0.000 A 
ATOM     26  C   UNL     1      -6.239  12.248  20.223  0.00  0.00    +0.000 A 
ATOM     27  C   UNL     1      -7.499  11.651  20.475  0.00  0.00    +0.000 A 
ATOM     28  C   UNL     1      -7.668  11.677  21.837  0.00  0.00    +0.000 A 
ATOM     29  O   UNL     1      -6.602  12.265  22.432  0.00  0.00    +0.000 OA
ENDBRANCH   2  25
TORSDOF 3
ENDMDL
MODEL 8
REMARK VINA RESULT:      -7.1      4.844      9.401
REMARK  Name = 
REMARK  4 active torsions:
REMARK  status: ('A' for Active; 'I' for Inactive)
REMARK    1  A    between atoms: C_1  and  C_2
REMARK    2  A    between atoms: C_6  and  N_7
REMARK    3  A    between atoms: C_8  and  C_9
REMARK    4  A    between atoms: N_19  and  C_20
REMARK                            x       y       z     vdW  Elec       q    Type
REMARK                         _______ _______ _______ _____ _____    ______ ____
ROOT
ATOM      1  N   UNL     1       0.846  14.416  19.619  0.00  0.00    +0.000 N 
ATOM      2  C   UNL     1       1.979  13.622  19.304  0.00  0.00    +0.000 A 
ATOM      3  N   UNL     1       1.936  12.327  19.138  0.00  0.00    +0.000 NA
ATOM      4  C   UNL     1       0.718  11.759  19.320  0.00  0.00    +0.000 A 
ATOM      5  C   UNL     1      -0.435  12.422  19.640  0.00  0.00    +0.000 A 
ATOM      6  C   UNL     1      -1.443  11.458  19.656  0.00  0.00    +0.000 A 
ATOM      7  N   UNL     1      -0.972  10.238  19.389  0.00  0.00    +0.000 NA
ATOM      8  N   UNL     1       0.381  10.408  19.243  0.00  0.00    +0.000 N 
ATOM      9  C   UNL     1      -0.423  13.840  19.842  0.00  0.00    +0.000 A 
ATOM     10  O   UNL     1      -1.448  14.438  20.148  0.00  0.00    +0.000 OA
ENDROOT
BRANCH   1  16
ATOM     11  C   UNL     1       1.520  18.617  22.199  0.00  0.00    +0.000 C 
ATOM     12  C   UNL     1       1.215  17.908  20.912  0.00  0.00    +0.000 A 
ATOM     13  C   UNL     1       0.959  18.631  19.742  0.00  0.00    +0.000 A 
ATOM     14  C   UNL     1       0.696  17.970  18.542  0.00  0.00    +0.000 A 
ATOM     15  C   UNL     1       0.687  16.577  18.500  0.00  0.00    +0.000 A 
ATOM     16  C   UNL     1       0.914  15.839  19.666  0.00  0.00    +0.000 A 
ATOM     17  C   UNL     1       1.186  16.508  20.870  0.00  0.00    +0.000 A 
ENDBRANCH   1  16
BRANCH   8  18
ATOM     18  C   UNL     1       1.223   9.274  19.054  0.00  0.00    +0.000 A 
ATOM     19  C   UNL     1       1.406   8.365  20.113  0.00  0.00    +0.000 A 
ATOM     20  C   UNL     1       2.213   7.238  19.942  0.00  0.00    +0.000 A 
ATOM     21  C   UNL     1       2.853   7.035  18.727  0.00  0.00    +0.000 A 
ATOM     22  F   UNL     1       3.627   5.955  18.560  0.00  0.00    +0.000 F 
ATOM     23  C   UNL     1       2.705   7.934  17.680  0.00  0.00    +0.000 A 
ATOM     24  C   UNL     1       1.887   9.050  17.839  0.00  0.00    +0.000 A 
ENDBRANCH   8  18
BRANCH   2  25
ATOM     25  C   UNL     1       3.299  14.227  19.210  0.00  0.00    +0.000 A 
ATOM     26  C   UNL     1       4.073  14.582  18.118  0.00  0.00    +0.000 A 
ATOM     27  C   UNL     1       5.293  15.094  18.625  0.00  0.00    +0.000 A 
ATOM     28  C   UNL     1       5.204  15.006  19.993  0.00  0.00    +0.000 A 
ATOM     29  O   UNL     1       4.018  14.460  20.353  0.00  0.00    +0.000 OA
ENDBRANCH   2  25
TORSDOF 3
ENDMDL
MODEL 9
REMARK VINA RESULT:      -7.1      7.223     10.951
REMARK  Name = 
REMARK  4 active torsions:
REMARK  status: ('A' for Active; 'I' for Inactive)
REMARK    1  A    between atoms: C_1  and  C_2
REMARK    2  A    between atoms: C_6  and  N_7
REMARK    3  A    between atoms: C_8  and  C_9
REMARK    4  A    between atoms: N_19  and  C_20
REMARK                            x       y       z     vdW  Elec       q    Type
REMARK                         _______ _______ _______ _____ _____    ______ ____
ROOT
ATOM      1  N   UNL     1      -4.097  13.645  22.011  0.00  0.00    +0.000 N 
ATOM      2  C   UNL     1      -3.125  13.522  20.985  0.00  0.00    +0.000 A 
ATOM      3  N   UNL     1      -3.313  12.843  19.884  0.00  0.00    +0.000 NA
ATOM      4  C   UNL     1      -4.511  12.215  19.787  0.00  0.00    +0.000 A 
ATOM      5  C   UNL     1      -5.512  12.250  20.719  0.00  0.00    +0.000 A 
ATOM      6  C   UNL     1      -6.573  11.529  20.172  0.00  0.00    +0.000 A 
ATOM      7  N   UNL     1      -6.274  11.032  18.971  0.00  0.00    +0.000 NA
ATOM      8  N   UNL     1      -4.970  11.400  18.752  0.00  0.00    +0.000 N 
ATOM      9  C   UNL     1      -5.336  12.974  21.942  0.00  0.00    +0.000 A 
ATOM     10  O   UNL     1      -6.221  12.994  22.790  0.00  0.00    +0.000 OA
ENDROOT
BRANCH   1  16
ATOM     11  C   UNL     1      -4.623  18.082  24.201  0.00  0.00    +0.000 C 
ATOM     12  C   UNL     1      -4.123  16.667  24.218  0.00  0.00    +0.000 A 
ATOM     13  C   UNL     1      -3.423  16.170  25.323  0.00  0.00    +0.000 A 
ATOM     14  C   UNL     1      -2.977  14.848  25.345  0.00  0.00    +0.000 A 
ATOM     15  C   UNL     1      -3.227  14.010  24.260  0.00  0.00    +0.000 A 
ATOM     16  C   UNL     1      -3.899  14.498  23.136  0.00  0.00    +0.000 A 
ATOM     17  C   UNL     1      -4.354  15.826  23.121  0.00  0.00    +0.000 A 
ENDBRANCH   1  16
BRANCH   8  18
ATOM     18  C   UNL     1      -4.286  10.936  17.592  0.00  0.00    +0.000 A 
ATOM     19  C   UNL     1      -4.584  11.505  16.340  0.00  0.00    +0.000 A 
ATOM     20  C   UNL     1      -3.911  11.076  15.194  0.00  0.00    +0.000 A 
ATOM     21  C   UNL     1      -2.964  10.067  15.296  0.00  0.00    +0.000 A 
ATOM     22  F   UNL     1      -2.317   9.654  14.199  0.00  0.00    +0.000 F 
ATOM     23  C   UNL     1      -2.676   9.475  16.518  0.00  0.00    +0.000 A 
ATOM     24  C   UNL     1      -3.331   9.911  17.668  0.00  0.00    +0.000 A 
ENDBRANCH   8  18
BRANCH   2  25
ATOM     25  C   UNL     1      -1.806  14.116  21.144  0.00  0.00    +0.000 A 
ATOM     26  C   UNL     1      -1.297  15.343  20.755  0.00  0.00    +0.000 A 
ATOM     27  C   UNL     1       0.067  15.364  21.138  0.00  0.00    +0.000 A 
ATOM     28  C   UNL     1       0.319  14.146  21.719  0.00  0.00    +0.000 A 
ATOM     29  O   UNL     1      -0.797  13.377  21.702  0.00  0.00    +0.000 OA
ENDBRANCH   2  25
TORSDOF 3
ENDMDL
