MODEL 1
REMARK VINA RESULT:      -7.9      0.000      0.000
REMARK  Name = 
REMARK  5 active torsions:
REMARK  status: ('A' for Active; 'I' for Inactive)
REMARK    1  A    between atoms: C_1  and  C_2
REMARK    2  A    between atoms: C_5  and  N_6
REMARK    3  A    between atoms: N_9  and  C_10
REMARK    4  A    between atoms: N_14  and  S_15
REMARK    5  A    between atoms: S_15  and  C_18
REMARK                            x       y       z     vdW  Elec       q    Type
REMARK                         _______ _______ _______ _____ _____    ______ ____
ROOT
ATOM      1  C   UNL     1       2.117   4.642  19.941  0.00  0.00    +0.000 C 
ATOM      2  C   UNL     1       1.910   3.632  21.063  0.00  0.00    +0.000 C 
ATOM      3  C   UNL     1       1.802   2.327  20.299  0.00  0.00    +0.000 C 
ATOM      4  C   UNL     1       2.696   2.510  19.073  0.00  0.00    +0.000 C 
ATOM      5  N   UNL     1       3.085   3.962  19.037  0.00  0.00    +0.000 NA
ENDROOT
BRANCH   1   9
ATOM      6  N   UNL     1       1.875   8.107  21.008  0.00  0.00    +0.000 N 
ATOM      7  C   UNL     1       1.417   6.868  20.613  0.00  0.00    +0.000 C 
ATOM      8  O   UNL     1       0.244   6.532  20.501  0.00  0.00    +0.000 OA
ATOM      9  N   UNL     1       2.441   5.969  20.381  0.00  0.00    +0.000 N 
ATOM     10  H   UNL     1       2.875   8.240  21.001  0.00  0.00    +0.000 HD
ATOM     11  H   UNL     1       3.362   6.318  20.153  0.00  0.00    +0.000 HD
BRANCH   6  16
ATOM     12  C   UNL     1      -1.711  12.110  23.035  0.00  0.00    +0.000 C 
ATOM     13  C   UNL     1      -0.682  11.132  22.550  0.00  0.00    +0.000 A 
ATOM     14  C   UNL     1      -0.022  11.333  21.335  0.00  0.00    +0.000 A 
ATOM     15  C   UNL     1       0.861  10.368  20.832  0.00  0.00    +0.000 A 
ATOM     16  C   UNL     1       1.098   9.177  21.523  0.00  0.00    +0.000 A 
ATOM     17  C   UNL     1       0.483   9.006  22.770  0.00  0.00    +0.000 A 
ATOM     18  C   UNL     1      -0.399   9.972  23.278  0.00  0.00    +0.000 A 
ENDBRANCH   6  16
ENDBRANCH   1   9
BRANCH   5  19
ATOM     19  S   UNL     1       4.743   4.249  19.271  0.00  0.00    +0.000 S 
ATOM     20  O   UNL     1       4.890   5.580  19.826  0.00  0.00    +0.000 OA
ATOM     21  O   UNL     1       5.318   3.097  19.927  0.00  0.00    +0.000 OA
BRANCH  19  22
ATOM     22  C   UNL     1       5.386   4.321  17.605  0.00  0.00    +0.000 A 
ATOM     23  C   UNL     1       4.492   4.238  16.530  0.00  0.00    +0.000 A 
ATOM     24  C   UNL     1       4.974   4.308  15.218  0.00  0.00    +0.000 A 
ATOM     25  C   UNL     1       6.341   4.472  14.987  0.00  0.00    +0.000 A 
ATOM     26 CL   UNL     1       6.934   4.542  13.372  0.00  0.00    +0.000 Cl
ATOM     27  C   UNL     1       7.231   4.579  16.058  0.00  0.00    +0.000 A 
ATOM     28  C   UNL     1       6.755   4.503  17.373  0.00  0.00    +0.000 A 
ENDBRANCH  19  22
ENDBRANCH   5  19
TORSDOF 4
ENDMDL
MODEL 2
REMARK VINA RESULT:      -7.9      1.074      1.447
REMARK  Name = 
REMARK  5 active torsions:
REMARK  status: ('A' for Active; 'I' for Inactive)
REMARK    1  A    between atoms: C_1  and  C_2
REMARK    2  A    between atoms: C_5  and  N_6
REMARK    3  A    between atoms: N_9  and  C_10
REMARK    4  A    between atoms: N_14  and  S_15
REMARK    5  A    between atoms: S_15  and  C_18
REMARK                            x       y       z     vdW  Elec       q    Type
REMARK                         _______ _______ _______ _____ _____    ______ ____
ROOT
ATOM      1  C   UNL     1       3.040   4.634  19.528  0.00  0.00    +0.000 C 
ATOM      2  C   UNL     1       3.413   3.758  20.718  0.00  0.00    +0.000 C 
ATOM      3  C   UNL     1       3.573   2.396  20.071  0.00  0.00    +0.000 C 
ATOM      4  C   UNL     1       4.079   2.686  18.658  0.00  0.00    +0.000 C 
ATOM      5  N   UNL     1       3.961   4.171  18.455  0.00  0.00    +0.000 NA
ENDROOT
BRANCH   1   9
ATOM      6  N   UNL     1       1.934   7.961  20.484  0.00  0.00    +0.000 N 
ATOM      7  C   UNL     1       1.831   6.601  20.280  0.00  0.00    +0.000 C 
ATOM      8  O   UNL     1       0.848   5.907  20.513  0.00  0.00    +0.000 OA
ATOM      9  N   UNL     1       3.003   6.041  19.808  0.00  0.00    +0.000 N 
ATOM     10  H   UNL     1       2.797   8.395  20.193  0.00  0.00    +0.000 HD
ATOM     11  H   UNL     1       3.668   6.627  19.320  0.00  0.00    +0.000 HD
BRANCH   6  16
ATOM     12  C   UNL     1      -1.515  11.758  23.067  0.00  0.00    +0.000 C 
ATOM     13  C   UNL     1      -0.707  10.686  22.397  0.00  0.00    +0.000 A 
ATOM     14  C   UNL     1      -0.050   9.712  23.151  0.00  0.00    +0.000 A 
ATOM     15  C   UNL     1       0.789   8.774  22.533  0.00  0.00    +0.000 A 
ATOM     16  C   UNL     1       1.000   8.795  21.152  0.00  0.00    +0.000 A 
ATOM     17  C   UNL     1       0.292   9.735  20.392  0.00  0.00    +0.000 A 
ATOM     18  C   UNL     1      -0.552  10.672  21.007  0.00  0.00    +0.000 A 
ENDBRANCH   6  16
ENDBRANCH   1   9
BRANCH   5  19
ATOM     19  S   UNL     1       5.448   4.973  18.269  0.00  0.00    +0.000 S 
ATOM     20  O   UNL     1       5.204   6.397  18.393  0.00  0.00    +0.000 OA
ATOM     21  O   UNL     1       6.433   4.307  19.090  0.00  0.00    +0.000 OA
BRANCH  19  22
ATOM     22  C   UNL     1       5.860   4.679  16.554  0.00  0.00    +0.000 A 
ATOM     23  C   UNL     1       4.876   4.169  15.698  0.00  0.00    +0.000 A 
ATOM     24  C   UNL     1       5.175   3.947  14.350  0.00  0.00    +0.000 A 
ATOM     25  C   UNL     1       6.448   4.244  13.861  0.00  0.00    +0.000 A 
ATOM     26 CL   UNL     1       6.819   3.954  12.205  0.00  0.00    +0.000 Cl
ATOM     27  C   UNL     1       7.425   4.774  14.708  0.00  0.00    +0.000 A 
ATOM     28  C   UNL     1       7.133   4.993  16.060  0.00  0.00    +0.000 A 
ENDBRANCH  19  22
ENDBRANCH   5  19
TORSDOF 4
ENDMDL
MODEL 3
REMARK VINA RESULT:      -7.7      0.859      1.576
REMARK  Name = 
REMARK  5 active torsions:
REMARK  status: ('A' for Active; 'I' for Inactive)
REMARK    1  A    between atoms: C_1  and  C_2
REMARK    2  A    between atoms: C_5  and  N_6
REMARK    3  A    between atoms: N_9  and  C_10
REMARK    4  A    between atoms: N_14  and  S_15
REMARK    5  A    between atoms: S_15  and  C_18
REMARK                            x       y       z     vdW  Elec       q    Type
REMARK                         _______ _______ _______ _____ _____    ______ ____
ROOT
ATOM      1  C   UNL     1       2.803   4.775  19.733  0.00  0.00    +0.000 C 
ATOM      2  C   UNL     1       3.103   3.864  20.918  0.00  0.00    +0.000 C 
ATOM      3  C   UNL     1       3.224   2.507  20.252  0.00  0.00    +0.000 C 
ATOM      4  C   UNL     1       3.783   2.798  18.859  0.00  0.00    +0.000 C 
ATOM      5  N   UNL     1       3.734   4.289  18.678  0.00  0.00    +0.000 NA
ENDROOT
BRANCH   1   9
ATOM      6  N   UNL     1       1.801   8.141  20.667  0.00  0.00    +0.000 N 
ATOM      7  C   UNL     1       1.644   6.791  20.430  0.00  0.00    +0.000 C 
ATOM      8  O   UNL     1       0.611   6.147  20.575  0.00  0.00    +0.000 OA
ATOM      9  N   UNL     1       2.817   6.177  20.036  0.00  0.00    +0.000 N 
ATOM     10  H   UNL     1       2.706   8.533  20.450  0.00  0.00    +0.000 HD
ATOM     11  H   UNL     1       3.547   6.734  19.610  0.00  0.00    +0.000 HD
BRANCH   6  16
ATOM     12  C   UNL     1      -1.629  12.075  23.064  0.00  0.00    +0.000 C 
ATOM     13  C   UNL     1      -0.830  10.973  22.433  0.00  0.00    +0.000 A 
ATOM     14  C   UNL     1      -0.295   9.944  23.210  0.00  0.00    +0.000 A 
ATOM     15  C   UNL     1       0.537   8.973  22.638  0.00  0.00    +0.000 A 
ATOM     16  C   UNL     1       0.864   9.012  21.279  0.00  0.00    +0.000 A 
ATOM     17  C   UNL     1       0.276  10.010  20.490  0.00  0.00    +0.000 A 
ATOM     18  C   UNL     1      -0.561  10.981  21.060  0.00  0.00    +0.000 A 
ENDBRANCH   6  16
ENDBRANCH   1   9
BRANCH   5  19
ATOM     19  S   UNL     1       5.259   5.030  18.549  0.00  0.00    +0.000 S 
ATOM     20  O   UNL     1       5.074   6.458  18.710  0.00  0.00    +0.000 OA
ATOM     21  O   UNL     1       6.193   4.297  19.372  0.00  0.00    +0.000 OA
BRANCH  19  22
ATOM     22  C   UNL     1       5.698   4.765  16.836  0.00  0.00    +0.000 A 
ATOM     23  C   UNL     1       7.010   5.027  16.424  0.00  0.00    +0.000 A 
ATOM     24  C   UNL     1       7.377   4.812  15.091  0.00  0.00    +0.000 A 
ATOM     25  C   UNL     1       6.436   4.326  14.181  0.00  0.00    +0.000 A 
ATOM     26 CL   UNL     1       6.886   4.076  12.538  0.00  0.00    +0.000 Cl
ATOM     27  C   UNL     1       5.133   4.041  14.595  0.00  0.00    +0.000 A 
ATOM     28  C   UNL     1       4.759   4.261  15.927  0.00  0.00    +0.000 A 
ENDBRANCH  19  22
ENDBRANCH   5  19
TORSDOF 4
ENDMDL
MODEL 4
REMARK VINA RESULT:      -7.6      1.502      1.707
REMARK  Name = 
REMARK  5 active torsions:
REMARK  status: ('A' for Active; 'I' for Inactive)
REMARK    1  A    between atoms: C_1  and  C_2
REMARK    2  A    between atoms: C_5  and  N_6
REMARK    3  A    between atoms: N_9  and  C_10
REMARK    4  A    between atoms: N_14  and  S_15
REMARK    5  A    between atoms: S_15  and  C_18
REMARK                            x       y       z     vdW  Elec       q    Type
REMARK                         _______ _______ _______ _____ _____    ______ ____
ROOT
ATOM      1  C   UNL     1       3.071   3.935  19.427  0.00  0.00    +0.000 C 
ATOM      2  C   UNL     1       3.584   2.746  20.231  0.00  0.00    +0.000 C 
ATOM      3  C   UNL     1       3.707   1.673  19.167  0.00  0.00    +0.000 C 
ATOM      4  C   UNL     1       4.058   2.426  17.884  0.00  0.00    +0.000 C 
ATOM      5  N   UNL     1       3.886   3.890  18.183  0.00  0.00    +0.000 NA
ENDROOT
BRANCH   1   9
ATOM      6  N   UNL     1       2.312   7.337  20.456  0.00  0.00    +0.000 N 
ATOM      7  C   UNL     1       2.235   6.201  19.677  0.00  0.00    +0.000 C 
ATOM      8  O   UNL     1       1.527   6.049  18.688  0.00  0.00    +0.000 OA
ATOM      9  N   UNL     1       3.030   5.174  20.149  0.00  0.00    +0.000 N 
ATOM     10  H   UNL     1       2.983   7.321  21.209  0.00  0.00    +0.000 HD
ATOM     11  H   UNL     1       3.828   5.395  20.730  0.00  0.00    +0.000 HD
BRANCH   6  16
ATOM     12  C   UNL     1      -1.499  11.622  20.138  0.00  0.00    +0.000 C 
ATOM     13  C   UNL     1      -0.419  10.586  20.251  0.00  0.00    +0.000 A 
ATOM     14  C   UNL     1       0.444  10.337  19.183  0.00  0.00    +0.000 A 
ATOM     15  C   UNL     1       1.384   9.300  19.249  0.00  0.00    +0.000 A 
ATOM     16  C   UNL     1       1.476   8.481  20.377  0.00  0.00    +0.000 A 
ATOM     17  C   UNL     1       0.650   8.772  21.471  0.00  0.00    +0.000 A 
ATOM     18  C   UNL     1      -0.289   9.813  21.409  0.00  0.00    +0.000 A 
ENDBRANCH   6  16
ENDBRANCH   1   9
BRANCH   5  19
ATOM     19  S   UNL     1       5.327   4.789  18.132  0.00  0.00    +0.000 S 
ATOM     20  O   UNL     1       4.987   6.185  18.326  0.00  0.00    +0.000 OA
ATOM     21  O   UNL     1       6.305   4.133  18.970  0.00  0.00    +0.000 OA
BRANCH  19  22
ATOM     22  C   UNL     1       5.852   4.626  16.431  0.00  0.00    +0.000 A 
ATOM     23  C   UNL     1       4.915   4.234  15.467  0.00  0.00    +0.000 A 
ATOM     24  C   UNL     1       5.303   4.116  14.128  0.00  0.00    +0.000 A 
ATOM     25  C   UNL     1       6.618   4.401  13.757  0.00  0.00    +0.000 A 
ATOM     26 CL   UNL     1       7.097   4.240  12.112  0.00  0.00    +0.000 Cl
ATOM     27  C   UNL     1       7.549   4.815  14.713  0.00  0.00    +0.000 A 
ATOM     28  C   UNL     1       7.167   4.929  16.056  0.00  0.00    +0.000 A 
ENDBRANCH  19  22
ENDBRANCH   5  19
TORSDOF 4
ENDMDL
MODEL 5
REMARK VINA RESULT:      -7.6      5.559      7.650
REMARK  Name = 
REMARK  5 active torsions:
REMARK  status: ('A' for Active; 'I' for Inactive)
REMARK    1  A    between atoms: C_1  and  C_2
REMARK    2  A    between atoms: C_5  and  N_6
REMARK    3  A    between atoms: N_9  and  C_10
REMARK    4  A    between atoms: N_14  and  S_15
REMARK    5  A    between atoms: S_15  and  C_18
REMARK                            x       y       z     vdW  Elec       q    Type
REMARK                         _______ _______ _______ _____ _____    ______ ____
ROOT
ATOM      1  C   UNL     1       7.295   6.312  17.048  0.00  0.00    +0.000 C 
ATOM      2  C   UNL     1       7.388   5.558  15.727  0.00  0.00    +0.000 C 
ATOM      3  C   UNL     1       7.053   4.140  16.147  0.00  0.00    +0.000 C 
ATOM      4  C   UNL     1       6.077   4.293  17.313  0.00  0.00    +0.000 C 
ATOM      5  N   UNL     1       6.072   5.751  17.683  0.00  0.00    +0.000 NA
ENDROOT
BRANCH   1   9
ATOM      6  N   UNL     1       8.056   9.811  17.670  0.00  0.00    +0.000 N 
ATOM      7  C   UNL     1       8.068   8.451  17.899  0.00  0.00    +0.000 C 
ATOM      8  O   UNL     1       8.640   7.878  18.820  0.00  0.00    +0.000 OA
ATOM      9  N   UNL     1       7.386   7.740  16.931  0.00  0.00    +0.000 N 
ATOM     10  H   UNL     1       7.495  10.131  16.895  0.00  0.00    +0.000 HD
ATOM     11  H   UNL     1       6.667   8.205  16.391  0.00  0.00    +0.000 HD
BRANCH   6  16
ATOM     12  C   UNL     1      11.527  13.772  19.960  0.00  0.00    +0.000 C 
ATOM     13  C   UNL     1      10.536  12.771  19.445  0.00  0.00    +0.000 A 
ATOM     14  C   UNL     1      10.398  11.524  20.057  0.00  0.00    +0.000 A 
ATOM     15  C   UNL     1       9.549  10.550  19.513  0.00  0.00    +0.000 A 
ATOM     16  C   UNL     1       8.828  10.794  18.341  0.00  0.00    +0.000 A 
ATOM     17  C   UNL     1       8.921  12.068  17.764  0.00  0.00    +0.000 A 
ATOM     18  C   UNL     1       9.768  13.046  18.309  0.00  0.00    +0.000 A 
ENDBRANCH   6  16
ENDBRANCH   1   9
BRANCH   5  19
ATOM     19  S   UNL     1       4.590   6.538  17.410  0.00  0.00    +0.000 S 
ATOM     20  O   UNL     1       4.621   7.802  18.117  0.00  0.00    +0.000 OA
ATOM     21  O   UNL     1       4.294   6.477  15.996  0.00  0.00    +0.000 OA
BRANCH  19  22
ATOM     22  C   UNL     1       3.413   5.504  18.271  0.00  0.00    +0.000 A 
ATOM     23  C   UNL     1       3.384   5.530  19.670  0.00  0.00    +0.000 A 
ATOM     24  C   UNL     1       2.460   4.740  20.362  0.00  0.00    +0.000 A 
ATOM     25  C   UNL     1       1.563   3.938  19.653  0.00  0.00    +0.000 A 
ATOM     26 CL   UNL     1       0.436   2.955  20.506  0.00  0.00    +0.000 Cl
ATOM     27  C   UNL     1       1.574   3.928  18.257  0.00  0.00    +0.000 A 
ATOM     28  C   UNL     1       2.502   4.713  17.560  0.00  0.00    +0.000 A 
ENDBRANCH  19  22
ENDBRANCH   5  19
TORSDOF 4
ENDMDL
MODEL 6
REMARK VINA RESULT:      -7.5      5.768      7.695
REMARK  Name = 
REMARK  5 active torsions:
REMARK  status: ('A' for Active; 'I' for Inactive)
REMARK    1  A    between atoms: C_1  and  C_2
REMARK    2  A    between atoms: C_5  and  N_6
REMARK    3  A    between atoms: N_9  and  C_10
REMARK    4  A    between atoms: N_14  and  S_15
REMARK    5  A    between atoms: S_15  and  C_18
REMARK                            x       y       z     vdW  Elec       q    Type
REMARK                         _______ _______ _______ _____ _____    ______ ____
ROOT
ATOM      1  C   UNL     1       7.288   6.753  17.827  0.00  0.00    +0.000 C 
ATOM      2  C   UNL     1       7.844   5.757  16.816  0.00  0.00    +0.000 C 
ATOM      3  C   UNL     1       7.514   4.428  17.467  0.00  0.00    +0.000 C 
ATOM      4  C   UNL     1       6.217   4.676  18.238  0.00  0.00    +0.000 C 
ATOM      5  N   UNL     1       5.979   6.160  18.214  0.00  0.00    +0.000 NA
ENDROOT
BRANCH   1   9
ATOM      6  N   UNL     1       8.012  10.300  17.502  0.00  0.00    +0.000 N 
ATOM      7  C   UNL     1       8.129   9.023  18.012  0.00  0.00    +0.000 C 
ATOM      8  O   UNL     1       8.900   8.666  18.895  0.00  0.00    +0.000 OA
ATOM      9  N   UNL     1       7.293   8.119  17.386  0.00  0.00    +0.000 N 
ATOM     10  H   UNL     1       7.291  10.443  16.810  0.00  0.00    +0.000 HD
ATOM     11  H   UNL     1       6.460   8.456  16.921  0.00  0.00    +0.000 HD
BRANCH   6  16
ATOM     12  C   UNL     1      11.353  14.937  18.063  0.00  0.00    +0.000 C 
ATOM     13  C   UNL     1      10.485  13.714  18.038  0.00  0.00    +0.000 A 
ATOM     14  C   UNL     1      11.050  12.437  18.061  0.00  0.00    +0.000 A 
ATOM     15  C   UNL     1      10.247  11.296  17.932  0.00  0.00    +0.000 A 
ATOM     16  C   UNL     1       8.863  11.403  17.767  0.00  0.00    +0.000 A 
ATOM     17  C   UNL     1       8.292  12.682  17.807  0.00  0.00    +0.000 A 
ATOM     18  C   UNL     1       9.094  13.827  17.940  0.00  0.00    +0.000 A 
ENDBRANCH   6  16
ENDBRANCH   1   9
BRANCH   5  19
ATOM     19  S   UNL     1       4.594   6.634  17.351  0.00  0.00    +0.000 S 
ATOM     20  O   UNL     1       4.105   7.866  17.937  0.00  0.00    +0.000 OA
ATOM     21  O   UNL     1       4.881   6.538  15.938  0.00  0.00    +0.000 OA
BRANCH  19  22
ATOM     22  C   UNL     1       3.401   5.368  17.765  0.00  0.00    +0.000 A 
ATOM     23  C   UNL     1       3.353   4.203  16.990  0.00  0.00    +0.000 A 
ATOM     24  C   UNL     1       2.437   3.194  17.308  0.00  0.00    +0.000 A 
ATOM     25  C   UNL     1       1.584   3.349  18.401  0.00  0.00    +0.000 A 
ATOM     26 CL   UNL     1       0.446   2.114  18.781  0.00  0.00    +0.000 Cl
ATOM     27  C   UNL     1       1.646   4.500  19.190  0.00  0.00    +0.000 A 
ATOM     28  C   UNL     1       2.557   5.516  18.872  0.00  0.00    +0.000 A 
ENDBRANCH  19  22
ENDBRANCH   5  19
TORSDOF 4
ENDMDL
MODEL 7
REMARK VINA RESULT:      -7.4      5.923      7.373
REMARK  Name = 
REMARK  5 active torsions:
REMARK  status: ('A' for Active; 'I' for Inactive)
REMARK    1  A    between atoms: C_1  and  C_2
REMARK    2  A    between atoms: C_5  and  N_6
REMARK    3  A    between atoms: N_9  and  C_10
REMARK    4  A    between atoms: N_14  and  S_15
REMARK    5  A    between atoms: S_15  and  C_18
REMARK                            x       y       z     vdW  Elec       q    Type
REMARK                         _______ _______ _______ _____ _____    ______ ____
ROOT
ATOM      1  C   UNL     1       7.188   7.635  17.139  0.00  0.00    +0.000 C 
ATOM      2  C   UNL     1       5.706   7.889  17.386  0.00  0.00    +0.000 C 
ATOM      3  C   UNL     1       5.064   7.205  16.195  0.00  0.00    +0.000 C 
ATOM      4  C   UNL     1       5.987   6.031  15.869  0.00  0.00    +0.000 C 
ATOM      5  N   UNL     1       7.227   6.214  16.698  0.00  0.00    +0.000 NA
ENDROOT
BRANCH   1   9
ATOM      6  N   UNL     1       9.309   9.549  19.385  0.00  0.00    +0.000 N 
ATOM      7  C   UNL     1       8.470   9.331  18.312  0.00  0.00    +0.000 C 
ATOM      8  O   UNL     1       8.076  10.178  17.519  0.00  0.00    +0.000 OA
ATOM      9  N   UNL     1       8.050   8.018  18.220  0.00  0.00    +0.000 N 
ATOM     10  H   UNL     1       9.583   8.735  19.914  0.00  0.00    +0.000 HD
ATOM     11  H   UNL     1       8.611   7.290  18.643  0.00  0.00    +0.000 HD
BRANCH   6  16
ATOM     12  C   UNL     1      10.579  14.832  21.248  0.00  0.00    +0.000 C 
ATOM     13  C   UNL     1      10.343  13.411  20.826  0.00  0.00    +0.000 A 
ATOM     14  C   UNL     1      11.047  12.859  19.754  0.00  0.00    +0.000 A 
ATOM     15  C   UNL     1      10.754  11.569  19.293  0.00  0.00    +0.000 A 
ATOM     16  C   UNL     1       9.744  10.804  19.884  0.00  0.00    +0.000 A 
ATOM     17  C   UNL     1       9.081  11.337  20.998  0.00  0.00    +0.000 A 
ATOM     18  C   UNL     1       9.376  12.628  21.464  0.00  0.00    +0.000 A 
ENDBRANCH   6  16
ENDBRANCH   1   9
BRANCH   5  19
ATOM     19  S   UNL     1       7.467   5.013  17.876  0.00  0.00    +0.000 S 
ATOM     20  O   UNL     1       8.204   3.927  17.260  0.00  0.00    +0.000 OA
ATOM     21  O   UNL     1       7.939   5.647  19.086  0.00  0.00    +0.000 OA
BRANCH  19  22
ATOM     22  C   UNL     1       5.816   4.399  18.176  0.00  0.00    +0.000 A 
ATOM     23  C   UNL     1       5.113   4.862  19.295  0.00  0.00    +0.000 A 
ATOM     24  C   UNL     1       3.813   4.405  19.538  0.00  0.00    +0.000 A 
ATOM     25  C   UNL     1       3.219   3.498  18.659  0.00  0.00    +0.000 A 
ATOM     26 CL   UNL     1       1.625   2.925  18.968  0.00  0.00    +0.000 Cl
ATOM     27  C   UNL     1       3.908   3.053  17.529  0.00  0.00    +0.000 A 
ATOM     28  C   UNL     1       5.212   3.503  17.284  0.00  0.00    +0.000 A 
ENDBRANCH  19  22
ENDBRANCH   5  19
TORSDOF 4
ENDMDL
MODEL 8
REMARK VINA RESULT:      -7.4      4.989      9.103
REMARK  Name = 
REMARK  5 active torsions:
REMARK  status: ('A' for Active; 'I' for Inactive)
REMARK    1  A    between atoms: C_1  and  C_2
REMARK    2  A    between atoms: C_5  and  N_6
REMARK    3  A    between atoms: N_9  and  C_10
REMARK    4  A    between atoms: N_14  and  S_15
REMARK    5  A    between atoms: S_15  and  C_18
REMARK                            x       y       z     vdW  Elec       q    Type
REMARK                         _______ _______ _______ _____ _____    ______ ____
ROOT
ATOM      1  C   UNL     1       1.114  11.747  19.209  0.00  0.00    +0.000 C 
ATOM      2  C   UNL     1       1.276  12.676  20.407  0.00  0.00    +0.000 C 
ATOM      3  C   UNL     1       0.815  14.005  19.841  0.00  0.00    +0.000 C 
ATOM      4  C   UNL     1      -0.249  13.647  18.805  0.00  0.00    +0.000 C 
ATOM      5  N   UNL     1      -0.195  12.154  18.629  0.00  0.00    +0.000 NA
ENDROOT
BRANCH   1   9
ATOM      6  N   UNL     1       1.932   8.217  18.932  0.00  0.00    +0.000 N 
ATOM      7  C   UNL     1       1.824   9.529  18.521  0.00  0.00    +0.000 C 
ATOM      8  O   UNL     1       2.170   9.977  17.434  0.00  0.00    +0.000 OA
ATOM      9  N   UNL     1       1.305  10.355  19.500  0.00  0.00    +0.000 N 
ATOM     10  H   UNL     1       1.553   7.998  19.841  0.00  0.00    +0.000 HD
ATOM     11  H   UNL     1       0.734   9.954  20.232  0.00  0.00    +0.000 HD
BRANCH   6  16
ATOM     12  C   UNL     1       4.779   3.752  16.708  0.00  0.00    +0.000 C 
ATOM     13  C   UNL     1       3.993   4.941  17.176  0.00  0.00    +0.000 A 
ATOM     14  C   UNL     1       4.517   6.231  17.065  0.00  0.00    +0.000 A 
ATOM     15  C   UNL     1       3.830   7.331  17.597  0.00  0.00    +0.000 A 
ATOM     16  C   UNL     1       2.611   7.168  18.260  0.00  0.00    +0.000 A 
ATOM     17  C   UNL     1       2.059   5.881  18.316  0.00  0.00    +0.000 A 
ATOM     18  C   UNL     1       2.743   4.779  17.781  0.00  0.00    +0.000 A 
ENDBRANCH   6  16
ENDBRANCH   1   9
BRANCH   5  19
ATOM     19  S   UNL     1      -1.593  11.336  19.143  0.00  0.00    +0.000 S 
ATOM     20  O   UNL     1      -1.177  10.099  19.774  0.00  0.00    +0.000 OA
ATOM     21  O   UNL     1      -2.446  12.278  19.830  0.00  0.00    +0.000 OA
BRANCH  19  22
ATOM     22  C   UNL     1      -2.388  10.880  17.609  0.00  0.00    +0.000 A 
ATOM     23  C   UNL     1      -3.584  11.514  17.250  0.00  0.00    +0.000 A 
ATOM     24  C   UNL     1      -4.212  11.181  16.045  0.00  0.00    +0.000 A 
ATOM     25  C   UNL     1      -3.640  10.228  15.201  0.00  0.00    +0.000 A 
ATOM     26 CL   UNL     1      -4.423   9.809  13.727  0.00  0.00    +0.000 Cl
ATOM     27  C   UNL     1      -2.435   9.611  15.546  0.00  0.00    +0.000 A 
ATOM     28  C   UNL     1      -1.805   9.936  16.754  0.00  0.00    +0.000 A 
ENDBRANCH  19  22
ENDBRANCH   5  19
TORSDOF 4
ENDMDL
MODEL 9
REMARK VINA RESULT:      -7.3      5.052     10.204
REMARK  Name = 
REMARK  5 active torsions:
REMARK  status: ('A' for Active; 'I' for Inactive)
REMARK    1  A    between atoms: C_1  and  C_2
REMARK    2  A    between atoms: C_5  and  N_6
REMARK    3  A    between atoms: N_9  and  C_10
REMARK    4  A    between atoms: N_14  and  S_15
REMARK    5  A    between atoms: S_15  and  C_18
REMARK                            x       y       z     vdW  Elec       q    Type
REMARK                         _______ _______ _______ _____ _____    ______ ____
ROOT
ATOM      1  C   UNL     1       0.157  10.591  19.134  0.00  0.00    +0.000 C 
ATOM      2  C   UNL     1       0.840  11.892  18.729  0.00  0.00    +0.000 C 
ATOM      3  C   UNL     1      -0.323  12.863  18.694  0.00  0.00    +0.000 C 
ATOM      4  C   UNL     1      -1.290  12.363  19.766  0.00  0.00    +0.000 C 
ATOM      5  N   UNL     1      -0.788  11.014  20.203  0.00  0.00    +0.000 NA
ENDROOT
BRANCH   1   9
ATOM      6  N   UNL     1       2.329   7.693  18.836  0.00  0.00    +0.000 N 
ATOM      7  C   UNL     1       1.493   8.701  18.402  0.00  0.00    +0.000 C 
ATOM      8  O   UNL     1       1.174   8.925  17.240  0.00  0.00    +0.000 OA
ATOM      9  N   UNL     1       1.053   9.511  19.431  0.00  0.00    +0.000 N 
ATOM     10  H   UNL     1       2.453   7.610  19.834  0.00  0.00    +0.000 HD
ATOM     11  H   UNL     1       1.039   9.146  20.375  0.00  0.00    +0.000 HD
BRANCH   6  16
ATOM     12  C   UNL     1       5.689   3.975  16.029  0.00  0.00    +0.000 C 
ATOM     13  C   UNL     1       4.755   4.968  16.656  0.00  0.00    +0.000 A 
ATOM     14  C   UNL     1       5.025   6.337  16.599  0.00  0.00    +0.000 A 
ATOM     15  C   UNL     1       4.210   7.256  17.273  0.00  0.00    +0.000 A 
ATOM     16  C   UNL     1       3.114   6.831  18.027  0.00  0.00    +0.000 A 
ATOM     17  C   UNL     1       2.809   5.463  18.032  0.00  0.00    +0.000 A 
ATOM     18  C   UNL     1       3.621   4.540  17.355  0.00  0.00    +0.000 A 
ENDBRANCH   6  16
ENDBRANCH   1   9
BRANCH   5  19
ATOM     19  S   UNL     1      -0.258  10.953  21.817  0.00  0.00    +0.000 S 
ATOM     20  O   UNL     1      -0.682   9.685  22.377  0.00  0.00    +0.000 OA
ATOM     21  O   UNL     1       1.127  11.365  21.858  0.00  0.00    +0.000 OA
BRANCH  19  22
ATOM     22  C   UNL     1      -1.239  12.215  22.618  0.00  0.00    +0.000 A 
ATOM     23  C   UNL     1      -2.516  11.883  23.088  0.00  0.00    +0.000 A 
ATOM     24  C   UNL     1      -3.293  12.853  23.732  0.00  0.00    +0.000 A 
ATOM     25  C   UNL     1      -2.788  14.141  23.913  0.00  0.00    +0.000 A 
ATOM     26 CL   UNL     1      -3.752  15.337  24.691  0.00  0.00    +0.000 Cl
ATOM     27  C   UNL     1      -1.505  14.468  23.466  0.00  0.00    +0.000 A 
ATOM     28  C   UNL     1      -0.726  13.503  22.815  0.00  0.00    +0.000 A 
ENDBRANCH  19  22
ENDBRANCH   5  19
TORSDOF 4
ENDMDL
