MODEL 1
REMARK VINA RESULT:      -7.3      0.000      0.000
REMARK  Name = 
REMARK  11 active torsions:
REMARK  status: ('A' for Active; 'I' for Inactive)
REMARK    1  A    between atoms: C_1  and  O_2
REMARK    2  A    between atoms: O_2  and  C_3
REMARK    3  A    between atoms: C_3  and  C_4
REMARK    4  A    between atoms: N_12  and  C_13
REMARK    5  A    between atoms: C_13  and  C_14
REMARK    6  A    between atoms: C_14  and  O_15
REMARK    7  A    between atoms: O_15  and  C_16
REMARK    8  A    between atoms: C_19  and  C_20
REMARK    9  A    between atoms: C_20  and  C_21
REMARK   10  A    between atoms: C_20  and  C_22
REMARK   11  A    between atoms: C_20  and  C_23
REMARK                            x       y       z     vdW  Elec       q    Type
REMARK                         _______ _______ _______ _____ _____    ______ ____
ROOT
ATOM      1  C   UNL     1       2.819   4.792  17.659  0.00  0.00    +0.000 C 
ENDROOT
BRANCH   1  10
ATOM      2  C   UNL     1       4.623   3.707  19.069  0.00  0.00    +0.000 A 
ATOM      3  N   UNL     1       5.885   3.929  19.389  0.00  0.00    +0.000 NA
ATOM      4  C   UNL     1       6.252   5.062  18.717  0.00  0.00    +0.000 A 
ATOM      5  C   UNL     1       7.495   5.712  18.693  0.00  0.00    +0.000 A 
ATOM      6  C   UNL     1       7.637   6.868  17.918  0.00  0.00    +0.000 A 
ATOM      7  C   UNL     1       6.562   7.366  17.184  0.00  0.00    +0.000 A 
ATOM      8  C   UNL     1       5.312   6.731  17.197  0.00  0.00    +0.000 A 
ATOM      9  C   UNL     1       5.192   5.576  17.982  0.00  0.00    +0.000 A 
ATOM     10  N   UNL     1       4.152   4.701  18.230  0.00  0.00    +0.000 N 
BRANCH   2  11
ATOM     11  C   UNL     1       3.821   2.542  19.547  0.00  0.00    +0.000 C 
BRANCH  11  13
ATOM     12  C   UNL     1       1.801   2.558  20.756  0.00  0.00    +0.000 C 
ATOM     13  O   UNL     1       3.169   2.943  20.752  0.00  0.00    +0.000 OA
ENDBRANCH  11  13
ENDBRANCH   2  11
ENDBRANCH   1  10
BRANCH   1  14
ATOM     14  C   UNL     1       1.866   5.520  18.595  0.00  0.00    +0.000 C 
BRANCH  14  15
ATOM     15  O   UNL     1       2.573   6.430  19.453  0.00  0.00    +0.000 OA
BRANCH  15  16
ATOM     16  C   UNL     1       2.013   7.687  19.479  0.00  0.00    +0.000 A 
ATOM     17  C   UNL     1       1.409   8.245  20.602  0.00  0.00    +0.000 A 
ATOM     18  C   UNL     1       0.783   9.490  20.533  0.00  0.00    +0.000 A 
ATOM     19  C   UNL     1       0.750  10.232  19.346  0.00  0.00    +0.000 A 
ATOM     20  C   UNL     1       1.436   9.694  18.239  0.00  0.00    +0.000 A 
ATOM     21  C   UNL     1       2.067   8.439  18.307  0.00  0.00    +0.000 A 
BRANCH  19  22
ATOM     22  C   UNL     1      -0.018  11.563  19.255  0.00  0.00    +0.000 C 
ATOM     23  C   UNL     1      -1.216  11.509  18.275  0.00  0.00    +0.000 C 
ATOM     24  C   UNL     1      -0.573  11.955  20.638  0.00  0.00    +0.000 C 
ATOM     25  C   UNL     1       0.921  12.679  18.749  0.00  0.00    +0.000 C 
ENDBRANCH  19  22
ENDBRANCH  15  16
ENDBRANCH  14  15
ENDBRANCH   1  14
TORSDOF 7
ENDMDL
MODEL 2
REMARK VINA RESULT:      -7.3      3.084      4.192
REMARK  Name = 
REMARK  11 active torsions:
REMARK  status: ('A' for Active; 'I' for Inactive)
REMARK    1  A    between atoms: C_1  and  O_2
REMARK    2  A    between atoms: O_2  and  C_3
REMARK    3  A    between atoms: C_3  and  C_4
REMARK    4  A    between atoms: N_12  and  C_13
REMARK    5  A    between atoms: C_13  and  C_14
REMARK    6  A    between atoms: C_14  and  O_15
REMARK    7  A    between atoms: O_15  and  C_16
REMARK    8  A    between atoms: C_19  and  C_20
REMARK    9  A    between atoms: C_20  and  C_21
REMARK   10  A    between atoms: C_20  and  C_22
REMARK   11  A    between atoms: C_20  and  C_23
REMARK                            x       y       z     vdW  Elec       q    Type
REMARK                         _______ _______ _______ _____ _____    ______ ____
ROOT
ATOM      1  C   UNL     1       4.916   3.918  16.701  0.00  0.00    +0.000 C 
ENDROOT
BRANCH   1  10
ATOM      2  C   UNL     1       6.936   5.370  16.225  0.00  0.00    +0.000 A 
ATOM      3  N   UNL     1       7.692   5.693  15.191  0.00  0.00    +0.000 NA
ATOM      4  C   UNL     1       7.195   4.993  14.127  0.00  0.00    +0.000 A 
ATOM      5  C   UNL     1       7.651   4.959  12.800  0.00  0.00    +0.000 A 
ATOM      6  C   UNL     1       6.977   4.154  11.876  0.00  0.00    +0.000 A 
ATOM      7  C   UNL     1       5.873   3.398  12.265  0.00  0.00    +0.000 A 
ATOM      8  C   UNL     1       5.402   3.421  13.585  0.00  0.00    +0.000 A 
ATOM      9  C   UNL     1       6.090   4.236  14.495  0.00  0.00    +0.000 A 
ATOM     10  N   UNL     1       5.931   4.500  15.841  0.00  0.00    +0.000 N 
BRANCH   2  11
ATOM     11  C   UNL     1       7.143   5.874  17.615  0.00  0.00    +0.000 C 
BRANCH  11  13
ATOM     12  C   UNL     1       7.804   8.134  17.602  0.00  0.00    +0.000 C 
ATOM     13  O   UNL     1       6.706   7.233  17.642  0.00  0.00    +0.000 OA
ENDBRANCH  11  13
ENDBRANCH   2  11
ENDBRANCH   1  10
BRANCH   1  14
ATOM     14  C   UNL     1       3.806   4.916  16.999  0.00  0.00    +0.000 C 
BRANCH  14  15
ATOM     15  O   UNL     1       3.774   5.258  18.394  0.00  0.00    +0.000 OA
BRANCH  15  16
ATOM     16  C   UNL     1       3.125   6.446  18.639  0.00  0.00    +0.000 A 
ATOM     17  C   UNL     1       2.407   6.712  19.802  0.00  0.00    +0.000 A 
ATOM     18  C   UNL     1       1.700   7.906  19.948  0.00  0.00    +0.000 A 
ATOM     19  C   UNL     1       1.694   8.885  18.946  0.00  0.00    +0.000 A 
ATOM     20  C   UNL     1       2.491   8.639  17.811  0.00  0.00    +0.000 A 
ATOM     21  C   UNL     1       3.204   7.436  17.662  0.00  0.00    +0.000 A 
BRANCH  19  22
ATOM     22  C   UNL     1       0.842  10.160  19.077  0.00  0.00    +0.000 C 
ATOM     23  C   UNL     1       0.382  10.438  20.529  0.00  0.00    +0.000 C 
ATOM     24  C   UNL     1       1.644  11.388  18.607  0.00  0.00    +0.000 C 
ATOM     25  C   UNL     1      -0.437  10.029  18.222  0.00  0.00    +0.000 C 
ENDBRANCH  19  22
ENDBRANCH  15  16
ENDBRANCH  14  15
ENDBRANCH   1  14
TORSDOF 7
ENDMDL
MODEL 3
REMARK VINA RESULT:      -7.3      1.392      3.631
REMARK  Name = 
REMARK  11 active torsions:
REMARK  status: ('A' for Active; 'I' for Inactive)
REMARK    1  A    between atoms: C_1  and  O_2
REMARK    2  A    between atoms: O_2  and  C_3
REMARK    3  A    between atoms: C_3  and  C_4
REMARK    4  A    between atoms: N_12  and  C_13
REMARK    5  A    between atoms: C_13  and  C_14
REMARK    6  A    between atoms: C_14  and  O_15
REMARK    7  A    between atoms: O_15  and  C_16
REMARK    8  A    between atoms: C_19  and  C_20
REMARK    9  A    between atoms: C_20  and  C_21
REMARK   10  A    between atoms: C_20  and  C_22
REMARK   11  A    between atoms: C_20  and  C_23
REMARK                            x       y       z     vdW  Elec       q    Type
REMARK                         _______ _______ _______ _____ _____    ______ ____
ROOT
ATOM      1  C   UNL     1       3.519   5.504  17.305  0.00  0.00    +0.000 C 
ENDROOT
BRANCH   1  10
ATOM      2  C   UNL     1       5.074   4.049  18.677  0.00  0.00    +0.000 A 
ATOM      3  N   UNL     1       4.989   3.202  19.688  0.00  0.00    +0.000 NA
ATOM      4  C   UNL     1       3.670   3.174  20.049  0.00  0.00    +0.000 A 
ATOM      5  C   UNL     1       3.051   2.455  21.082  0.00  0.00    +0.000 A 
ATOM      6  C   UNL     1       1.672   2.592  21.267  0.00  0.00    +0.000 A 
ATOM      7  C   UNL     1       0.925   3.429  20.439  0.00  0.00    +0.000 A 
ATOM      8  C   UNL     1       1.526   4.155  19.402  0.00  0.00    +0.000 A 
ATOM      9  C   UNL     1       2.909   4.000  19.232  0.00  0.00    +0.000 A 
ATOM     10  N   UNL     1       3.823   4.543  18.351  0.00  0.00    +0.000 N 
BRANCH   2  11
ATOM     11  C   UNL     1       6.345   4.420  17.989  0.00  0.00    +0.000 C 
BRANCH  11  13
ATOM     12  C   UNL     1       7.756   6.124  18.793  0.00  0.00    +0.000 C 
ATOM     13  O   UNL     1       7.278   4.801  18.999  0.00  0.00    +0.000 OA
ENDBRANCH  11  13
ENDBRANCH   2  11
ENDBRANCH   1  10
BRANCH   1  14
ATOM     14  C   UNL     1       3.565   6.929  17.835  0.00  0.00    +0.000 C 
BRANCH  14  15
ATOM     15  O   UNL     1       2.904   7.034  19.106  0.00  0.00    +0.000 OA
BRANCH  15  16
ATOM     16  C   UNL     1       2.034   8.098  19.172  0.00  0.00    +0.000 A 
ATOM     17  C   UNL     1       1.393   8.507  20.339  0.00  0.00    +0.000 A 
ATOM     18  C   UNL     1       0.457   9.541  20.315  0.00  0.00    +0.000 A 
ATOM     19  C   UNL     1       0.136  10.216  19.132  0.00  0.00    +0.000 A 
ATOM     20  C   UNL     1       0.852   9.850  17.975  0.00  0.00    +0.000 A 
ATOM     21  C   UNL     1       1.796   8.807  17.997  0.00  0.00    +0.000 A 
BRANCH  19  22
ATOM     22  C   UNL     1      -0.961  11.296  19.098  0.00  0.00    +0.000 C 
ATOM     23  C   UNL     1      -1.472  11.688  20.506  0.00  0.00    +0.000 C 
ATOM     24  C   UNL     1      -0.427  12.577  18.429  0.00  0.00    +0.000 C 
ATOM     25  C   UNL     1      -2.183  10.781  18.308  0.00  0.00    +0.000 C 
ENDBRANCH  19  22
ENDBRANCH  15  16
ENDBRANCH  14  15
ENDBRANCH   1  14
TORSDOF 7
ENDMDL
MODEL 4
REMARK VINA RESULT:      -7.2      0.400      1.036
REMARK  Name = 
REMARK  11 active torsions:
REMARK  status: ('A' for Active; 'I' for Inactive)
REMARK    1  A    between atoms: C_1  and  O_2
REMARK    2  A    between atoms: O_2  and  C_3
REMARK    3  A    between atoms: C_3  and  C_4
REMARK    4  A    between atoms: N_12  and  C_13
REMARK    5  A    between atoms: C_13  and  C_14
REMARK    6  A    between atoms: C_14  and  O_15
REMARK    7  A    between atoms: O_15  and  C_16
REMARK    8  A    between atoms: C_19  and  C_20
REMARK    9  A    between atoms: C_20  and  C_21
REMARK   10  A    between atoms: C_20  and  C_22
REMARK   11  A    between atoms: C_20  and  C_23
REMARK                            x       y       z     vdW  Elec       q    Type
REMARK                         _______ _______ _______ _____ _____    ______ ____
ROOT
ATOM      1  C   UNL     1       3.188   4.761  17.461  0.00  0.00    +0.000 C 
ENDROOT
BRANCH   1  10
ATOM      2  C   UNL     1       4.858   3.823  19.119  0.00  0.00    +0.000 A 
ATOM      3  N   UNL     1       6.067   4.114  19.567  0.00  0.00    +0.000 NA
ATOM      4  C   UNL     1       6.465   5.230  18.883  0.00  0.00    +0.000 A 
ATOM      5  C   UNL     1       7.677   5.931  18.965  0.00  0.00    +0.000 A 
ATOM      6  C   UNL     1       7.862   7.055  18.153  0.00  0.00    +0.000 A 
ATOM      7  C   UNL     1       6.860   7.470  17.277  0.00  0.00    +0.000 A 
ATOM      8  C   UNL     1       5.642   6.783  17.183  0.00  0.00    +0.000 A 
ATOM      9  C   UNL     1       5.477   5.661  18.008  0.00  0.00    +0.000 A 
ATOM     10  N   UNL     1       4.449   4.755  18.182  0.00  0.00    +0.000 N 
BRANCH   2  11
ATOM     11  C   UNL     1       4.051   2.648  19.564  0.00  0.00    +0.000 C 
BRANCH  11  13
ATOM     12  C   UNL     1       1.868   2.625  20.442  0.00  0.00    +0.000 C 
ATOM     13  O   UNL     1       3.198   3.096  20.617  0.00  0.00    +0.000 OA
ENDBRANCH  11  13
ENDBRANCH   2  11
ENDBRANCH   1  10
BRANCH   1  14
ATOM     14  C   UNL     1       2.121   5.533  18.223  0.00  0.00    +0.000 C 
BRANCH  14  15
ATOM     15  O   UNL     1       2.709   6.433  19.176  0.00  0.00    +0.000 OA
BRANCH  15  16
ATOM     16  C   UNL     1       2.112   7.673  19.182  0.00  0.00    +0.000 A 
ATOM     17  C   UNL     1       2.055   8.513  18.073  0.00  0.00    +0.000 A 
ATOM     18  C   UNL     1       1.510   9.793  18.175  0.00  0.00    +0.000 A 
ATOM     19  C   UNL     1       0.988  10.278  19.380  0.00  0.00    +0.000 A 
ATOM     20  C   UNL     1       0.976   9.389  20.473  0.00  0.00    +0.000 A 
ATOM     21  C   UNL     1       1.526   8.098  20.372  0.00  0.00    +0.000 A 
BRANCH  19  22
ATOM     22  C   UNL     1       0.470  11.722  19.505  0.00  0.00    +0.000 C 
ATOM     23  C   UNL     1      -0.695  12.036  18.534  0.00  0.00    +0.000 C 
ATOM     24  C   UNL     1      -0.042  11.983  20.935  0.00  0.00    +0.000 C 
ATOM     25  C   UNL     1       1.602  12.719  19.181  0.00  0.00    +0.000 C 
ENDBRANCH  19  22
ENDBRANCH  15  16
ENDBRANCH  14  15
ENDBRANCH   1  14
TORSDOF 7
ENDMDL
MODEL 5
REMARK VINA RESULT:      -7.1      1.580      3.638
REMARK  Name = 
REMARK  11 active torsions:
REMARK  status: ('A' for Active; 'I' for Inactive)
REMARK    1  A    between atoms: C_1  and  O_2
REMARK    2  A    between atoms: O_2  and  C_3
REMARK    3  A    between atoms: C_3  and  C_4
REMARK    4  A    between atoms: N_12  and  C_13
REMARK    5  A    between atoms: C_13  and  C_14
REMARK    6  A    between atoms: C_14  and  O_15
REMARK    7  A    between atoms: O_15  and  C_16
REMARK    8  A    between atoms: C_19  and  C_20
REMARK    9  A    between atoms: C_20  and  C_21
REMARK   10  A    between atoms: C_20  and  C_22
REMARK   11  A    between atoms: C_20  and  C_23
REMARK                            x       y       z     vdW  Elec       q    Type
REMARK                         _______ _______ _______ _____ _____    ______ ____
ROOT
ATOM      1  C   UNL     1       3.828   5.791  17.266  0.00  0.00    +0.000 C 
ENDROOT
BRANCH   1  10
ATOM      2  C   UNL     1       5.175   4.156  18.655  0.00  0.00    +0.000 A 
ATOM      3  N   UNL     1       4.962   3.277  19.618  0.00  0.00    +0.000 NA
ATOM      4  C   UNL     1       3.625   3.343  19.901  0.00  0.00    +0.000 A 
ATOM      5  C   UNL     1       2.889   2.634  20.862  0.00  0.00    +0.000 A 
ATOM      6  C   UNL     1       1.516   2.877  20.974  0.00  0.00    +0.000 A 
ATOM      7  C   UNL     1       0.890   3.807  20.146  0.00  0.00    +0.000 A 
ATOM      8  C   UNL     1       1.609   4.524  19.180  0.00  0.00    +0.000 A 
ATOM      9  C   UNL     1       2.983   4.263  19.083  0.00  0.00    +0.000 A 
ATOM     10  N   UNL     1       3.990   4.765  18.282  0.00  0.00    +0.000 N 
BRANCH   2  11
ATOM     11  C   UNL     1       6.511   4.450  18.059  0.00  0.00    +0.000 C 
BRANCH  11  13
ATOM     12  C   UNL     1       7.728   6.413  18.514  0.00  0.00    +0.000 C 
ATOM     13  O   UNL     1       7.260   5.176  19.034  0.00  0.00    +0.000 OA
ENDBRANCH  11  13
ENDBRANCH   2  11
ENDBRANCH   1  10
BRANCH   1  14
ATOM     14  C   UNL     1       3.723   7.175  17.892  0.00  0.00    +0.000 C 
BRANCH  14  15
ATOM     15  O   UNL     1       2.602   7.902  17.363  0.00  0.00    +0.000 OA
BRANCH  15  16
ATOM     16  C   UNL     1       2.010   8.724  18.294  0.00  0.00    +0.000 A 
ATOM     17  C   UNL     1       1.636   8.311  19.569  0.00  0.00    +0.000 A 
ATOM     18  C   UNL     1       0.961   9.176  20.431  0.00  0.00    +0.000 A 
ATOM     19  C   UNL     1       0.646  10.489  20.060  0.00  0.00    +0.000 A 
ATOM     20  C   UNL     1       1.104  10.920  18.799  0.00  0.00    +0.000 A 
ATOM     21  C   UNL     1       1.784  10.050  17.928  0.00  0.00    +0.000 A 
BRANCH  19  22
ATOM     22  C   UNL     1      -0.175  11.407  20.982  0.00  0.00    +0.000 C 
ATOM     23  C   UNL     1      -1.551  11.793  20.386  0.00  0.00    +0.000 C 
ATOM     24  C   UNL     1      -0.438  10.712  22.331  0.00  0.00    +0.000 C 
ATOM     25  C   UNL     1       0.589  12.726  21.229  0.00  0.00    +0.000 C 
ENDBRANCH  19  22
ENDBRANCH  15  16
ENDBRANCH  14  15
ENDBRANCH   1  14
TORSDOF 7
ENDMDL
MODEL 6
REMARK VINA RESULT:      -7.0      2.917      4.094
REMARK  Name = 
REMARK  11 active torsions:
REMARK  status: ('A' for Active; 'I' for Inactive)
REMARK    1  A    between atoms: C_1  and  O_2
REMARK    2  A    between atoms: O_2  and  C_3
REMARK    3  A    between atoms: C_3  and  C_4
REMARK    4  A    between atoms: N_12  and  C_13
REMARK    5  A    between atoms: C_13  and  C_14
REMARK    6  A    between atoms: C_14  and  O_15
REMARK    7  A    between atoms: O_15  and  C_16
REMARK    8  A    between atoms: C_19  and  C_20
REMARK    9  A    between atoms: C_20  and  C_21
REMARK   10  A    between atoms: C_20  and  C_22
REMARK   11  A    between atoms: C_20  and  C_23
REMARK                            x       y       z     vdW  Elec       q    Type
REMARK                         _______ _______ _______ _____ _____    ______ ____
ROOT
ATOM      1  C   UNL     1       4.871   4.067  17.130  0.00  0.00    +0.000 C 
ENDROOT
BRANCH   1  10
ATOM      2  C   UNL     1       6.839   5.590  16.657  0.00  0.00    +0.000 A 
ATOM      3  N   UNL     1       7.603   5.917  15.630  0.00  0.00    +0.000 NA
ATOM      4  C   UNL     1       7.158   5.170  14.575  0.00  0.00    +0.000 A 
ATOM      5  C   UNL     1       7.643   5.121  13.259  0.00  0.00    +0.000 A 
ATOM      6  C   UNL     1       7.024   4.265  12.343  0.00  0.00    +0.000 A 
ATOM      7  C   UNL     1       5.943   3.474  12.730  0.00  0.00    +0.000 A 
ATOM      8  C   UNL     1       5.444   3.510  14.039  0.00  0.00    +0.000 A 
ATOM      9  C   UNL     1       6.078   4.377  14.940  0.00  0.00    +0.000 A 
ATOM     10  N   UNL     1       5.879   4.669  16.275  0.00  0.00    +0.000 N 
BRANCH   2  11
ATOM     11  C   UNL     1       6.995   6.139  18.036  0.00  0.00    +0.000 C 
BRANCH  11  13
ATOM     12  C   UNL     1       7.743   8.348  17.722  0.00  0.00    +0.000 C 
ATOM     13  O   UNL     1       8.124   7.012  18.019  0.00  0.00    +0.000 OA
ENDBRANCH  11  13
ENDBRANCH   2  11
ENDBRANCH   1  10
BRANCH   1  14
ATOM     14  C   UNL     1       3.675   4.991  17.308  0.00  0.00    +0.000 C 
BRANCH  14  15
ATOM     15  O   UNL     1       3.613   5.511  18.645  0.00  0.00    +0.000 OA
BRANCH  15  16
ATOM     16  C   UNL     1       2.879   6.671  18.736  0.00  0.00    +0.000 A 
ATOM     17  C   UNL     1       2.745   7.588  17.697  0.00  0.00    +0.000 A 
ATOM     18  C   UNL     1       2.056   8.787  17.887  0.00  0.00    +0.000 A 
ATOM     19  C   UNL     1       1.463   9.109  19.113  0.00  0.00    +0.000 A 
ATOM     20  C   UNL     1       1.534   8.136  20.130  0.00  0.00    +0.000 A 
ATOM     21  C   UNL     1       2.229   6.928  19.941  0.00  0.00    +0.000 A 
BRANCH  19  22
ATOM     22  C   UNL     1       0.781  10.470  19.341  0.00  0.00    +0.000 C 
ATOM     23  C   UNL     1       1.573  11.655  18.735  0.00  0.00    +0.000 C 
ATOM     24  C   UNL     1      -0.620  10.479  18.700  0.00  0.00    +0.000 C 
ATOM     25  C   UNL     1       0.651  10.748  20.854  0.00  0.00    +0.000 C 
ENDBRANCH  19  22
ENDBRANCH  15  16
ENDBRANCH  14  15
ENDBRANCH   1  14
TORSDOF 7
ENDMDL
MODEL 7
REMARK VINA RESULT:      -7.0      1.579      3.606
REMARK  Name = 
REMARK  11 active torsions:
REMARK  status: ('A' for Active; 'I' for Inactive)
REMARK    1  A    between atoms: C_1  and  O_2
REMARK    2  A    between atoms: O_2  and  C_3
REMARK    3  A    between atoms: C_3  and  C_4
REMARK    4  A    between atoms: N_12  and  C_13
REMARK    5  A    between atoms: C_13  and  C_14
REMARK    6  A    between atoms: C_14  and  O_15
REMARK    7  A    between atoms: O_15  and  C_16
REMARK    8  A    between atoms: C_19  and  C_20
REMARK    9  A    between atoms: C_20  and  C_21
REMARK   10  A    between atoms: C_20  and  C_22
REMARK   11  A    between atoms: C_20  and  C_23
REMARK                            x       y       z     vdW  Elec       q    Type
REMARK                         _______ _______ _______ _____ _____    ______ ____
ROOT
ATOM      1  C   UNL     1       3.132   5.533  17.512  0.00  0.00    +0.000 C 
ENDROOT
BRANCH   1  10
ATOM      2  C   UNL     1       4.882   4.107  18.663  0.00  0.00    +0.000 A 
ATOM      3  N   UNL     1       4.938   3.222  19.642  0.00  0.00    +0.000 NA
ATOM      4  C   UNL     1       3.664   3.117  20.130  0.00  0.00    +0.000 A 
ATOM      5  C   UNL     1       3.186   2.331  21.189  0.00  0.00    +0.000 A 
ATOM      6  C   UNL     1       1.827   2.393  21.515  0.00  0.00    +0.000 A 
ATOM      7  C   UNL     1       0.964   3.222  20.800  0.00  0.00    +0.000 A 
ATOM      8  C   UNL     1       1.424   4.013  19.739  0.00  0.00    +0.000 A 
ATOM      9  C   UNL     1       2.788   3.933  19.427  0.00  0.00    +0.000 A 
ATOM     10  N   UNL     1       3.584   4.551  18.483  0.00  0.00    +0.000 N 
BRANCH   2  11
ATOM     11  C   UNL     1       6.059   4.565  17.867  0.00  0.00    +0.000 C 
BRANCH  11  13
ATOM     12  C   UNL     1       6.579   4.721  15.577  0.00  0.00    +0.000 C 
ATOM     13  O   UNL     1       5.982   3.927  16.593  0.00  0.00    +0.000 OA
ENDBRANCH  11  13
ENDBRANCH   2  11
ENDBRANCH   1  10
BRANCH   1  14
ATOM     14  C   UNL     1       3.391   6.951  18.000  0.00  0.00    +0.000 C 
BRANCH  14  15
ATOM     15  O   UNL     1       2.824   7.165  19.302  0.00  0.00    +0.000 OA
BRANCH  15  16
ATOM     16  C   UNL     1       1.947   8.224  19.337  0.00  0.00    +0.000 A 
ATOM     17  C   UNL     1       1.202   8.579  20.458  0.00  0.00    +0.000 A 
ATOM     18  C   UNL     1       0.266   9.612  20.396  0.00  0.00    +0.000 A 
ATOM     19  C   UNL     1       0.048  10.339  19.220  0.00  0.00    +0.000 A 
ATOM     20  C   UNL     1       0.867  10.026  18.117  0.00  0.00    +0.000 A 
ATOM     21  C   UNL     1       1.811   8.984  18.177  0.00  0.00    +0.000 A 
BRANCH  19  22
ATOM     22  C   UNL     1      -1.047  11.418  19.135  0.00  0.00    +0.000 C 
ATOM     23  C   UNL     1      -2.301  10.951  18.356  0.00  0.00    +0.000 C 
ATOM     24  C   UNL     1      -1.509  11.821  20.549  0.00  0.00    +0.000 C 
ATOM     25  C   UNL     1      -0.505  12.663  18.402  0.00  0.00    +0.000 C 
ENDBRANCH  19  22
ENDBRANCH  15  16
ENDBRANCH  14  15
ENDBRANCH   1  14
TORSDOF 7
ENDMDL
MODEL 8
REMARK VINA RESULT:      -6.9      1.509      1.875
REMARK  Name = 
REMARK  11 active torsions:
REMARK  status: ('A' for Active; 'I' for Inactive)
REMARK    1  A    between atoms: C_1  and  O_2
REMARK    2  A    between atoms: O_2  and  C_3
REMARK    3  A    between atoms: C_3  and  C_4
REMARK    4  A    between atoms: N_12  and  C_13
REMARK    5  A    between atoms: C_13  and  C_14
REMARK    6  A    between atoms: C_14  and  O_15
REMARK    7  A    between atoms: O_15  and  C_16
REMARK    8  A    between atoms: C_19  and  C_20
REMARK    9  A    between atoms: C_20  and  C_21
REMARK   10  A    between atoms: C_20  and  C_22
REMARK   11  A    between atoms: C_20  and  C_23
REMARK                            x       y       z     vdW  Elec       q    Type
REMARK                         _______ _______ _______ _____ _____    ______ ____
ROOT
ATOM      1  C   UNL     1       3.524   5.737  19.644  0.00  0.00    +0.000 C 
ENDROOT
BRANCH   1  10
ATOM      2  C   UNL     1       3.134   3.827  18.026  0.00  0.00    +0.000 A 
ATOM      3  N   UNL     1       3.734   3.289  16.979  0.00  0.00    +0.000 NA
ATOM      4  C   UNL     1       4.856   4.040  16.759  0.00  0.00    +0.000 A 
ATOM      5  C   UNL     1       5.826   3.907  15.754  0.00  0.00    +0.000 A 
ATOM      6  C   UNL     1       6.895   4.808  15.725  0.00  0.00    +0.000 A 
ATOM      7  C   UNL     1       6.996   5.820  16.678  0.00  0.00    +0.000 A 
ATOM      8  C   UNL     1       6.037   5.968  17.690  0.00  0.00    +0.000 A 
ATOM      9  C   UNL     1       4.975   5.053  17.702  0.00  0.00    +0.000 A 
ATOM     10  N   UNL     1       3.870   4.893  18.514  0.00  0.00    +0.000 N 
BRANCH   2  11
ATOM     11  C   UNL     1       1.841   3.349  18.598  0.00  0.00    +0.000 C 
BRANCH  11  13
ATOM     12  C   UNL     1       1.290   2.846  20.831  0.00  0.00    +0.000 C 
ATOM     13  O   UNL     1       2.153   2.552  19.741  0.00  0.00    +0.000 OA
ENDBRANCH  11  13
ENDBRANCH   2  11
ENDBRANCH   1  10
BRANCH   1  14
ATOM     14  C   UNL     1       2.531   6.817  19.244  0.00  0.00    +0.000 C 
BRANCH  14  15
ATOM     15  O   UNL     1       2.045   7.530  20.392  0.00  0.00    +0.000 OA
BRANCH  15  16
ATOM     16  C   UNL     1       1.279   8.623  20.060  0.00  0.00    +0.000 A 
ATOM     17  C   UNL     1       0.393   9.247  20.935  0.00  0.00    +0.000 A 
ATOM     18  C   UNL     1      -0.417  10.297  20.504  0.00  0.00    +0.000 A 
ATOM     19  C   UNL     1      -0.364  10.776  19.189  0.00  0.00    +0.000 A 
ATOM     20  C   UNL     1       0.595  10.193  18.337  0.00  0.00    +0.000 A 
ATOM     21  C   UNL     1       1.412   9.133  18.770  0.00  0.00    +0.000 A 
BRANCH  19  22
ATOM     22  C   UNL     1      -1.322  11.876  18.698  0.00  0.00    +0.000 C 
ATOM     23  C   UNL     1      -2.173  11.442  17.479  0.00  0.00    +0.000 C 
ATOM     24  C   UNL     1      -2.298  12.274  19.821  0.00  0.00    +0.000 C 
ATOM     25  C   UNL     1      -0.518  13.119  18.259  0.00  0.00    +0.000 C 
ENDBRANCH  19  22
ENDBRANCH  15  16
ENDBRANCH  14  15
ENDBRANCH   1  14
TORSDOF 7
ENDMDL
MODEL 9
REMARK VINA RESULT:      -6.9      0.981      1.447
REMARK  Name = 
REMARK  11 active torsions:
REMARK  status: ('A' for Active; 'I' for Inactive)
REMARK    1  A    between atoms: C_1  and  O_2
REMARK    2  A    between atoms: O_2  and  C_3
REMARK    3  A    between atoms: C_3  and  C_4
REMARK    4  A    between atoms: N_12  and  C_13
REMARK    5  A    between atoms: C_13  and  C_14
REMARK    6  A    between atoms: C_14  and  O_15
REMARK    7  A    between atoms: O_15  and  C_16
REMARK    8  A    between atoms: C_19  and  C_20
REMARK    9  A    between atoms: C_20  and  C_21
REMARK   10  A    between atoms: C_20  and  C_22
REMARK   11  A    between atoms: C_20  and  C_23
REMARK                            x       y       z     vdW  Elec       q    Type
REMARK                         _______ _______ _______ _____ _____    ______ ____
ROOT
ATOM      1  C   UNL     1       2.452   5.314  18.529  0.00  0.00    +0.000 C 
ENDROOT
BRANCH   1  10
ATOM      2  C   UNL     1       4.344   3.842  19.348  0.00  0.00    +0.000 A 
ATOM      3  N   UNL     1       5.665   3.830  19.313  0.00  0.00    +0.000 NA
ATOM      4  C   UNL     1       6.034   4.941  18.606  0.00  0.00    +0.000 A 
ATOM      5  C   UNL     1       7.320   5.382  18.260  0.00  0.00    +0.000 A 
ATOM      6  C   UNL     1       7.453   6.559  17.517  0.00  0.00    +0.000 A 
ATOM      7  C   UNL     1       6.327   7.282  17.126  0.00  0.00    +0.000 A 
ATOM      8  C   UNL     1       5.034   6.857  17.463  0.00  0.00    +0.000 A 
ATOM      9  C   UNL     1       4.924   5.676  18.210  0.00  0.00    +0.000 A 
ATOM     10  N   UNL     1       3.850   4.964  18.706  0.00  0.00    +0.000 N 
BRANCH   2  11
ATOM     11  C   UNL     1       3.505   2.786  19.989  0.00  0.00    +0.000 C 
BRANCH  11  13
ATOM     12  C   UNL     1       2.881   1.842  17.926  0.00  0.00    +0.000 C 
ATOM     13  O   UNL     1       3.566   1.631  19.153  0.00  0.00    +0.000 OA
ENDBRANCH  11  13
ENDBRANCH   2  11
ENDBRANCH   1  10
BRANCH   1  14
ATOM     14  C   UNL     1       1.912   6.059  19.741  0.00  0.00    +0.000 C 
BRANCH  14  15
ATOM     15  O   UNL     1       2.541   7.343  19.885  0.00  0.00    +0.000 OA
BRANCH  15  16
ATOM     16  C   UNL     1       1.663   8.390  19.731  0.00  0.00    +0.000 A 
ATOM     17  C   UNL     1       0.841   8.871  20.746  0.00  0.00    +0.000 A 
ATOM     18  C   UNL     1      -0.089   9.881  20.495  0.00  0.00    +0.000 A 
ATOM     19  C   UNL     1      -0.224  10.458  19.227  0.00  0.00    +0.000 A 
ATOM     20  C   UNL     1       0.670  10.021  18.229  0.00  0.00    +0.000 A 
ATOM     21  C   UNL     1       1.608   9.004  18.481  0.00  0.00    +0.000 A 
BRANCH  19  22
ATOM     22  C   UNL     1      -1.312  11.508  18.936  0.00  0.00    +0.000 C 
ATOM     23  C   UNL     1      -2.004  12.037  20.217  0.00  0.00    +0.000 C 
ATOM     24  C   UNL     1      -0.700  12.722  18.210  0.00  0.00    +0.000 C 
ATOM     25  C   UNL     1      -2.418  10.892  18.054  0.00  0.00    +0.000 C 
ENDBRANCH  19  22
ENDBRANCH  15  16
ENDBRANCH  14  15
ENDBRANCH   1  14
TORSDOF 7
ENDMDL
