MODEL 1
REMARK VINA RESULT:      -7.2      0.000      0.000
REMARK  Name = 
REMARK  7 active torsions:
REMARK  status: ('A' for Active; 'I' for Inactive)
REMARK    1  A    between atoms: N_1  and  S_2
REMARK    2  A    between atoms: S_2  and  C_5
REMARK    3  A    between atoms: C_8  and  C_9
REMARK    4  A    between atoms: N_11  and  C_12
REMARK    5  A    between atoms: C_15  and  O_16
REMARK    6  A    between atoms: C_17  and  O_18
REMARK    7  A    between atoms: C_19  and  O_20
REMARK                            x       y       z     vdW  Elec       q    Type
REMARK                         _______ _______ _______ _____ _____    ______ ____
ROOT
ATOM      1  C   UNL     1       2.385   7.053  19.628  0.00  0.00    +0.000 C 
ATOM      2  O   UNL     1       1.762   6.371  20.443  0.00  0.00    +0.000 OA
ATOM      3  N   UNL     1       2.065   8.381  19.403  0.00  0.00    +0.000 N 
ATOM      4  H   UNL     1       2.456   8.905  18.639  0.00  0.00    +0.000 HD
ENDROOT
BRANCH   1   8
ATOM      5  C   UNL     1       5.543   5.415  17.178  0.00  0.00    +0.000 A 
ATOM      6  C   UNL     1       4.803   6.515  16.746  0.00  0.00    +0.000 A 
ATOM      7  C   UNL     1       3.779   7.017  17.560  0.00  0.00    +0.000 A 
ATOM      8  C   UNL     1       3.472   6.423  18.800  0.00  0.00    +0.000 A 
ATOM      9  C   UNL     1       4.214   5.303  19.206  0.00  0.00    +0.000 A 
ATOM     10  C   UNL     1       5.244   4.801  18.399  0.00  0.00    +0.000 A 
BRANCH   5  11
ATOM     11  S   UNL     1       6.797   4.722  16.133  0.00  0.00    +0.000 S 
ATOM     12  O   UNL     1       7.440   5.787  15.397  0.00  0.00    +0.000 OA
ATOM     13  O   UNL     1       6.273   3.542  15.486  0.00  0.00    +0.000 OA
BRANCH  11  14
ATOM     14  N   UNL     1       7.933   4.169  17.240  0.00  0.00    +0.000 NA
ATOM     15  H   UNL     1       7.451   3.721  18.021  0.00  0.00    +0.000 HD
ATOM     16  H   UNL     1       8.537   4.938  17.533  0.00  0.00    +0.000 HD
ENDBRANCH  11  14
ENDBRANCH   5  11
ENDBRANCH   1   8
BRANCH   3  17
ATOM     17  C   UNL     1       0.887   8.942  20.006  0.00  0.00    +0.000 C 
ATOM     18  O   UNL     1       0.414   9.899  19.056  0.00  0.00    +0.000 OA
ATOM     19  C   UNL     1      -0.900  10.371  19.390  0.00  0.00    +0.000 C 
ATOM     20  C   UNL     1      -0.885  11.085  20.743  0.00  0.00    +0.000 C 
ATOM     21  C   UNL     1      -0.289  10.173  21.825  0.00  0.00    +0.000 C 
ATOM     22  C   UNL     1       1.092   9.633  21.385  0.00  0.00    +0.000 C 
BRANCH  20  23
ATOM     23  O   UNL     1      -0.093  12.282  20.662  0.00  0.00    +0.000 OA
ATOM     24  H   UNL     1       0.832  12.046  20.868  0.00  0.00    +0.000 HD
ENDBRANCH  20  23
BRANCH  21  25
ATOM     25  O   UNL     1      -0.207  10.890  23.061  0.00  0.00    +0.000 OA
ATOM     26  H   UNL     1       0.745  10.995  23.254  0.00  0.00    +0.000 HD
ENDBRANCH  21  25
BRANCH  22  27
ATOM     27  O   UNL     1       1.632   8.782  22.397  0.00  0.00    +0.000 OA
ATOM     28  H   UNL     1       1.880   7.930  21.995  0.00  0.00    +0.000 HD
ENDBRANCH  22  27
ENDBRANCH   3  17
TORSDOF 7
ENDMDL
MODEL 2
REMARK VINA RESULT:      -7.1      0.202      1.045
REMARK  Name = 
REMARK  7 active torsions:
REMARK  status: ('A' for Active; 'I' for Inactive)
REMARK    1  A    between atoms: N_1  and  S_2
REMARK    2  A    between atoms: S_2  and  C_5
REMARK    3  A    between atoms: C_8  and  C_9
REMARK    4  A    between atoms: N_11  and  C_12
REMARK    5  A    between atoms: C_15  and  O_16
REMARK    6  A    between atoms: C_17  and  O_18
REMARK    7  A    between atoms: C_19  and  O_20
REMARK                            x       y       z     vdW  Elec       q    Type
REMARK                         _______ _______ _______ _____ _____    ______ ____
ROOT
ATOM      1  C   UNL     1       2.431   7.144  19.436  0.00  0.00    +0.000 C 
ATOM      2  O   UNL     1       1.835   6.400  20.216  0.00  0.00    +0.000 OA
ATOM      3  N   UNL     1       2.085   8.477  19.303  0.00  0.00    +0.000 N 
ATOM      4  H   UNL     1       2.454   9.057  18.567  0.00  0.00    +0.000 HD
ENDROOT
BRANCH   1   8
ATOM      5  C   UNL     1       5.487   5.373  16.950  0.00  0.00    +0.000 A 
ATOM      6  C   UNL     1       5.071   4.746  18.123  0.00  0.00    +0.000 A 
ATOM      7  C   UNL     1       4.084   5.351  18.913  0.00  0.00    +0.000 A 
ATOM      8  C   UNL     1       3.515   6.588  18.552  0.00  0.00    +0.000 A 
ATOM      9  C   UNL     1       3.963   7.213  17.379  0.00  0.00    +0.000 A 
ATOM     10  C   UNL     1       4.946   6.609  16.581  0.00  0.00    +0.000 A 
BRANCH   5  11
ATOM     11  S   UNL     1       6.784   4.659  15.972  0.00  0.00    +0.000 S 
ATOM     12  O   UNL     1       7.433   5.702  15.213  0.00  0.00    +0.000 OA
ATOM     13  O   UNL     1       6.297   3.444  15.360  0.00  0.00    +0.000 OA
BRANCH  11  14
ATOM     14  N   UNL     1       7.893   4.170  17.136  0.00  0.00    +0.000 NA
ATOM     15  H   UNL     1       8.780   3.947  16.681  0.00  0.00    +0.000 HD
ATOM     16  H   UNL     1       7.514   3.391  17.674  0.00  0.00    +0.000 HD
ENDBRANCH  11  14
ENDBRANCH   5  11
ENDBRANCH   1   8
BRANCH   3  17
ATOM     17  C   UNL     1       0.908   8.977  19.958  0.00  0.00    +0.000 C 
ATOM     18  O   UNL     1       0.399   9.981  19.077  0.00  0.00    +0.000 OA
ATOM     19  C   UNL     1      -0.917  10.405  19.462  0.00  0.00    +0.000 C 
ATOM     20  C   UNL     1      -0.890  11.036  20.855  0.00  0.00    +0.000 C 
ATOM     21  C   UNL     1      -0.257  10.072  21.869  0.00  0.00    +0.000 C 
ATOM     22  C   UNL     1       1.125   9.588  21.374  0.00  0.00    +0.000 C 
BRANCH  20  23
ATOM     23  O   UNL     1      -0.122  12.251  20.834  0.00  0.00    +0.000 OA
ATOM     24  H   UNL     1      -0.724  12.983  20.598  0.00  0.00    +0.000 HD
ENDBRANCH  20  23
BRANCH  21  25
ATOM     25  O   UNL     1      -0.166  10.714  23.145  0.00  0.00    +0.000 OA
ATOM     26  H   UNL     1       0.035  11.653  22.966  0.00  0.00    +0.000 HD
ENDBRANCH  21  25
BRANCH  22  27
ATOM     27  O   UNL     1       1.699   8.687  22.322  0.00  0.00    +0.000 OA
ATOM     28  H   UNL     1       2.598   8.992  22.544  0.00  0.00    +0.000 HD
ENDBRANCH  22  27
ENDBRANCH   3  17
TORSDOF 7
ENDMDL
MODEL 3
REMARK VINA RESULT:      -6.9      2.933      3.808
REMARK  Name = 
REMARK  7 active torsions:
REMARK  status: ('A' for Active; 'I' for Inactive)
REMARK    1  A    between atoms: N_1  and  S_2
REMARK    2  A    between atoms: S_2  and  C_5
REMARK    3  A    between atoms: C_8  and  C_9
REMARK    4  A    between atoms: N_11  and  C_12
REMARK    5  A    between atoms: C_15  and  O_16
REMARK    6  A    between atoms: C_17  and  O_18
REMARK    7  A    between atoms: C_19  and  O_20
REMARK                            x       y       z     vdW  Elec       q    Type
REMARK                         _______ _______ _______ _____ _____    ______ ____
ROOT
ATOM      1  C   UNL     1       1.943   8.384  18.481  0.00  0.00    +0.000 C 
ATOM      2  O   UNL     1       2.262   8.924  17.421  0.00  0.00    +0.000 OA
ATOM      3  N   UNL     1       1.247   9.071  19.461  0.00  0.00    +0.000 N 
ATOM      4  H   UNL     1       1.114   8.698  20.386  0.00  0.00    +0.000 HD
ENDROOT
BRANCH   1   8
ATOM      5  C   UNL     1       3.037   4.309  19.405  0.00  0.00    +0.000 A 
ATOM      6  C   UNL     1       2.438   5.122  20.366  0.00  0.00    +0.000 A 
ATOM      7  C   UNL     1       2.104   6.442  20.039  0.00  0.00    +0.000 A 
ATOM      8  C   UNL     1       2.374   6.969  18.760  0.00  0.00    +0.000 A 
ATOM      9  C   UNL     1       2.996   6.141  17.814  0.00  0.00    +0.000 A 
ATOM     10  C   UNL     1       3.327   4.817  18.134  0.00  0.00    +0.000 A 
BRANCH   5  11
ATOM     11  S   UNL     1       3.530   2.656  19.821  0.00  0.00    +0.000 S 
ATOM     12  O   UNL     1       3.054   1.750  18.802  0.00  0.00    +0.000 OA
ATOM     13  O   UNL     1       3.291   2.433  21.228  0.00  0.00    +0.000 OA
BRANCH  11  14
ATOM     14  N   UNL     1       5.200   2.717  19.646  0.00  0.00    +0.000 NA
ATOM     15  H   UNL     1       5.452   3.553  19.115  0.00  0.00    +0.000 HD
ATOM     16  H   UNL     1       5.536   1.856  19.215  0.00  0.00    +0.000 HD
ENDBRANCH  11  14
ENDBRANCH   5  11
ENDBRANCH   1   8
BRANCH   3  17
ATOM     17  C   UNL     1       1.027  10.484  19.320  0.00  0.00    +0.000 C 
ATOM     18  O   UNL     1       1.108  10.998  20.652  0.00  0.00    +0.000 OA
ATOM     19  C   UNL     1       1.162  12.433  20.662  0.00  0.00    +0.000 C 
ATOM     20  C   UNL     1      -0.112  13.022  20.054  0.00  0.00    +0.000 C 
ATOM     21  C   UNL     1      -0.353  12.447  18.651  0.00  0.00    +0.000 C 
ATOM     22  C   UNL     1      -0.329  10.901  18.681  0.00  0.00    +0.000 C 
BRANCH  20  23
ATOM     23  O   UNL     1      -1.246  12.708  20.881  0.00  0.00    +0.000 OA
ATOM     24  H   UNL     1      -1.595  13.544  21.244  0.00  0.00    +0.000 HD
ENDBRANCH  20  23
BRANCH  21  25
ATOM     25  O   UNL     1      -1.592  12.947  18.137  0.00  0.00    +0.000 OA
ATOM     26  H   UNL     1      -2.266  12.269  18.340  0.00  0.00    +0.000 HD
ENDBRANCH  21  25
BRANCH  22  27
ATOM     27  O   UNL     1      -0.548  10.381  17.370  0.00  0.00    +0.000 OA
ATOM     28  H   UNL     1      -0.134   9.501  17.305  0.00  0.00    +0.000 HD
ENDBRANCH  22  27
ENDBRANCH   3  17
TORSDOF 7
ENDMDL
MODEL 4
REMARK VINA RESULT:      -6.9      3.167      8.379
REMARK  Name = 
REMARK  7 active torsions:
REMARK  status: ('A' for Active; 'I' for Inactive)
REMARK    1  A    between atoms: N_1  and  S_2
REMARK    2  A    between atoms: S_2  and  C_5
REMARK    3  A    between atoms: C_8  and  C_9
REMARK    4  A    between atoms: N_11  and  C_12
REMARK    5  A    between atoms: C_15  and  O_16
REMARK    6  A    between atoms: C_17  and  O_18
REMARK    7  A    between atoms: C_19  and  O_20
REMARK                            x       y       z     vdW  Elec       q    Type
REMARK                         _______ _______ _______ _____ _____    ______ ____
ROOT
ATOM      1  C   UNL     1       2.574   6.897  18.554  0.00  0.00    +0.000 C 
ATOM      2  O   UNL     1       2.169   5.748  18.736  0.00  0.00    +0.000 OA
ATOM      3  N   UNL     1       3.705   7.153  17.798  0.00  0.00    +0.000 N 
ATOM      4  H   UNL     1       4.135   8.062  17.766  0.00  0.00    +0.000 HD
ENDROOT
BRANCH   1   8
ATOM      5  C   UNL     1       0.654  10.162  20.629  0.00  0.00    +0.000 A 
ATOM      6  C   UNL     1       0.972   8.981  21.298  0.00  0.00    +0.000 A 
ATOM      7  C   UNL     1       1.586   7.937  20.594  0.00  0.00    +0.000 A 
ATOM      8  C   UNL     1       1.875   8.051  19.220  0.00  0.00    +0.000 A 
ATOM      9  C   UNL     1       1.528   9.240  18.561  0.00  0.00    +0.000 A 
ATOM     10  C   UNL     1       0.920  10.291  19.262  0.00  0.00    +0.000 A 
BRANCH   5  11
ATOM     11  S   UNL     1      -0.185  11.470  21.485  0.00  0.00    +0.000 S 
ATOM     12  O   UNL     1      -1.518  11.609  20.945  0.00  0.00    +0.000 OA
ATOM     13  O   UNL     1       0.713  12.592  21.629  0.00  0.00    +0.000 OA
BRANCH  11  14
ATOM     14  N   UNL     1      -0.374  10.835  23.029  0.00  0.00    +0.000 NA
ATOM     15  H   UNL     1      -1.208  10.246  23.051  0.00  0.00    +0.000 HD
ATOM     16  H   UNL     1      -0.401  11.591  23.715  0.00  0.00    +0.000 HD
ENDBRANCH  11  14
ENDBRANCH   5  11
ENDBRANCH   1   8
BRANCH   3  17
ATOM     17  C   UNL     1       4.522   6.061  17.346  0.00  0.00    +0.000 C 
ATOM     18  O   UNL     1       5.161   5.571  18.527  0.00  0.00    +0.000 OA
ATOM     19  C   UNL     1       5.819   4.318  18.292  0.00  0.00    +0.000 C 
ATOM     20  C   UNL     1       6.923   4.480  17.246  0.00  0.00    +0.000 C 
ATOM     21  C   UNL     1       6.360   5.105  15.961  0.00  0.00    +0.000 C 
ATOM     22  C   UNL     1       5.599   6.413  16.278  0.00  0.00    +0.000 C 
BRANCH  20  23
ATOM     23  O   UNL     1       7.964   5.333  17.754  0.00  0.00    +0.000 OA
ATOM     24  H   UNL     1       8.715   4.767  18.016  0.00  0.00    +0.000 HD
ENDBRANCH  20  23
BRANCH  21  25
ATOM     25  O   UNL     1       7.425   5.325  15.031  0.00  0.00    +0.000 OA
ATOM     26  H   UNL     1       7.043   5.194  14.142  0.00  0.00    +0.000 HD
ENDBRANCH  21  25
BRANCH  22  27
ATOM     27  O   UNL     1       5.074   6.979  15.077  0.00  0.00    +0.000 OA
ATOM     28  H   UNL     1       4.845   7.912  15.240  0.00  0.00    +0.000 HD
ENDBRANCH  22  27
ENDBRANCH   3  17
TORSDOF 7
ENDMDL
MODEL 5
REMARK VINA RESULT:      -6.8      2.246      3.178
REMARK  Name = 
REMARK  7 active torsions:
REMARK  status: ('A' for Active; 'I' for Inactive)
REMARK    1  A    between atoms: N_1  and  S_2
REMARK    2  A    between atoms: S_2  and  C_5
REMARK    3  A    between atoms: C_8  and  C_9
REMARK    4  A    between atoms: N_11  and  C_12
REMARK    5  A    between atoms: C_15  and  O_16
REMARK    6  A    between atoms: C_17  and  O_18
REMARK    7  A    between atoms: C_19  and  O_20
REMARK                            x       y       z     vdW  Elec       q    Type
REMARK                         _______ _______ _______ _____ _____    ______ ____
ROOT
ATOM      1  C   UNL     1       1.847   8.974  18.341  0.00  0.00    +0.000 C 
ATOM      2  O   UNL     1       1.929   9.653  17.317  0.00  0.00    +0.000 OA
ATOM      3  N   UNL     1       1.076   9.379  19.417  0.00  0.00    +0.000 N 
ATOM      4  H   UNL     1       1.119   8.920  20.311  0.00  0.00    +0.000 HD
ENDROOT
BRANCH   1   8
ATOM      5  C   UNL     1       4.302   5.431  18.616  0.00  0.00    +0.000 A 
ATOM      6  C   UNL     1       4.459   6.327  17.559  0.00  0.00    +0.000 A 
ATOM      7  C   UNL     1       3.640   7.462  17.493  0.00  0.00    +0.000 A 
ATOM      8  C   UNL     1       2.652   7.708  18.466  0.00  0.00    +0.000 A 
ATOM      9  C   UNL     1       2.496   6.783  19.510  0.00  0.00    +0.000 A 
ATOM     10  C   UNL     1       3.316   5.649  19.584  0.00  0.00    +0.000 A 
BRANCH   5  11
ATOM     11  S   UNL     1       5.280   3.952  18.680  0.00  0.00    +0.000 S 
ATOM     12  O   UNL     1       4.783   3.102  19.736  0.00  0.00    +0.000 OA
ATOM     13  O   UNL     1       6.676   4.306  18.563  0.00  0.00    +0.000 OA
BRANCH  11  14
ATOM     14  N   UNL     1       4.882   3.186  17.239  0.00  0.00    +0.000 NA
ATOM     15  H   UNL     1       4.002   2.680  17.359  0.00  0.00    +0.000 HD
ATOM     16  H   UNL     1       5.650   2.584  16.941  0.00  0.00    +0.000 HD
ENDBRANCH  11  14
ENDBRANCH   5  11
ENDBRANCH   1   8
BRANCH   3  17
ATOM     17  C   UNL     1       0.486  10.689  19.418  0.00  0.00    +0.000 C 
ATOM     18  O   UNL     1       0.490  11.089  20.790  0.00  0.00    +0.000 OA
ATOM     19  C   UNL     1       0.165  12.480  20.937  0.00  0.00    +0.000 C 
ATOM     20  C   UNL     1      -1.246  12.759  20.415  0.00  0.00    +0.000 C 
ATOM     21  C   UNL     1      -1.391  12.265  18.969  0.00  0.00    +0.000 C 
ATOM     22  C   UNL     1      -0.960  10.784  18.850  0.00  0.00    +0.000 C 
BRANCH  20  23
ATOM     23  O   UNL     1      -2.218  12.084  21.232  0.00  0.00    +0.000 OA
ATOM     24  H   UNL     1      -2.097  12.383  22.153  0.00  0.00    +0.000 HD
ENDBRANCH  20  23
BRANCH  21  25
ATOM     25  O   UNL     1      -2.740  12.459  18.532  0.00  0.00    +0.000 OA
ATOM     26  H   UNL     1      -3.282  12.532  19.340  0.00  0.00    +0.000 HD
ENDBRANCH  21  25
BRANCH  22  27
ATOM     27  O   UNL     1      -1.094  10.341  17.500  0.00  0.00    +0.000 OA
ATOM     28  H   UNL     1      -1.388   9.412  17.499  0.00  0.00    +0.000 HD
ENDBRANCH  22  27
ENDBRANCH   3  17
TORSDOF 7
ENDMDL
MODEL 6
REMARK VINA RESULT:      -6.8      2.362      3.410
REMARK  Name = 
REMARK  7 active torsions:
REMARK  status: ('A' for Active; 'I' for Inactive)
REMARK    1  A    between atoms: N_1  and  S_2
REMARK    2  A    between atoms: S_2  and  C_5
REMARK    3  A    between atoms: C_8  and  C_9
REMARK    4  A    between atoms: N_11  and  C_12
REMARK    5  A    between atoms: C_15  and  O_16
REMARK    6  A    between atoms: C_17  and  O_18
REMARK    7  A    between atoms: C_19  and  O_20
REMARK                            x       y       z     vdW  Elec       q    Type
REMARK                         _______ _______ _______ _____ _____    ______ ____
ROOT
ATOM      1  C   UNL     1       1.821   9.021  18.363  0.00  0.00    +0.000 C 
ATOM      2  O   UNL     1       1.905   9.715  17.349  0.00  0.00    +0.000 OA
ATOM      3  N   UNL     1       1.065   9.421  19.451  0.00  0.00    +0.000 N 
ATOM      4  H   UNL     1       1.107   8.948  20.338  0.00  0.00    +0.000 HD
ENDROOT
BRANCH   1   8
ATOM      5  C   UNL     1       3.933   5.272  18.738  0.00  0.00    +0.000 A 
ATOM      6  C   UNL     1       2.998   5.662  19.695  0.00  0.00    +0.000 A 
ATOM      7  C   UNL     1       2.336   6.889  19.550  0.00  0.00    +0.000 A 
ATOM      8  C   UNL     1       2.608   7.743  18.463  0.00  0.00    +0.000 A 
ATOM      9  C   UNL     1       3.568   7.341  17.522  0.00  0.00    +0.000 A 
ATOM     10  C   UNL     1       4.228   6.112  17.659  0.00  0.00    +0.000 A 
BRANCH   5  11
ATOM     11  S   UNL     1       4.831   3.756  18.939  0.00  0.00    +0.000 S 
ATOM     12  O   UNL     1       4.174   2.947  19.940  0.00  0.00    +0.000 OA
ATOM     13  O   UNL     1       6.244   4.048  18.987  0.00  0.00    +0.000 OA
BRANCH  11  14
ATOM     14  N   UNL     1       4.574   2.980  17.471  0.00  0.00    +0.000 NA
ATOM     15  H   UNL     1       5.452   2.566  17.152  0.00  0.00    +0.000 HD
ATOM     16  H   UNL     1       4.174   3.633  16.798  0.00  0.00    +0.000 HD
ENDBRANCH  11  14
ENDBRANCH   5  11
ENDBRANCH   1   8
BRANCH   3  17
ATOM     17  C   UNL     1       0.493  10.740  19.476  0.00  0.00    +0.000 C 
ATOM     18  O   UNL     1       0.500  11.113  20.856  0.00  0.00    +0.000 OA
ATOM     19  C   UNL     1       0.195  12.505  21.029  0.00  0.00    +0.000 C 
ATOM     20  C   UNL     1      -1.210  12.814  20.510  0.00  0.00    +0.000 C 
ATOM     21  C   UNL     1      -1.360  12.350  19.054  0.00  0.00    +0.000 C 
ATOM     22  C   UNL     1      -0.950  10.867  18.908  0.00  0.00    +0.000 C 
BRANCH  20  23
ATOM     23  O   UNL     1      -2.194  12.138  21.312  0.00  0.00    +0.000 OA
ATOM     24  H   UNL     1      -3.069  12.290  20.907  0.00  0.00    +0.000 HD
ENDBRANCH  20  23
BRANCH  21  25
ATOM     25  O   UNL     1      -2.705  12.573  18.619  0.00  0.00    +0.000 OA
ATOM     26  H   UNL     1      -2.767  13.520  18.392  0.00  0.00    +0.000 HD
ENDBRANCH  21  25
BRANCH  22  27
ATOM     27  O   UNL     1      -1.087  10.451  17.549  0.00  0.00    +0.000 OA
ATOM     28  H   UNL     1      -1.884   9.896  17.466  0.00  0.00    +0.000 HD
ENDBRANCH  22  27
ENDBRANCH   3  17
TORSDOF 7
ENDMDL
MODEL 7
REMARK VINA RESULT:      -6.8      3.158      8.322
REMARK  Name = 
REMARK  7 active torsions:
REMARK  status: ('A' for Active; 'I' for Inactive)
REMARK    1  A    between atoms: N_1  and  S_2
REMARK    2  A    between atoms: S_2  and  C_5
REMARK    3  A    between atoms: C_8  and  C_9
REMARK    4  A    between atoms: N_11  and  C_12
REMARK    5  A    between atoms: C_15  and  O_16
REMARK    6  A    between atoms: C_17  and  O_18
REMARK    7  A    between atoms: C_19  and  O_20
REMARK                            x       y       z     vdW  Elec       q    Type
REMARK                         _______ _______ _______ _____ _____    ______ ____
ROOT
ATOM      1  C   UNL     1       2.590   6.836  18.588  0.00  0.00    +0.000 C 
ATOM      2  O   UNL     1       2.127   5.696  18.648  0.00  0.00    +0.000 OA
ATOM      3  N   UNL     1       3.751   7.108  17.884  0.00  0.00    +0.000 N 
ATOM      4  H   UNL     1       4.223   7.994  17.950  0.00  0.00    +0.000 HD
ENDROOT
BRANCH   1   8
ATOM      5  C   UNL     1       0.604  10.096  20.609  0.00  0.00    +0.000 A 
ATOM      6  C   UNL     1       0.949  10.196  19.262  0.00  0.00    +0.000 A 
ATOM      7  C   UNL     1       1.601   9.125  18.637  0.00  0.00    +0.000 A 
ATOM      8  C   UNL     1       1.928   7.953  19.348  0.00  0.00    +0.000 A 
ATOM      9  C   UNL     1       1.591   7.881  20.708  0.00  0.00    +0.000 A 
ATOM     10  C   UNL     1       0.932   8.947  21.336  0.00  0.00    +0.000 A 
BRANCH   5  11
ATOM     11  S   UNL     1      -0.160  11.467  21.435  0.00  0.00    +0.000 S 
ATOM     12  O   UNL     1      -1.477  11.680  20.880  0.00  0.00    +0.000 OA
ATOM     13  O   UNL     1       0.805  12.534  21.568  0.00  0.00    +0.000 OA
BRANCH  11  14
ATOM     14  N   UNL     1      -0.399  10.873  22.988  0.00  0.00    +0.000 NA
ATOM     15  H   UNL     1      -1.286  11.226  23.350  0.00  0.00    +0.000 HD
ATOM     16  H   UNL     1       0.397  11.113  23.579  0.00  0.00    +0.000 HD
ENDBRANCH  11  14
ENDBRANCH   5  11
ENDBRANCH   1   8
BRANCH   3  17
ATOM     17  C   UNL     1       4.528   6.026  17.346  0.00  0.00    +0.000 C 
ATOM     18  O   UNL     1       5.179   5.447  18.479  0.00  0.00    +0.000 OA
ATOM     19  C   UNL     1       5.797   4.194  18.151  0.00  0.00    +0.000 C 
ATOM     20  C   UNL     1       6.883   4.393  17.092  0.00  0.00    +0.000 C 
ATOM     21  C   UNL     1       6.309   5.112  15.862  0.00  0.00    +0.000 C 
ATOM     22  C   UNL     1       5.590   6.416  16.278  0.00  0.00    +0.000 C 
BRANCH  20  23
ATOM     23  O   UNL     1       7.957   5.185  17.628  0.00  0.00    +0.000 OA
ATOM     24  H   UNL     1       8.629   4.575  17.989  0.00  0.00    +0.000 HD
ENDBRANCH  20  23
BRANCH  21  25
ATOM     25  O   UNL     1       7.358   5.362  14.923  0.00  0.00    +0.000 OA
ATOM     26  H   UNL     1       7.714   4.489  14.669  0.00  0.00    +0.000 HD
ENDBRANCH  21  25
BRANCH  22  27
ATOM     27  O   UNL     1       5.055   7.070  15.126  0.00  0.00    +0.000 OA
ATOM     28  H   UNL     1       5.784   7.484  14.630  0.00  0.00    +0.000 HD
ENDBRANCH  22  27
ENDBRANCH   3  17
TORSDOF 7
ENDMDL
MODEL 8
REMARK VINA RESULT:      -6.8      2.940      3.790
REMARK  Name = 
REMARK  7 active torsions:
REMARK  status: ('A' for Active; 'I' for Inactive)
REMARK    1  A    between atoms: N_1  and  S_2
REMARK    2  A    between atoms: S_2  and  C_5
REMARK    3  A    between atoms: C_8  and  C_9
REMARK    4  A    between atoms: N_11  and  C_12
REMARK    5  A    between atoms: C_15  and  O_16
REMARK    6  A    between atoms: C_17  and  O_18
REMARK    7  A    between atoms: C_19  and  O_20
REMARK                            x       y       z     vdW  Elec       q    Type
REMARK                         _______ _______ _______ _____ _____    ______ ____
ROOT
ATOM      1  C   UNL     1       1.891   8.371  18.647  0.00  0.00    +0.000 C 
ATOM      2  O   UNL     1       2.231   8.831  17.557  0.00  0.00    +0.000 OA
ATOM      3  N   UNL     1       1.226   9.145  19.582  0.00  0.00    +0.000 N 
ATOM      4  H   UNL     1       1.078   8.836  20.528  0.00  0.00    +0.000 HD
ENDROOT
BRANCH   1   8
ATOM      5  C   UNL     1       3.112   4.336  19.587  0.00  0.00    +0.000 A 
ATOM      6  C   UNL     1       3.422   4.905  18.353  0.00  0.00    +0.000 A 
ATOM      7  C   UNL     1       3.003   6.213  18.075  0.00  0.00    +0.000 A 
ATOM      8  C   UNL     1       2.262   6.959  19.013  0.00  0.00    +0.000 A 
ATOM      9  C   UNL     1       1.943   6.360  20.241  0.00  0.00    +0.000 A 
ATOM     10  C   UNL     1       2.365   5.054  20.527  0.00  0.00    +0.000 A 
BRANCH   5  11
ATOM     11  S   UNL     1       3.573   2.658  19.932  0.00  0.00    +0.000 S 
ATOM     12  O   UNL     1       2.952   1.788  18.960  0.00  0.00    +0.000 OA
ATOM     13  O   UNL     1       3.475   2.425  21.354  0.00  0.00    +0.000 OA
BRANCH  11  14
ATOM     14  N   UNL     1       5.217   2.650  19.582  0.00  0.00    +0.000 NA
ATOM     15  H   UNL     1       5.640   3.509  19.936  0.00  0.00    +0.000 HD
ATOM     16  H   UNL     1       5.358   2.519  18.580  0.00  0.00    +0.000 HD
ENDBRANCH  11  14
ENDBRANCH   5  11
ENDBRANCH   1   8
BRANCH   3  17
ATOM     17  C   UNL     1       1.065  10.555  19.356  0.00  0.00    +0.000 C 
ATOM     18  O   UNL     1       1.165  11.145  20.654  0.00  0.00    +0.000 OA
ATOM     19  C   UNL     1       1.279  12.574  20.578  0.00  0.00    +0.000 C 
ATOM     20  C   UNL     1       0.032  13.177  19.930  0.00  0.00    +0.000 C 
ATOM     21  C   UNL     1      -0.231  12.529  18.563  0.00  0.00    +0.000 C 
ATOM     22  C   UNL     1      -0.272  10.989  18.687  0.00  0.00    +0.000 C 
BRANCH  20  23
ATOM     23  O   UNL     1      -1.116  12.962  20.770  0.00  0.00    +0.000 OA
ATOM     24  H   UNL     1      -1.366  13.819  21.163  0.00  0.00    +0.000 HD
ENDBRANCH  20  23
BRANCH  21  25
ATOM     25  O   UNL     1      -1.447  13.048  18.015  0.00  0.00    +0.000 OA
ATOM     26  H   UNL     1      -1.669  12.479  17.253  0.00  0.00    +0.000 HD
ENDBRANCH  21  25
BRANCH  22  27
ATOM     27  O   UNL     1      -0.510  10.399  17.408  0.00  0.00    +0.000 OA
ATOM     28  H   UNL     1       0.021  10.868  16.739  0.00  0.00    +0.000 HD
ENDBRANCH  22  27
ENDBRANCH   3  17
TORSDOF 7
ENDMDL
MODEL 9
REMARK VINA RESULT:      -6.7      1.648      2.081
REMARK  Name = 
REMARK  7 active torsions:
REMARK  status: ('A' for Active; 'I' for Inactive)
REMARK    1  A    between atoms: N_1  and  S_2
REMARK    2  A    between atoms: S_2  and  C_5
REMARK    3  A    between atoms: C_8  and  C_9
REMARK    4  A    between atoms: N_11  and  C_12
REMARK    5  A    between atoms: C_15  and  O_16
REMARK    6  A    between atoms: C_17  and  O_18
REMARK    7  A    between atoms: C_19  and  O_20
REMARK                            x       y       z     vdW  Elec       q    Type
REMARK                         _______ _______ _______ _____ _____    ______ ____
ROOT
ATOM      1  C   UNL     1       1.994   8.049  19.168  0.00  0.00    +0.000 C 
ATOM      2  O   UNL     1       1.542   7.870  20.299  0.00  0.00    +0.000 OA
ATOM      3  N   UNL     1       1.458   9.003  18.320  0.00  0.00    +0.000 N 
ATOM      4  H   UNL     1       1.709   9.058  17.347  0.00  0.00    +0.000 HD
ENDROOT
BRANCH   1   8
ATOM      5  C   UNL     1       5.256   5.682  17.616  0.00  0.00    +0.000 A 
ATOM      6  C   UNL     1       4.773   6.781  16.907  0.00  0.00    +0.000 A 
ATOM      7  C   UNL     1       3.707   7.523  17.433  0.00  0.00    +0.000 A 
ATOM      8  C   UNL     1       3.104   7.172  18.657  0.00  0.00    +0.000 A 
ATOM      9  C   UNL     1       3.592   6.049  19.344  0.00  0.00    +0.000 A 
ATOM     10  C   UNL     1       4.663   5.308  18.825  0.00  0.00    +0.000 A 
BRANCH   5  11
ATOM     11  S   UNL     1       6.559   4.689  16.934  0.00  0.00    +0.000 S 
ATOM     12  O   UNL     1       5.984   3.686  16.068  0.00  0.00    +0.000 OA
ATOM     13  O   UNL     1       7.499   4.362  17.981  0.00  0.00    +0.000 OA
BRANCH  11  14
ATOM     14  N   UNL     1       7.356   5.772  15.927  0.00  0.00    +0.000 NA
ATOM     15  H   UNL     1       6.845   5.851  15.046  0.00  0.00    +0.000 HD
ATOM     16  H   UNL     1       8.325   5.479  15.799  0.00  0.00    +0.000 HD
ENDBRANCH  11  14
ENDBRANCH   5  11
ENDBRANCH   1   8
BRANCH   3  17
ATOM     17  C   UNL     1       0.253   9.692  18.692  0.00  0.00    +0.000 C 
ATOM     18  O   UNL     1      -0.493   9.801  17.477  0.00  0.00    +0.000 OA
ATOM     19  C   UNL     1      -1.838  10.240  17.720  0.00  0.00    +0.000 C 
ATOM     20  C   UNL     1      -1.841  11.634  18.349  0.00  0.00    +0.000 C 
ATOM     21  C   UNL     1      -0.972  11.655  19.615  0.00  0.00    +0.000 C 
ATOM     22  C   UNL     1       0.442  11.104  19.317  0.00  0.00    +0.000 C 
BRANCH  20  23
ATOM     23  O   UNL     1      -1.320  12.599  17.419  0.00  0.00    +0.000 OA
ATOM     24  H   UNL     1      -1.726  13.463  17.622  0.00  0.00    +0.000 HD
ENDBRANCH  20  23
BRANCH  21  25
ATOM     25  O   UNL     1      -0.922  12.986  20.138  0.00  0.00    +0.000 OA
ATOM     26  H   UNL     1      -1.227  13.574  19.421  0.00  0.00    +0.000 HD
ENDBRANCH  21  25
BRANCH  22  27
ATOM     27  O   UNL     1       1.236  11.122  20.504  0.00  0.00    +0.000 OA
ATOM     28  H   UNL     1       0.687  11.427  21.248  0.00  0.00    +0.000 HD
ENDBRANCH  22  27
ENDBRANCH   3  17
TORSDOF 7
ENDMDL
