MODEL 1
REMARK VINA RESULT:      -6.6      0.000      0.000
REMARK  Name = 
REMARK  9 active torsions:
REMARK  status: ('A' for Active; 'I' for Inactive)
REMARK    1  A    between atoms: C_1  and  O_2
REMARK    2  A    between atoms: O_2  and  C_3
REMARK    3  A    between atoms: C_5  and  C_6
REMARK    4  A    between atoms: C_7  and  C_8
REMARK    5  A    between atoms: C_8  and  C_9
REMARK    6  A    between atoms: C_9  and  C_10
REMARK    7  A    between atoms: C_9  and  O_11
REMARK    8  A    between atoms: C_13  and  O_14
REMARK    9  A    between atoms: O_14  and  C_15
REMARK                            x       y       z     vdW  Elec       q    Type
REMARK                         _______ _______ _______ _____ _____    ______ ____
ROOT
ATOM      1  C   UNL     1       6.080   4.634  18.516  0.00  0.00    +0.000 A 
ATOM      2  N   UNL     1       5.985   4.229  17.253  0.00  0.00    +0.000 NA
ATOM      3  C   UNL     1       6.674   4.977  16.400  0.00  0.00    +0.000 A 
ATOM      4  N   UNL     1       7.408   6.040  16.695  0.00  0.00    +0.000 NA
ATOM      5  C   UNL     1       7.425   6.337  17.991  0.00  0.00    +0.000 A 
ATOM      6  N   UNL     1       6.780   5.678  18.954  0.00  0.00    +0.000 NA
ENDROOT
BRANCH   1   8
ATOM      7  C   UNL     1       4.110   3.410  18.931  0.00  0.00    +0.000 C 
ATOM      8  O   UNL     1       5.373   3.855  19.408  0.00  0.00    +0.000 OA
ENDBRANCH   1   8
BRANCH   3   9
ATOM      9  C   UNL     1       6.619   4.595  15.017  0.00  0.00    +0.000 C 
ATOM     10  C   UNL     1       6.578   4.245  13.761  0.00  0.00    +0.000 C 
BRANCH  10  11
ATOM     11  C   UNL     1       6.531   3.837  12.298  0.00  0.00    +0.000 C 
BRANCH  11  12
ATOM     12  C   UNL     1       5.455   2.758  12.086  0.00  0.00    +0.000 C 
ATOM     13  C   UNL     1       4.260   3.249  11.273  0.00  0.00    +0.000 C 
BRANCH  12  14
ATOM     14  O   UNL     1       6.012   1.604  11.451  0.00  0.00    +0.000 OA
ATOM     15  H   UNL     1       5.518   1.453  10.622  0.00  0.00    +0.000 HD
ENDBRANCH  12  14
ENDBRANCH  11  12
ENDBRANCH  10  11
ENDBRANCH   3   9
BRANCH   5  16
ATOM     16  O   UNL     1       8.201   7.432  18.307  0.00  0.00    +0.000 OA
ATOM     17  C   UNL     1       7.839   8.631  17.635  0.00  0.00    +0.000 C 
ENDBRANCH   5  16
TORSDOF 6
ENDMDL
MODEL 2
REMARK VINA RESULT:      -6.4      2.323      7.083
REMARK  Name = 
REMARK  9 active torsions:
REMARK  status: ('A' for Active; 'I' for Inactive)
REMARK    1  A    between atoms: C_1  and  O_2
REMARK    2  A    between atoms: O_2  and  C_3
REMARK    3  A    between atoms: C_5  and  C_6
REMARK    4  A    between atoms: C_7  and  C_8
REMARK    5  A    between atoms: C_8  and  C_9
REMARK    6  A    between atoms: C_9  and  C_10
REMARK    7  A    between atoms: C_9  and  O_11
REMARK    8  A    between atoms: C_13  and  O_14
REMARK    9  A    between atoms: O_14  and  C_15
REMARK                            x       y       z     vdW  Elec       q    Type
REMARK                         _______ _______ _______ _____ _____    ______ ____
ROOT
ATOM      1  C   UNL     1       7.015   5.192  16.066  0.00  0.00    +0.000 A 
ATOM      2  N   UNL     1       7.501   6.414  16.266  0.00  0.00    +0.000 NA
ATOM      3  C   UNL     1       7.418   6.822  17.525  0.00  0.00    +0.000 A 
ATOM      4  N   UNL     1       6.914   6.142  18.545  0.00  0.00    +0.000 NA
ATOM      5  C   UNL     1       6.467   4.934  18.216  0.00  0.00    +0.000 A 
ATOM      6  N   UNL     1       6.484   4.399  16.995  0.00  0.00    +0.000 NA
ENDROOT
BRANCH   1   8
ATOM      7  C   UNL     1       6.025   3.945  14.331  0.00  0.00    +0.000 C 
ATOM      8  O   UNL     1       7.108   4.759  14.761  0.00  0.00    +0.000 OA
ENDBRANCH   1   8
BRANCH   3   9
ATOM      9  C   UNL     1       7.927   8.133  17.813  0.00  0.00    +0.000 C 
ATOM     10  C   UNL     1       8.390   9.327  18.065  0.00  0.00    +0.000 C 
BRANCH  10  11
ATOM     11  C   UNL     1       8.929  10.717  18.358  0.00  0.00    +0.000 C 
BRANCH  11  12
ATOM     12  C   UNL     1       9.847  10.678  19.592  0.00  0.00    +0.000 C 
ATOM     13  C   UNL     1      11.055  11.604  19.476  0.00  0.00    +0.000 C 
BRANCH  12  14
ATOM     14  O   UNL     1       9.117  11.006  20.777  0.00  0.00    +0.000 OA
ATOM     15  H   UNL     1       8.441  11.667  20.537  0.00  0.00    +0.000 HD
ENDBRANCH  12  14
ENDBRANCH  11  12
ENDBRANCH  10  11
ENDBRANCH   3   9
BRANCH   5  16
ATOM     16  O   UNL     1       5.956   4.215  19.275  0.00  0.00    +0.000 OA
ATOM     17  C   UNL     1       4.690   3.617  19.032  0.00  0.00    +0.000 C 
ENDBRANCH   5  16
TORSDOF 6
ENDMDL
MODEL 3
REMARK VINA RESULT:      -6.3      2.346      6.590
REMARK  Name = 
REMARK  9 active torsions:
REMARK  status: ('A' for Active; 'I' for Inactive)
REMARK    1  A    between atoms: C_1  and  O_2
REMARK    2  A    between atoms: O_2  and  C_3
REMARK    3  A    between atoms: C_5  and  C_6
REMARK    4  A    between atoms: C_7  and  C_8
REMARK    5  A    between atoms: C_8  and  C_9
REMARK    6  A    between atoms: C_9  and  C_10
REMARK    7  A    between atoms: C_9  and  O_11
REMARK    8  A    between atoms: C_13  and  O_14
REMARK    9  A    between atoms: O_14  and  C_15
REMARK                            x       y       z     vdW  Elec       q    Type
REMARK                         _______ _______ _______ _____ _____    ______ ____
ROOT
ATOM      1  C   UNL     1       6.507   4.934  18.178  0.00  0.00    +0.000 A 
ATOM      2  N   UNL     1       7.044   6.058  18.646  0.00  0.00    +0.000 NA
ATOM      3  C   UNL     1       7.528   6.852  17.701  0.00  0.00    +0.000 A 
ATOM      4  N   UNL     1       7.521   6.623  16.396  0.00  0.00    +0.000 NA
ATOM      5  C   UNL     1       6.954   5.469  16.057  0.00  0.00    +0.000 A 
ATOM      6  N   UNL     1       6.431   4.577  16.898  0.00  0.00    +0.000 NA
ENDROOT
BRANCH   1   8
ATOM      7  C   UNL     1       4.578   3.985  19.140  0.00  0.00    +0.000 C 
ATOM      8  O   UNL     1       5.994   4.109  19.156  0.00  0.00    +0.000 OA
ENDBRANCH   1   8
BRANCH   3   9
ATOM      9  C   UNL     1       8.120   8.086  18.136  0.00  0.00    +0.000 C 
ATOM     10  C   UNL     1       8.659   9.203  18.540  0.00  0.00    +0.000 C 
BRANCH  10  11
ATOM     11  C   UNL     1       9.289  10.503  19.011  0.00  0.00    +0.000 C 
BRANCH  11  12
ATOM     12  C   UNL     1       9.555  11.426  17.809  0.00  0.00    +0.000 C 
ATOM     13  C   UNL     1       9.084  12.860  18.032  0.00  0.00    +0.000 C 
BRANCH  12  14
ATOM     14  O   UNL     1      10.945  11.436  17.476  0.00  0.00    +0.000 OA
ATOM     15  H   UNL     1      11.431  11.807  18.236  0.00  0.00    +0.000 HD
ENDBRANCH  12  14
ENDBRANCH  11  12
ENDBRANCH  10  11
ENDBRANCH   3   9
BRANCH   5  16
ATOM     16  O   UNL     1       6.928   5.232  14.699  0.00  0.00    +0.000 OA
ATOM     17  C   UNL     1       6.202   4.073  14.312  0.00  0.00    +0.000 C 
ENDBRANCH   5  16
TORSDOF 6
ENDMDL
MODEL 4
REMARK VINA RESULT:      -6.3      2.333      6.861
REMARK  Name = 
REMARK  9 active torsions:
REMARK  status: ('A' for Active; 'I' for Inactive)
REMARK    1  A    between atoms: C_1  and  O_2
REMARK    2  A    between atoms: O_2  and  C_3
REMARK    3  A    between atoms: C_5  and  C_6
REMARK    4  A    between atoms: C_7  and  C_8
REMARK    5  A    between atoms: C_8  and  C_9
REMARK    6  A    between atoms: C_9  and  C_10
REMARK    7  A    between atoms: C_9  and  O_11
REMARK    8  A    between atoms: C_13  and  O_14
REMARK    9  A    between atoms: O_14  and  C_15
REMARK                            x       y       z     vdW  Elec       q    Type
REMARK                         _______ _______ _______ _____ _____    ______ ____
ROOT
ATOM      1  C   UNL     1       6.930   5.456  16.046  0.00  0.00    +0.000 A 
ATOM      2  N   UNL     1       7.502   6.607  16.388  0.00  0.00    +0.000 NA
ATOM      3  C   UNL     1       7.516   6.829  17.696  0.00  0.00    +0.000 A 
ATOM      4  N   UNL     1       7.028   6.034  18.637  0.00  0.00    +0.000 NA
ATOM      5  C   UNL     1       6.487   4.914  18.167  0.00  0.00    +0.000 A 
ATOM      6  N   UNL     1       6.402   4.565  16.883  0.00  0.00    +0.000 NA
ENDROOT
BRANCH   1   8
ATOM      7  C   UNL     1       6.151   4.089  14.293  0.00  0.00    +0.000 C 
ATOM      8  O   UNL     1       6.921   5.217  14.689  0.00  0.00    +0.000 OA
ENDBRANCH   1   8
BRANCH   3   9
ATOM      9  C   UNL     1       8.123   8.053  18.136  0.00  0.00    +0.000 C 
ATOM     10  C   UNL     1       8.669   9.171  18.529  0.00  0.00    +0.000 C 
BRANCH  10  11
ATOM     11  C   UNL     1       9.305  10.473  18.986  0.00  0.00    +0.000 C 
BRANCH  11  12
ATOM     12  C   UNL     1       9.570  11.384  17.775  0.00  0.00    +0.000 C 
ATOM     13  C   UNL     1       9.002  12.791  17.942  0.00  0.00    +0.000 C 
BRANCH  12  14
ATOM     14  O   UNL     1      10.971  11.474  17.505  0.00  0.00    +0.000 OA
ATOM     15  H   UNL     1      11.395  10.670  17.860  0.00  0.00    +0.000 HD
ENDBRANCH  12  14
ENDBRANCH  11  12
ENDBRANCH  10  11
ENDBRANCH   3   9
BRANCH   5  16
ATOM     16  O   UNL     1       5.993   4.075  19.142  0.00  0.00    +0.000 OA
ATOM     17  C   UNL     1       4.672   3.605  18.908  0.00  0.00    +0.000 C 
ENDBRANCH   5  16
TORSDOF 6
ENDMDL
MODEL 5
REMARK VINA RESULT:      -6.3      2.388      5.825
REMARK  Name = 
REMARK  9 active torsions:
REMARK  status: ('A' for Active; 'I' for Inactive)
REMARK    1  A    between atoms: C_1  and  O_2
REMARK    2  A    between atoms: O_2  and  C_3
REMARK    3  A    between atoms: C_5  and  C_6
REMARK    4  A    between atoms: C_7  and  C_8
REMARK    5  A    between atoms: C_8  and  C_9
REMARK    6  A    between atoms: C_9  and  C_10
REMARK    7  A    between atoms: C_9  and  O_11
REMARK    8  A    between atoms: C_13  and  O_14
REMARK    9  A    between atoms: O_14  and  C_15
REMARK                            x       y       z     vdW  Elec       q    Type
REMARK                         _______ _______ _______ _____ _____    ______ ____
ROOT
ATOM      1  C   UNL     1       7.227   4.629  17.529  0.00  0.00    +0.000 A 
ATOM      2  N   UNL     1       6.014   4.371  18.011  0.00  0.00    +0.000 NA
ATOM      3  C   UNL     1       5.082   4.251  17.076  0.00  0.00    +0.000 A 
ATOM      4  N   UNL     1       5.256   4.364  15.767  0.00  0.00    +0.000 NA
ATOM      5  C   UNL     1       6.512   4.618  15.413  0.00  0.00    +0.000 A 
ATOM      6  N   UNL     1       7.545   4.767  16.243  0.00  0.00    +0.000 NA
ENDROOT
BRANCH   1   8
ATOM      7  C   UNL     1       7.928   5.718  19.497  0.00  0.00    +0.000 C 
ATOM      8  O   UNL     1       8.202   4.745  18.496  0.00  0.00    +0.000 OA
ENDBRANCH   1   8
BRANCH   3   9
ATOM      9  C   UNL     1       3.748   3.969  17.527  0.00  0.00    +0.000 C 
ATOM     10  C   UNL     1       2.540   3.706  17.943  0.00  0.00    +0.000 C 
BRANCH  10  11
ATOM     11  C   UNL     1       1.134   3.399  18.429  0.00  0.00    +0.000 C 
BRANCH  11  12
ATOM     12  C   UNL     1       0.970   3.849  19.891  0.00  0.00    +0.000 C 
ATOM     13  C   UNL     1       1.381   2.782  20.901  0.00  0.00    +0.000 C 
BRANCH  12  14
ATOM     14  O   UNL     1       1.717   5.043  20.140  0.00  0.00    +0.000 OA
ATOM     15  H   UNL     1       1.804   5.143  21.107  0.00  0.00    +0.000 HD
ENDBRANCH  12  14
ENDBRANCH  11  12
ENDBRANCH  10  11
ENDBRANCH   3   9
BRANCH   5  16
ATOM     16  O   UNL     1       6.703   4.721  14.052  0.00  0.00    +0.000 OA
ATOM     17  C   UNL     1       6.105   3.682  13.288  0.00  0.00    +0.000 C 
ENDBRANCH   5  16
TORSDOF 6
ENDMDL
MODEL 6
REMARK VINA RESULT:      -6.3      2.213      5.507
REMARK  Name = 
REMARK  9 active torsions:
REMARK  status: ('A' for Active; 'I' for Inactive)
REMARK    1  A    between atoms: C_1  and  O_2
REMARK    2  A    between atoms: O_2  and  C_3
REMARK    3  A    between atoms: C_5  and  C_6
REMARK    4  A    between atoms: C_7  and  C_8
REMARK    5  A    between atoms: C_8  and  C_9
REMARK    6  A    between atoms: C_9  and  C_10
REMARK    7  A    between atoms: C_9  and  O_11
REMARK    8  A    between atoms: C_13  and  O_14
REMARK    9  A    between atoms: O_14  and  C_15
REMARK                            x       y       z     vdW  Elec       q    Type
REMARK                         _______ _______ _______ _____ _____    ______ ____
ROOT
ATOM      1  C   UNL     1       7.105   5.817  17.078  0.00  0.00    +0.000 A 
ATOM      2  N   UNL     1       6.136   5.122  17.668  0.00  0.00    +0.000 NA
ATOM      3  C   UNL     1       5.495   4.299  16.848  0.00  0.00    +0.000 A 
ATOM      4  N   UNL     1       5.733   4.127  15.555  0.00  0.00    +0.000 NA
ATOM      5  C   UNL     1       6.727   4.875  15.089  0.00  0.00    +0.000 A 
ATOM      6  N   UNL     1       7.452   5.744  15.795  0.00  0.00    +0.000 NA
ENDROOT
BRANCH   1   8
ATOM      7  C   UNL     1       7.678   8.044  17.590  0.00  0.00    +0.000 C 
ATOM      8  O   UNL     1       7.781   6.666  17.928  0.00  0.00    +0.000 OA
ENDBRANCH   1   8
BRANCH   3   9
ATOM      9  C   UNL     1       4.437   3.515  17.419  0.00  0.00    +0.000 C 
ATOM     10  C   UNL     1       3.476   2.807  17.946  0.00  0.00    +0.000 C 
BRANCH  10  11
ATOM     11  C   UNL     1       2.355   1.985  18.560  0.00  0.00    +0.000 C 
BRANCH  11  12
ATOM     12  C   UNL     1       1.079   2.836  18.677  0.00  0.00    +0.000 C 
ATOM     13  C   UNL     1       0.940   3.535  20.026  0.00  0.00    +0.000 C 
BRANCH  12  14
ATOM     14  O   UNL     1       1.024   3.813  17.635  0.00  0.00    +0.000 OA
ATOM     15  H   UNL     1       0.309   4.440  17.853  0.00  0.00    +0.000 HD
ENDBRANCH  12  14
ENDBRANCH  11  12
ENDBRANCH  10  11
ENDBRANCH   3   9
BRANCH   5  16
ATOM     16  O   UNL     1       6.991   4.689  13.749  0.00  0.00    +0.000 OA
ATOM     17  C   UNL     1       6.188   3.701  13.117  0.00  0.00    +0.000 C 
ENDBRANCH   5  16
TORSDOF 6
ENDMDL
MODEL 7
REMARK VINA RESULT:      -6.3      1.582      3.484
REMARK  Name = 
REMARK  9 active torsions:
REMARK  status: ('A' for Active; 'I' for Inactive)
REMARK    1  A    between atoms: C_1  and  O_2
REMARK    2  A    between atoms: O_2  and  C_3
REMARK    3  A    between atoms: C_5  and  C_6
REMARK    4  A    between atoms: C_7  and  C_8
REMARK    5  A    between atoms: C_8  and  C_9
REMARK    6  A    between atoms: C_9  and  C_10
REMARK    7  A    between atoms: C_9  and  O_11
REMARK    8  A    between atoms: C_13  and  O_14
REMARK    9  A    between atoms: O_14  and  C_15
REMARK                            x       y       z     vdW  Elec       q    Type
REMARK                         _______ _______ _______ _____ _____    ______ ____
ROOT
ATOM      1  C   UNL     1       5.695   4.871  18.962  0.00  0.00    +0.000 A 
ATOM      2  N   UNL     1       6.115   4.748  17.706  0.00  0.00    +0.000 NA
ATOM      3  C   UNL     1       5.192   4.277  16.878  0.00  0.00    +0.000 A 
ATOM      4  N   UNL     1       3.950   3.936  17.190  0.00  0.00    +0.000 NA
ATOM      5  C   UNL     1       3.652   4.110  18.474  0.00  0.00    +0.000 A 
ATOM      6  N   UNL     1       4.479   4.570  19.414  0.00  0.00    +0.000 NA
ENDROOT
BRANCH   1   8
ATOM      7  C   UNL     1       7.857   5.775  19.199  0.00  0.00    +0.000 C 
ATOM      8  O   UNL     1       6.647   5.370  19.825  0.00  0.00    +0.000 OA
ENDBRANCH   1   8
BRANCH   3   9
ATOM      9  C   UNL     1       5.578   4.121  15.504  0.00  0.00    +0.000 C 
ATOM     10  C   UNL     1       5.926   3.970  14.256  0.00  0.00    +0.000 C 
BRANCH  10  11
ATOM     11  C   UNL     1       6.330   3.793  12.802  0.00  0.00    +0.000 C 
BRANCH  11  12
ATOM     12  C   UNL     1       5.487   2.682  12.151  0.00  0.00    +0.000 C 
ATOM     13  C   UNL     1       4.353   3.216  11.281  0.00  0.00    +0.000 C 
BRANCH  12  14
ATOM     14  O   UNL     1       6.310   1.814  11.368  0.00  0.00    +0.000 OA
ATOM     15  H   UNL     1       5.999   0.900  11.511  0.00  0.00    +0.000 HD
ENDBRANCH  12  14
ENDBRANCH  11  12
ENDBRANCH  10  11
ENDBRANCH   3   9
BRANCH   5  16
ATOM     16  O   UNL     1       2.357   3.774  18.803  0.00  0.00    +0.000 OA
ATOM     17  C   UNL     1       2.148   2.391  19.057  0.00  0.00    +0.000 C 
ENDBRANCH   5  16
TORSDOF 6
ENDMDL
MODEL 8
REMARK VINA RESULT:      -6.3      1.564      2.026
REMARK  Name = 
REMARK  9 active torsions:
REMARK  status: ('A' for Active; 'I' for Inactive)
REMARK    1  A    between atoms: C_1  and  O_2
REMARK    2  A    between atoms: O_2  and  C_3
REMARK    3  A    between atoms: C_5  and  C_6
REMARK    4  A    between atoms: C_7  and  C_8
REMARK    5  A    between atoms: C_8  and  C_9
REMARK    6  A    between atoms: C_9  and  C_10
REMARK    7  A    between atoms: C_9  and  O_11
REMARK    8  A    between atoms: C_13  and  O_14
REMARK    9  A    between atoms: O_14  and  C_15
REMARK                            x       y       z     vdW  Elec       q    Type
REMARK                         _______ _______ _______ _____ _____    ______ ____
ROOT
ATOM      1  C   UNL     1       3.687   4.060  18.447  0.00  0.00    +0.000 A 
ATOM      2  N   UNL     1       3.971   3.885  17.159  0.00  0.00    +0.000 NA
ATOM      3  C   UNL     1       5.217   4.208  16.838  0.00  0.00    +0.000 A 
ATOM      4  N   UNL     1       6.151   4.668  17.658  0.00  0.00    +0.000 NA
ATOM      5  C   UNL     1       5.744   4.794  18.918  0.00  0.00    +0.000 A 
ATOM      6  N   UNL     1       4.525   4.512  19.379  0.00  0.00    +0.000 NA
ENDROOT
BRANCH   1   8
ATOM      7  C   UNL     1       2.275   2.472  19.463  0.00  0.00    +0.000 C 
ATOM      8  O   UNL     1       2.397   3.717  18.788  0.00  0.00    +0.000 OA
ENDBRANCH   1   8
BRANCH   3   9
ATOM      9  C   UNL     1       5.592   4.040  15.463  0.00  0.00    +0.000 C 
ATOM     10  C   UNL     1       5.925   3.892  14.210  0.00  0.00    +0.000 C 
BRANCH  10  11
ATOM     11  C   UNL     1       6.312   3.721  12.751  0.00  0.00    +0.000 C 
BRANCH  11  12
ATOM     12  C   UNL     1       5.445   2.630  12.099  0.00  0.00    +0.000 C 
ATOM     13  C   UNL     1       4.326   3.189  11.225  0.00  0.00    +0.000 C 
BRANCH  12  14
ATOM     14  O   UNL     1       6.249   1.741  11.319  0.00  0.00    +0.000 OA
ATOM     15  H   UNL     1       5.649   1.199  10.773  0.00  0.00    +0.000 HD
ENDBRANCH  12  14
ENDBRANCH  11  12
ENDBRANCH  10  11
ENDBRANCH   3   9
BRANCH   5  16
ATOM     16  O   UNL     1       6.715   5.256  19.779  0.00  0.00    +0.000 OA
ATOM     17  C   UNL     1       7.822   5.884  19.146  0.00  0.00    +0.000 C 
ENDBRANCH   5  16
TORSDOF 6
ENDMDL
MODEL 9
REMARK VINA RESULT:      -6.3      2.150      5.781
REMARK  Name = 
REMARK  9 active torsions:
REMARK  status: ('A' for Active; 'I' for Inactive)
REMARK    1  A    between atoms: C_1  and  O_2
REMARK    2  A    between atoms: O_2  and  C_3
REMARK    3  A    between atoms: C_5  and  C_6
REMARK    4  A    between atoms: C_7  and  C_8
REMARK    5  A    between atoms: C_8  and  C_9
REMARK    6  A    between atoms: C_9  and  C_10
REMARK    7  A    between atoms: C_9  and  O_11
REMARK    8  A    between atoms: C_13  and  O_14
REMARK    9  A    between atoms: O_14  and  C_15
REMARK                            x       y       z     vdW  Elec       q    Type
REMARK                         _______ _______ _______ _____ _____    ______ ____
ROOT
ATOM      1  C   UNL     1       6.574   5.532  15.996  0.00  0.00    +0.000 A 
ATOM      2  N   UNL     1       5.745   4.755  16.689  0.00  0.00    +0.000 NA
ATOM      3  C   UNL     1       5.815   4.936  18.001  0.00  0.00    +0.000 A 
ATOM      4  N   UNL     1       6.605   5.786  18.641  0.00  0.00    +0.000 NA
ATOM      5  C   UNL     1       7.380   6.507  17.837  0.00  0.00    +0.000 A 
ATOM      6  N   UNL     1       7.418   6.427  16.506  0.00  0.00    +0.000 NA
ENDROOT
BRANCH   1   8
ATOM      7  C   UNL     1       6.322   4.005  14.220  0.00  0.00    +0.000 C 
ATOM      8  O   UNL     1       6.499   5.355  14.632  0.00  0.00    +0.000 OA
ENDBRANCH   1   8
BRANCH   3   9
ATOM      9  C   UNL     1       4.944   4.131  18.810  0.00  0.00    +0.000 C 
ATOM     10  C   UNL     1       4.160   3.391  19.545  0.00  0.00    +0.000 C 
BRANCH  10  11
ATOM     11  C   UNL     1       3.247   2.531  20.402  0.00  0.00    +0.000 C 
BRANCH  11  12
ATOM     12  C   UNL     1       2.254   3.418  21.171  0.00  0.00    +0.000 C 
ATOM     13  C   UNL     1       1.118   3.949  20.300  0.00  0.00    +0.000 C 
BRANCH  12  14
ATOM     14  O   UNL     1       1.699   2.713  22.284  0.00  0.00    +0.000 OA
ATOM     15  H   UNL     1       1.208   3.356  22.829  0.00  0.00    +0.000 HD
ENDBRANCH  12  14
ENDBRANCH  11  12
ENDBRANCH  10  11
ENDBRANCH   3   9
BRANCH   5  16
ATOM     16  O   UNL     1       8.193   7.405  18.495  0.00  0.00    +0.000 OA
ATOM     17  C   UNL     1       8.171   8.724  17.966  0.00  0.00    +0.000 C 
ENDBRANCH   5  16
TORSDOF 6
ENDMDL
