MODEL 1
REMARK VINA RESULT:      -8.8      0.000      0.000
REMARK  Name = 
REMARK  6 active torsions:
REMARK  status: ('A' for Active; 'I' for Inactive)
REMARK    1  A    between atoms: C_1  and  C_2
REMARK    2  A    between atoms: C_5  and  C_6
REMARK    3  A    between atoms: N_8  and  C_9
REMARK    4  A    between atoms: C_13  and  C_14
REMARK    5  A    between atoms: N_19  and  C_20
REMARK    6  A    between atoms: N_28  and  C_29
REMARK                            x       y       z     vdW  Elec       q    Type
REMARK                         _______ _______ _______ _____ _____    ______ ____
ROOT
ATOM      1  C   UNL     1       2.144   6.918  19.549  0.00  0.00    +0.000 A 
ATOM      2  C   UNL     1       1.754   7.157  20.813  0.00  0.00    +0.000 A 
ATOM      3  C   UNL     1       1.286   8.438  21.177  0.00  0.00    +0.000 A 
ATOM      4  C   UNL     1       0.908   8.972  22.402  0.00  0.00    +0.000 A 
ATOM      5  N   UNL     1       0.619  10.265  22.299  0.00  0.00    +0.000 NA
ATOM      6  N   UNL     1       0.750  10.569  20.970  0.00  0.00    +0.000 N 
ATOM      7  C   UNL     1       1.227   9.460  20.254  0.00  0.00    +0.000 A 
ATOM      8  N   UNL     1       1.668   9.308  18.929  0.00  0.00    +0.000 N 
ATOM      9  C   UNL     1       1.839  10.344  17.929  0.00  0.00    +0.000 C 
ATOM     10  C   UNL     1       2.057   8.018  18.515  0.00  0.00    +0.000 A 
ATOM     11  O   UNL     1       2.349   7.761  17.343  0.00  0.00    +0.000 OA
ENDROOT
BRANCH   1  18
ATOM     12  C   UNL     1       0.904   4.382  20.511  0.00  0.00    +0.000 C 
ATOM     13  C   UNL     1       2.127   4.399  19.631  0.00  0.00    +0.000 A 
ATOM     14  C   UNL     1       2.725   3.183  19.277  0.00  0.00    +0.000 A 
ATOM     15  C   UNL     1       3.869   3.158  18.477  0.00  0.00    +0.000 A 
ATOM     16  C   UNL     1       4.443   4.350  18.025  0.00  0.00    +0.000 A 
ATOM     17  C   UNL     1       3.852   5.572  18.364  0.00  0.00    +0.000 A 
ATOM     18  C   UNL     1       2.703   5.606  19.175  0.00  0.00    +0.000 A 
BRANCH  16  19
ATOM     19  C   UNL     1       5.647   4.261  17.156  0.00  0.00    +0.000 C 
ATOM     20  O   UNL     1       6.756   4.491  17.633  0.00  0.00    +0.000 OA
ATOM     21  N   UNL     1       5.439   3.933  15.829  0.00  0.00    +0.000 N 
ATOM     22  H   UNL     1       4.495   3.904  15.465  0.00  0.00    +0.000 HD
BRANCH  21  23
ATOM     23  C   UNL     1       6.522   3.849  14.898  0.00  0.00    +0.000 C 
ATOM     24  C   UNL     1       6.270   3.847  13.416  0.00  0.00    +0.000 C 
ATOM     25  C   UNL     1       6.910   5.039  14.066  0.00  0.00    +0.000 C 
ENDBRANCH  21  23
ENDBRANCH  16  19
ENDBRANCH   1  18
BRANCH   6  26
ATOM     26  C   UNL     1       0.319  11.849  20.540  0.00  0.00    +0.000 A 
ATOM     27  C   UNL     1       1.076  12.999  20.797  0.00  0.00    +0.000 A 
ATOM     28  C   UNL     1       0.605  14.254  20.395  0.00  0.00    +0.000 A 
ATOM     29  C   UNL     1      -0.595  14.364  19.694  0.00  0.00    +0.000 A 
ATOM     30  C   UNL     1      -1.322  13.217  19.383  0.00  0.00    +0.000 A 
ATOM     31  C   UNL     1      -0.865  11.969  19.802  0.00  0.00    +0.000 A 
ATOM     32  F   UNL     1      -1.642  10.910  19.534  0.00  0.00    +0.000 F 
ENDBRANCH   6  26
TORSDOF 4
ENDMDL
MODEL 2
REMARK VINA RESULT:      -8.8      0.867      1.211
REMARK  Name = 
REMARK  6 active torsions:
REMARK  status: ('A' for Active; 'I' for Inactive)
REMARK    1  A    between atoms: C_1  and  C_2
REMARK    2  A    between atoms: C_5  and  C_6
REMARK    3  A    between atoms: N_8  and  C_9
REMARK    4  A    between atoms: C_13  and  C_14
REMARK    5  A    between atoms: N_19  and  C_20
REMARK    6  A    between atoms: N_28  and  C_29
REMARK                            x       y       z     vdW  Elec       q    Type
REMARK                         _______ _______ _______ _____ _____    ______ ____
ROOT
ATOM      1  C   UNL     1       2.109   6.976  19.597  0.00  0.00    +0.000 A 
ATOM      2  C   UNL     1       1.738   7.221  20.865  0.00  0.00    +0.000 A 
ATOM      3  C   UNL     1       1.273   8.503  21.230  0.00  0.00    +0.000 A 
ATOM      4  C   UNL     1       0.912   9.042  22.458  0.00  0.00    +0.000 A 
ATOM      5  N   UNL     1       0.618  10.334  22.352  0.00  0.00    +0.000 NA
ATOM      6  N   UNL     1       0.727  10.631  21.020  0.00  0.00    +0.000 N 
ATOM      7  C   UNL     1       1.196   9.519  20.303  0.00  0.00    +0.000 A 
ATOM      8  N   UNL     1       1.616   9.361  18.972  0.00  0.00    +0.000 N 
ATOM      9  C   UNL     1       1.768  10.392  17.964  0.00  0.00    +0.000 C 
ATOM     10  C   UNL     1       2.002   8.070  18.559  0.00  0.00    +0.000 A 
ATOM     11  O   UNL     1       2.276   7.808  17.383  0.00  0.00    +0.000 OA
ENDROOT
BRANCH   1  18
ATOM     12  C   UNL     1       0.837   4.440  20.518  0.00  0.00    +0.000 C 
ATOM     13  C   UNL     1       2.074   4.457  19.658  0.00  0.00    +0.000 A 
ATOM     14  C   UNL     1       2.670   3.239  19.303  0.00  0.00    +0.000 A 
ATOM     15  C   UNL     1       3.827   3.213  18.522  0.00  0.00    +0.000 A 
ATOM     16  C   UNL     1       4.416   4.405  18.089  0.00  0.00    +0.000 A 
ATOM     17  C   UNL     1       3.827   5.629  18.429  0.00  0.00    +0.000 A 
ATOM     18  C   UNL     1       2.665   5.663  19.221  0.00  0.00    +0.000 A 
BRANCH  16  19
ATOM     19  C   UNL     1       5.633   4.315  17.239  0.00  0.00    +0.000 C 
ATOM     20  O   UNL     1       6.732   4.563  17.729  0.00  0.00    +0.000 OA
ATOM     21  N   UNL     1       5.447   3.967  15.914  0.00  0.00    +0.000 N 
ATOM     22  H   UNL     1       4.509   3.924  15.537  0.00  0.00    +0.000 HD
BRANCH  21  23
ATOM     23  C   UNL     1       6.545   3.880  15.000  0.00  0.00    +0.000 C 
ATOM     24  C   UNL     1       6.316   3.878  13.515  0.00  0.00    +0.000 C 
ATOM     25  C   UNL     1       6.948   5.069  14.174  0.00  0.00    +0.000 C 
ENDBRANCH  21  23
ENDBRANCH  16  19
ENDBRANCH   1  18
BRANCH   6  26
ATOM     26  C   UNL     1       0.286  11.907  20.590  0.00  0.00    +0.000 A 
ATOM     27  C   UNL     1      -1.047  12.135  20.224  0.00  0.00    +0.000 A 
ATOM     28  C   UNL     1      -1.443  13.396  19.765  0.00  0.00    +0.000 A 
ATOM     29  C   UNL     1      -0.528  14.447  19.714  0.00  0.00    +0.000 A 
ATOM     30  C   UNL     1       0.785  14.241  20.133  0.00  0.00    +0.000 A 
ATOM     31  C   UNL     1       1.186  12.980  20.570  0.00  0.00    +0.000 A 
ATOM     32  F   UNL     1       2.478  12.826  20.895  0.00  0.00    +0.000 F 
ENDBRANCH   6  26
TORSDOF 4
ENDMDL
MODEL 3
REMARK VINA RESULT:      -8.6      3.468      8.359
REMARK  Name = 
REMARK  6 active torsions:
REMARK  status: ('A' for Active; 'I' for Inactive)
REMARK    1  A    between atoms: C_1  and  C_2
REMARK    2  A    between atoms: C_5  and  C_6
REMARK    3  A    between atoms: N_8  and  C_9
REMARK    4  A    between atoms: C_13  and  C_14
REMARK    5  A    between atoms: N_19  and  C_20
REMARK    6  A    between atoms: N_28  and  C_29
REMARK                            x       y       z     vdW  Elec       q    Type
REMARK                         _______ _______ _______ _____ _____    ______ ____
ROOT
ATOM      1  C   UNL     1       1.319   8.680  19.356  0.00  0.00    +0.000 A 
ATOM      2  C   UNL     1       1.344   7.601  20.157  0.00  0.00    +0.000 A 
ATOM      3  C   UNL     1       2.310   6.592  19.951  0.00  0.00    +0.000 A 
ATOM      4  C   UNL     1       2.507   5.360  20.562  0.00  0.00    +0.000 A 
ATOM      5  N   UNL     1       3.493   4.684  19.982  0.00  0.00    +0.000 NA
ATOM      6  N   UNL     1       3.993   5.514  19.014  0.00  0.00    +0.000 N 
ATOM      7  C   UNL     1       3.232   6.690  18.931  0.00  0.00    +0.000 A 
ATOM      8  N   UNL     1       3.236   7.756  18.017  0.00  0.00    +0.000 N 
ATOM      9  C   UNL     1       4.015   7.876  16.800  0.00  0.00    +0.000 C 
ATOM     10  C   UNL     1       2.341   8.820  18.252  0.00  0.00    +0.000 A 
ATOM     11  O   UNL     1       2.350   9.852  17.572  0.00  0.00    +0.000 OA
ENDROOT
BRANCH   1  18
ATOM     12  C   UNL     1       1.055  10.237  21.887  0.00  0.00    +0.000 C 
ATOM     13  C   UNL     1       0.132  10.441  20.713  0.00  0.00    +0.000 A 
ATOM     14  C   UNL     1      -0.909  11.373  20.822  0.00  0.00    +0.000 A 
ATOM     15  C   UNL     1      -1.795  11.579  19.764  0.00  0.00    +0.000 A 
ATOM     16  C   UNL     1      -1.663  10.849  18.578  0.00  0.00    +0.000 A 
ATOM     17  C   UNL     1      -0.623   9.922  18.452  0.00  0.00    +0.000 A 
ATOM     18  C   UNL     1       0.269   9.704  19.516  0.00  0.00    +0.000 A 
BRANCH  16  19
ATOM     19  C   UNL     1      -2.621  11.129  17.475  0.00  0.00    +0.000 C 
ATOM     20  O   UNL     1      -3.680  11.700  17.724  0.00  0.00    +0.000 OA
ATOM     21  N   UNL     1      -2.261  10.703  16.209  0.00  0.00    +0.000 N 
ATOM     22  H   UNL     1      -1.450  10.108  16.096  0.00  0.00    +0.000 HD
BRANCH  21  23
ATOM     23  C   UNL     1      -3.120  10.893  15.082  0.00  0.00    +0.000 C 
ATOM     24  C   UNL     1      -3.008  10.014  13.867  0.00  0.00    +0.000 C 
ATOM     25  C   UNL     1      -4.203   9.898  14.769  0.00  0.00    +0.000 C 
ENDBRANCH  21  23
ENDBRANCH  16  19
ENDBRANCH   1  18
BRANCH   6  26
ATOM     26  C   UNL     1       5.185   5.119  18.356  0.00  0.00    +0.000 A 
ATOM     27  C   UNL     1       6.444   5.351  18.923  0.00  0.00    +0.000 A 
ATOM     28  C   UNL     1       7.604   4.986  18.230  0.00  0.00    +0.000 A 
ATOM     29  C   UNL     1       7.514   4.345  16.996  0.00  0.00    +0.000 A 
ATOM     30  C   UNL     1       6.263   4.059  16.454  0.00  0.00    +0.000 A 
ATOM     31  C   UNL     1       5.108   4.441  17.133  0.00  0.00    +0.000 A 
ATOM     32  F   UNL     1       3.934   4.200  16.531  0.00  0.00    +0.000 F 
ENDBRANCH   6  26
TORSDOF 4
ENDMDL
MODEL 4
REMARK VINA RESULT:      -8.5      3.330      8.997
REMARK  Name = 
REMARK  6 active torsions:
REMARK  status: ('A' for Active; 'I' for Inactive)
REMARK    1  A    between atoms: C_1  and  C_2
REMARK    2  A    between atoms: C_5  and  C_6
REMARK    3  A    between atoms: N_8  and  C_9
REMARK    4  A    between atoms: C_13  and  C_14
REMARK    5  A    between atoms: N_19  and  C_20
REMARK    6  A    between atoms: N_28  and  C_29
REMARK                            x       y       z     vdW  Elec       q    Type
REMARK                         _______ _______ _______ _____ _____    ______ ____
ROOT
ATOM      1  C   UNL     1       0.957   9.104  19.319  0.00  0.00    +0.000 A 
ATOM      2  C   UNL     1       0.923   8.079  20.189  0.00  0.00    +0.000 A 
ATOM      3  C   UNL     1       1.857   7.027  20.076  0.00  0.00    +0.000 A 
ATOM      4  C   UNL     1       1.995   5.833  20.771  0.00  0.00    +0.000 A 
ATOM      5  N   UNL     1       2.971   5.086  20.263  0.00  0.00    +0.000 NA
ATOM      6  N   UNL     1       3.524   5.833  19.258  0.00  0.00    +0.000 N 
ATOM      7  C   UNL     1       2.807   7.026  19.077  0.00  0.00    +0.000 A 
ATOM      8  N   UNL     1       2.873   8.029  18.096  0.00  0.00    +0.000 N 
ATOM      9  C   UNL     1       3.687   8.042  16.896  0.00  0.00    +0.000 C 
ATOM     10  C   UNL     1       2.010   9.136  18.236  0.00  0.00    +0.000 A 
ATOM     11  O   UNL     1       2.074  10.119  17.492  0.00  0.00    +0.000 OA
ENDROOT
BRANCH   1  18
ATOM     12  C   UNL     1       1.265  11.420  21.174  0.00  0.00    +0.000 C 
ATOM     13  C   UNL     1       0.075  11.268  20.263  0.00  0.00    +0.000 A 
ATOM     14  C   UNL     1      -0.942  12.231  20.309  0.00  0.00    +0.000 A 
ATOM     15  C   UNL     1      -2.069  12.117  19.494  0.00  0.00    +0.000 A 
ATOM     16  C   UNL     1      -2.206  11.031  18.623  0.00  0.00    +0.000 A 
ATOM     17  C   UNL     1      -1.194  10.066  18.560  0.00  0.00    +0.000 A 
ATOM     18  C   UNL     1      -0.059  10.171  19.383  0.00  0.00    +0.000 A 
BRANCH  16  19
ATOM     19  C   UNL     1      -3.416  10.976  17.760  0.00  0.00    +0.000 C 
ATOM     20  O   UNL     1      -3.520  10.083  16.921  0.00  0.00    +0.000 OA
ATOM     21  N   UNL     1      -4.365  11.964  17.947  0.00  0.00    +0.000 N 
ATOM     22  H   UNL     1      -4.152  12.753  18.545  0.00  0.00    +0.000 HD
BRANCH  21  23
ATOM     23  C   UNL     1      -5.553  12.023  17.152  0.00  0.00    +0.000 C 
ATOM     24  C   UNL     1      -6.913  12.013  17.792  0.00  0.00    +0.000 C 
ATOM     25  C   UNL     1      -6.403  13.263  17.137  0.00  0.00    +0.000 C 
ENDBRANCH  21  23
ENDBRANCH  16  19
ENDBRANCH   1  18
BRANCH   6  26
ATOM     26  C   UNL     1       4.717   5.355  18.660  0.00  0.00    +0.000 A 
ATOM     27  C   UNL     1       5.969   5.583  19.245  0.00  0.00    +0.000 A 
ATOM     28  C   UNL     1       7.133   5.133  18.609  0.00  0.00    +0.000 A 
ATOM     29  C   UNL     1       7.051   4.415  17.418  0.00  0.00    +0.000 A 
ATOM     30  C   UNL     1       5.805   4.135  16.863  0.00  0.00    +0.000 A 
ATOM     31  C   UNL     1       4.647   4.600  17.482  0.00  0.00    +0.000 A 
ATOM     32  F   UNL     1       3.481   4.358  16.866  0.00  0.00    +0.000 F 
ENDBRANCH   6  26
TORSDOF 4
ENDMDL
MODEL 5
REMARK VINA RESULT:      -8.5      3.473      8.664
REMARK  Name = 
REMARK  6 active torsions:
REMARK  status: ('A' for Active; 'I' for Inactive)
REMARK    1  A    between atoms: C_1  and  C_2
REMARK    2  A    between atoms: C_5  and  C_6
REMARK    3  A    between atoms: N_8  and  C_9
REMARK    4  A    between atoms: C_13  and  C_14
REMARK    5  A    between atoms: N_19  and  C_20
REMARK    6  A    between atoms: N_28  and  C_29
REMARK                            x       y       z     vdW  Elec       q    Type
REMARK                         _______ _______ _______ _____ _____    ______ ____
ROOT
ATOM      1  C   UNL     1       1.269  10.476  19.034  0.00  0.00    +0.000 A 
ATOM      2  C   UNL     1       2.034   9.893  18.095  0.00  0.00    +0.000 A 
ATOM      3  C   UNL     1       2.335   8.517  18.184  0.00  0.00    +0.000 A 
ATOM      4  C   UNL     1       3.150   7.696  17.416  0.00  0.00    +0.000 A 
ATOM      5  N   UNL     1       3.215   6.468  17.921  0.00  0.00    +0.000 NA
ATOM      6  N   UNL     1       2.377   6.468  19.004  0.00  0.00    +0.000 N 
ATOM      7  C   UNL     1       1.861   7.753  19.229  0.00  0.00    +0.000 A 
ATOM      8  N   UNL     1       1.104   8.298  20.279  0.00  0.00    +0.000 N 
ATOM      9  C   UNL     1       0.717   7.652  21.519  0.00  0.00    +0.000 C 
ATOM     10  C   UNL     1       0.715   9.649  20.171  0.00  0.00    +0.000 A 
ATOM     11  O   UNL     1      -0.046  10.183  20.984  0.00  0.00    +0.000 OA
ENDROOT
BRANCH   1  18
ATOM     12  C   UNL     1      -1.343  11.548  18.072  0.00  0.00    +0.000 C 
ATOM     13  C   UNL     1      -0.221  12.444  18.530  0.00  0.00    +0.000 A 
ATOM     14  C   UNL     1      -0.397  13.834  18.473  0.00  0.00    +0.000 A 
ATOM     15  C   UNL     1       0.624  14.697  18.873  0.00  0.00    +0.000 A 
ATOM     16  C   UNL     1       1.845  14.189  19.328  0.00  0.00    +0.000 A 
ATOM     17  C   UNL     1       2.031  12.803  19.398  0.00  0.00    +0.000 A 
ATOM     18  C   UNL     1       1.010  11.927  18.991  0.00  0.00    +0.000 A 
BRANCH  16  19
ATOM     19  C   UNL     1       2.887  15.156  19.763  0.00  0.00    +0.000 C 
ATOM     20  O   UNL     1       2.547  16.222  20.273  0.00  0.00    +0.000 OA
ATOM     21  N   UNL     1       4.205  14.797  19.548  0.00  0.00    +0.000 N 
ATOM     22  H   UNL     1       4.413  13.979  18.989  0.00  0.00    +0.000 HD
BRANCH  21  23
ATOM     23  C   UNL     1       5.286  15.665  19.901  0.00  0.00    +0.000 C 
ATOM     24  C   UNL     1       6.643  15.503  19.276  0.00  0.00    +0.000 C 
ATOM     25  C   UNL     1       5.794  16.690  18.925  0.00  0.00    +0.000 C 
ENDBRANCH  21  23
ENDBRANCH  16  19
ENDBRANCH   1  18
BRANCH   6  26
ATOM     26  C   UNL     1       2.106   5.225  19.629  0.00  0.00    +0.000 A 
ATOM     27  C   UNL     1       2.472   4.982  20.959  0.00  0.00    +0.000 A 
ATOM     28  C   UNL     1       2.227   3.731  21.537  0.00  0.00    +0.000 A 
ATOM     29  C   UNL     1       1.576   2.735  20.811  0.00  0.00    +0.000 A 
ATOM     30  C   UNL     1       1.158   2.991  19.507  0.00  0.00    +0.000 A 
ATOM     31  C   UNL     1       1.419   4.229  18.923  0.00  0.00    +0.000 A 
ATOM     32  F   UNL     1       1.054   4.394  17.644  0.00  0.00    +0.000 F 
ENDBRANCH   6  26
TORSDOF 4
ENDMDL
MODEL 6
REMARK VINA RESULT:      -8.3      3.174      8.624
REMARK  Name = 
REMARK  6 active torsions:
REMARK  status: ('A' for Active; 'I' for Inactive)
REMARK    1  A    between atoms: C_1  and  C_2
REMARK    2  A    between atoms: C_5  and  C_6
REMARK    3  A    between atoms: N_8  and  C_9
REMARK    4  A    between atoms: C_13  and  C_14
REMARK    5  A    between atoms: N_19  and  C_20
REMARK    6  A    between atoms: N_28  and  C_29
REMARK                            x       y       z     vdW  Elec       q    Type
REMARK                         _______ _______ _______ _____ _____    ______ ____
ROOT
ATOM      1  C   UNL     1       1.370   8.400  20.101  0.00  0.00    +0.000 A 
ATOM      2  C   UNL     1       1.422   7.209  20.721  0.00  0.00    +0.000 A 
ATOM      3  C   UNL     1       2.248   6.184  20.212  0.00  0.00    +0.000 A 
ATOM      4  C   UNL     1       2.426   4.861  20.596  0.00  0.00    +0.000 A 
ATOM      5  N   UNL     1       3.245   4.221  19.766  0.00  0.00    +0.000 NA
ATOM      6  N   UNL     1       3.661   5.159  18.859  0.00  0.00    +0.000 N 
ATOM      7  C   UNL     1       3.005   6.381  19.077  0.00  0.00    +0.000 A 
ATOM      8  N   UNL     1       2.963   7.576  18.340  0.00  0.00    +0.000 N 
ATOM      9  C   UNL     1       3.551   7.835  17.040  0.00  0.00    +0.000 C 
ATOM     10  C   UNL     1       2.215   8.646  18.873  0.00  0.00    +0.000 A 
ATOM     11  O   UNL     1       2.212   9.769  18.359  0.00  0.00    +0.000 OA
ENDROOT
BRANCH   1  18
ATOM     12  C   UNL     1       1.393   9.281  22.952  0.00  0.00    +0.000 C 
ATOM     13  C   UNL     1       0.454   9.871  21.931  0.00  0.00    +0.000 A 
ATOM     14  C   UNL     1      -0.465  10.847  22.340  0.00  0.00    +0.000 A 
ATOM     15  C   UNL     1      -1.362  11.407  21.429  0.00  0.00    +0.000 A 
ATOM     16  C   UNL     1      -1.365  10.993  20.093  0.00  0.00    +0.000 A 
ATOM     17  C   UNL     1      -0.447  10.026  19.669  0.00  0.00    +0.000 A 
ATOM     18  C   UNL     1       0.455   9.453  20.582  0.00  0.00    +0.000 A 
BRANCH  16  19
ATOM     19  C   UNL     1      -2.327  11.642  19.162  0.00  0.00    +0.000 C 
ATOM     20  O   UNL     1      -2.941  12.642  19.528  0.00  0.00    +0.000 OA
ATOM     21  N   UNL     1      -2.488  11.057  17.919  0.00  0.00    +0.000 N 
ATOM     22  H   UNL     1      -2.070  10.153  17.736  0.00  0.00    +0.000 HD
BRANCH  21  23
ATOM     23  C   UNL     1      -3.409  11.580  16.958  0.00  0.00    +0.000 C 
ATOM     24  C   UNL     1      -3.955  10.713  15.858  0.00  0.00    +0.000 C 
ATOM     25  C   UNL     1      -4.853  11.161  16.975  0.00  0.00    +0.000 C 
ENDBRANCH  21  23
ENDBRANCH  16  19
ENDBRANCH   1  18
BRANCH   6  26
ATOM     26  C   UNL     1       4.694   4.796  17.960  0.00  0.00    +0.000 A 
ATOM     27  C   UNL     1       4.410   4.240  16.707  0.00  0.00    +0.000 A 
ATOM     28  C   UNL     1       5.453   3.854  15.857  0.00  0.00    +0.000 A 
ATOM     29  C   UNL     1       6.779   4.064  16.230  0.00  0.00    +0.000 A 
ATOM     30  C   UNL     1       7.067   4.670  17.451  0.00  0.00    +0.000 A 
ATOM     31  C   UNL     1       6.030   5.036  18.307  0.00  0.00    +0.000 A 
ATOM     32  F   UNL     1       6.370   5.552  19.497  0.00  0.00    +0.000 F 
ENDBRANCH   6  26
TORSDOF 4
ENDMDL
MODEL 7
REMARK VINA RESULT:      -8.3      3.166      9.039
REMARK  Name = 
REMARK  6 active torsions:
REMARK  status: ('A' for Active; 'I' for Inactive)
REMARK    1  A    between atoms: C_1  and  C_2
REMARK    2  A    between atoms: C_5  and  C_6
REMARK    3  A    between atoms: N_8  and  C_9
REMARK    4  A    between atoms: C_13  and  C_14
REMARK    5  A    between atoms: N_19  and  C_20
REMARK    6  A    between atoms: N_28  and  C_29
REMARK                            x       y       z     vdW  Elec       q    Type
REMARK                         _______ _______ _______ _____ _____    ______ ____
ROOT
ATOM      1  C   UNL     1       1.359   9.641  18.992  0.00  0.00    +0.000 A 
ATOM      2  C   UNL     1       2.181   9.424  17.951  0.00  0.00    +0.000 A 
ATOM      3  C   UNL     1       2.792   8.162  17.784  0.00  0.00    +0.000 A 
ATOM      4  C   UNL     1       3.726   7.700  16.868  0.00  0.00    +0.000 A 
ATOM      5  N   UNL     1       4.098   6.453  17.141  0.00  0.00    +0.000 NA
ATOM      6  N   UNL     1       3.346   6.070  18.220  0.00  0.00    +0.000 N 
ATOM      7  C   UNL     1       2.565   7.141  18.682  0.00  0.00    +0.000 A 
ATOM      8  N   UNL     1       1.766   7.304  19.825  0.00  0.00    +0.000 N 
ATOM      9  C   UNL     1       1.608   6.383  20.934  0.00  0.00    +0.000 C 
ATOM     10  C   UNL     1       1.074   8.524  19.969  0.00  0.00    +0.000 A 
ATOM     11  O   UNL     1       0.260   8.718  20.878  0.00  0.00    +0.000 OA
ENDROOT
BRANCH   1  18
ATOM     12  C   UNL     1      -1.350  10.334  17.952  0.00  0.00    +0.000 C 
ATOM     13  C   UNL     1      -0.505  11.316  18.721  0.00  0.00    +0.000 A 
ATOM     14  C   UNL     1      -0.993  12.613  18.930  0.00  0.00    +0.000 A 
ATOM     15  C   UNL     1      -0.233  13.557  19.623  0.00  0.00    +0.000 A 
ATOM     16  C   UNL     1       1.034  13.225  20.112  0.00  0.00    +0.000 A 
ATOM     17  C   UNL     1       1.531  11.931  19.919  0.00  0.00    +0.000 A 
ATOM     18  C   UNL     1       0.774  10.976  19.215  0.00  0.00    +0.000 A 
BRANCH  16  19
ATOM     19  C   UNL     1       1.787  14.263  20.864  0.00  0.00    +0.000 C 
ATOM     20  O   UNL     1       1.831  14.210  22.091  0.00  0.00    +0.000 OA
ATOM     21  N   UNL     1       2.393  15.260  20.121  0.00  0.00    +0.000 N 
ATOM     22  H   UNL     1       2.194  15.333  19.131  0.00  0.00    +0.000 HD
BRANCH  21  23
ATOM     23  C   UNL     1       3.117  16.325  20.743  0.00  0.00    +0.000 C 
ATOM     24  C   UNL     1       4.128  17.128  19.972  0.00  0.00    +0.000 C 
ATOM     25  C   UNL     1       2.829  17.757  20.386  0.00  0.00    +0.000 C 
ENDBRANCH  21  23
ENDBRANCH  16  19
ENDBRANCH   1  18
BRANCH   6  26
ATOM     26  C   UNL     1       3.401   4.710  18.615  0.00  0.00    +0.000 A 
ATOM     27  C   UNL     1       4.469   4.213  19.372  0.00  0.00    +0.000 A 
ATOM     28  C   UNL     1       4.516   2.856  19.713  0.00  0.00    +0.000 A 
ATOM     29  C   UNL     1       3.479   2.001  19.344  0.00  0.00    +0.000 A 
ATOM     30  C   UNL     1       2.386   2.503  18.641  0.00  0.00    +0.000 A 
ATOM     31  C   UNL     1       2.348   3.849  18.283  0.00  0.00    +0.000 A 
ATOM     32  F   UNL     1       1.304   4.259  17.549  0.00  0.00    +0.000 F 
ENDBRANCH   6  26
TORSDOF 4
ENDMDL
MODEL 8
REMARK VINA RESULT:      -8.3      3.460      9.103
REMARK  Name = 
REMARK  6 active torsions:
REMARK  status: ('A' for Active; 'I' for Inactive)
REMARK    1  A    between atoms: C_1  and  C_2
REMARK    2  A    between atoms: C_5  and  C_6
REMARK    3  A    between atoms: N_8  and  C_9
REMARK    4  A    between atoms: C_13  and  C_14
REMARK    5  A    between atoms: N_19  and  C_20
REMARK    6  A    between atoms: N_28  and  C_29
REMARK                            x       y       z     vdW  Elec       q    Type
REMARK                         _______ _______ _______ _____ _____    ______ ____
ROOT
ATOM      1  C   UNL     1       1.328  10.482  19.007  0.00  0.00    +0.000 A 
ATOM      2  C   UNL     1       2.081   9.894  18.061  0.00  0.00    +0.000 A 
ATOM      3  C   UNL     1       2.370   8.515  18.145  0.00  0.00    +0.000 A 
ATOM      4  C   UNL     1       3.173   7.688  17.370  0.00  0.00    +0.000 A 
ATOM      5  N   UNL     1       3.229   6.458  17.872  0.00  0.00    +0.000 NA
ATOM      6  N   UNL     1       2.397   6.463  18.960  0.00  0.00    +0.000 N 
ATOM      7  C   UNL     1       1.895   7.753  19.191  0.00  0.00    +0.000 A 
ATOM      8  N   UNL     1       1.149   8.302  20.247  0.00  0.00    +0.000 N 
ATOM      9  C   UNL     1       0.764   7.657  21.487  0.00  0.00    +0.000 C 
ATOM     10  C   UNL     1       0.772   9.657  20.144  0.00  0.00    +0.000 A 
ATOM     11  O   UNL     1       0.021  10.196  20.964  0.00  0.00    +0.000 OA
ENDROOT
BRANCH   1  18
ATOM     12  C   UNL     1      -1.283  11.581  18.071  0.00  0.00    +0.000 C 
ATOM     13  C   UNL     1      -0.149  12.465  18.520  0.00  0.00    +0.000 A 
ATOM     14  C   UNL     1      -0.312  13.856  18.467  0.00  0.00    +0.000 A 
ATOM     15  C   UNL     1       0.721  14.709  18.858  0.00  0.00    +0.000 A 
ATOM     16  C   UNL     1       1.941  14.189  19.301  0.00  0.00    +0.000 A 
ATOM     17  C   UNL     1       2.114  12.801  19.367  0.00  0.00    +0.000 A 
ATOM     18  C   UNL     1       1.081  11.935  18.968  0.00  0.00    +0.000 A 
BRANCH  16  19
ATOM     19  C   UNL     1       2.996  15.145  19.729  0.00  0.00    +0.000 C 
ATOM     20  O   UNL     1       4.133  14.734  19.946  0.00  0.00    +0.000 OA
ATOM     21  N   UNL     1       2.620  16.468  19.876  0.00  0.00    +0.000 N 
ATOM     22  H   UNL     1       1.639  16.716  19.829  0.00  0.00    +0.000 HD
BRANCH  21  23
ATOM     23  C   UNL     1       3.547  17.467  20.311  0.00  0.00    +0.000 C 
ATOM     24  C   UNL     1       3.093  18.630  21.149  0.00  0.00    +0.000 C 
ATOM     25  C   UNL     1       3.951  17.558  21.756  0.00  0.00    +0.000 C 
ENDBRANCH  21  23
ENDBRANCH  16  19
ENDBRANCH   1  18
BRANCH   6  26
ATOM     26  C   UNL     1       2.119   5.222  19.584  0.00  0.00    +0.000 A 
ATOM     27  C   UNL     1       2.481   4.976  20.915  0.00  0.00    +0.000 A 
ATOM     28  C   UNL     1       2.229   3.726  21.491  0.00  0.00    +0.000 A 
ATOM     29  C   UNL     1       1.573   2.734  20.763  0.00  0.00    +0.000 A 
ATOM     30  C   UNL     1       1.158   2.994  19.459  0.00  0.00    +0.000 A 
ATOM     31  C   UNL     1       1.428   4.231  18.876  0.00  0.00    +0.000 A 
ATOM     32  F   UNL     1       1.065   4.398  17.597  0.00  0.00    +0.000 F 
ENDBRANCH   6  26
TORSDOF 4
ENDMDL
MODEL 9
REMARK VINA RESULT:      -8.2      1.526      1.837
REMARK  Name = 
REMARK  6 active torsions:
REMARK  status: ('A' for Active; 'I' for Inactive)
REMARK    1  A    between atoms: C_1  and  C_2
REMARK    2  A    between atoms: C_5  and  C_6
REMARK    3  A    between atoms: N_8  and  C_9
REMARK    4  A    between atoms: C_13  and  C_14
REMARK    5  A    between atoms: N_19  and  C_20
REMARK    6  A    between atoms: N_28  and  C_29
REMARK                            x       y       z     vdW  Elec       q    Type
REMARK                         _______ _______ _______ _____ _____    ______ ____
ROOT
ATOM      1  C   UNL     1       1.791   7.852  19.711  0.00  0.00    +0.000 A 
ATOM      2  C   UNL     1       1.472   7.874  21.016  0.00  0.00    +0.000 A 
ATOM      3  C   UNL     1       0.856   9.016  21.573  0.00  0.00    +0.000 A 
ATOM      4  C   UNL     1       0.503   9.335  22.877  0.00  0.00    +0.000 A 
ATOM      5  N   UNL     1       0.025  10.573  22.962  0.00  0.00    +0.000 NA
ATOM      6  N   UNL     1       0.006  11.051  21.679  0.00  0.00    +0.000 N 
ATOM      7  C   UNL     1       0.578  10.121  20.797  0.00  0.00    +0.000 A 
ATOM      8  N   UNL     1       0.930  10.198  19.440  0.00  0.00    +0.000 N 
ATOM      9  C   UNL     1       0.872  11.361  18.575  0.00  0.00    +0.000 C 
ATOM     10  C   UNL     1       1.466   9.041  18.838  0.00  0.00    +0.000 A 
ATOM     11  O   UNL     1       1.698   8.976  17.626  0.00  0.00    +0.000 OA
ENDROOT
BRANCH   1  18
ATOM     12  C   UNL     1       1.348   5.094  20.760  0.00  0.00    +0.000 C 
ATOM     13  C   UNL     1       2.303   5.385  19.630  0.00  0.00    +0.000 A 
ATOM     14  C   UNL     1       3.034   4.329  19.071  0.00  0.00    +0.000 A 
ATOM     15  C   UNL     1       3.940   4.560  18.035  0.00  0.00    +0.000 A 
ATOM     16  C   UNL     1       4.140   5.855  17.544  0.00  0.00    +0.000 A 
ATOM     17  C   UNL     1       3.409   6.918  18.087  0.00  0.00    +0.000 A 
ATOM     18  C   UNL     1       2.500   6.694  19.136  0.00  0.00    +0.000 A 
BRANCH  16  19
ATOM     19  C   UNL     1       5.099   6.037  16.422  0.00  0.00    +0.000 C 
ATOM     20  O   UNL     1       5.815   7.036  16.395  0.00  0.00    +0.000 OA
ATOM     21  N   UNL     1       5.116   5.057  15.446  0.00  0.00    +0.000 N 
ATOM     22  H   UNL     1       4.401   4.341  15.447  0.00  0.00    +0.000 HD
BRANCH  21  23
ATOM     23  C   UNL     1       5.979   5.146  14.309  0.00  0.00    +0.000 C 
ATOM     24  C   UNL     1       7.354   4.540  14.331  0.00  0.00    +0.000 C 
ATOM     25  C   UNL     1       6.279   3.929  13.479  0.00  0.00    +0.000 C 
ENDBRANCH  21  23
ENDBRANCH  16  19
ENDBRANCH   1  18
BRANCH   6  26
ATOM     26  C   UNL     1      -0.636  12.293  21.447  0.00  0.00    +0.000 A 
ATOM     27  C   UNL     1      -2.027  12.383  21.315  0.00  0.00    +0.000 A 
ATOM     28  C   UNL     1      -2.628  13.618  21.045  0.00  0.00    +0.000 A 
ATOM     29  C   UNL     1      -1.854  14.773  20.955  0.00  0.00    +0.000 A 
ATOM     30  C   UNL     1      -0.476  14.699  21.145  0.00  0.00    +0.000 A 
ATOM     31  C   UNL     1       0.127  13.466  21.391  0.00  0.00    +0.000 A 
ATOM     32  F   UNL     1       1.463  13.447  21.497  0.00  0.00    +0.000 F 
ENDBRANCH   6  26
TORSDOF 4
ENDMDL
