MODEL 1
REMARK VINA RESULT:      -8.2      0.000      0.000
REMARK  Name = 
REMARK  3 active torsions:
REMARK  status: ('A' for Active; 'I' for Inactive)
REMARK    1  A    between atoms: C_1  and  C_2
REMARK    2  A    between atoms: C_7  and  C_8
REMARK    3  A    between atoms: N_10  and  C_11
REMARK                            x       y       z     vdW  Elec       q    Type
REMARK                         _______ _______ _______ _____ _____    ______ ____
ROOT
ATOM      1  C   UNL     1       4.985   4.718  17.446  0.00  0.00    +0.000 C 
ATOM      2  O   UNL     1       5.506   4.073  18.354  0.00  0.00    +0.000 OA
ATOM      3  N   UNL     1       3.706   5.250  17.470  0.00  0.00    +0.000 N 
ATOM      4  H   UNL     1       3.305   5.620  16.608  0.00  0.00    +0.000 HD
ENDROOT
BRANCH   3   5
ATOM      5  C   UNL     1       2.802   5.147  18.565  0.00  0.00    +0.000 A 
ATOM      6  C   UNL     1       2.634   6.148  19.532  0.00  0.00    +0.000 A 
ATOM      7  C   UNL     1       1.771   5.982  20.635  0.00  0.00    +0.000 A 
ATOM      8  C   UNL     1       1.034   4.812  20.802  0.00  0.00    +0.000 A 
ATOM      9  C   UNL     1       1.167   3.828  19.841  0.00  0.00    +0.000 A 
ATOM     10  C   UNL     1       2.032   4.005  18.749  0.00  0.00    +0.000 A 
ATOM     11  C   UNL     1       1.963   2.778  17.944  0.00  0.00    +0.000 C 
ATOM     12  O   UNL     1       2.589   2.571  16.927  0.00  0.00    +0.000 OA
ATOM     13  N   UNL     1       1.069   1.933  18.571  0.00  0.00    +0.000 N 
ATOM     14  C   UNL     1       0.515   2.491  19.776  0.00  0.00    +0.000 C 
ATOM     15  H   UNL     1       0.877   1.009  18.214  0.00  0.00    +0.000 HD
ENDBRANCH   3   5
BRANCH   1  22
ATOM     16  C   UNL     1       7.478   6.514  17.103  0.00  0.00    +0.000 C 
ATOM     17  C   UNL     1       6.918   5.630  16.031  0.00  0.00    +0.000 A 
ATOM     18  N   UNL     1       7.650   5.599  14.879  0.00  0.00    +0.000 NA
ATOM     19  C   UNL     1       7.275   4.745  13.900  0.00  0.00    +0.000 A 
ATOM     20  C   UNL     1       6.183   3.908  13.997  0.00  0.00    +0.000 A 
ATOM     21  C   UNL     1       5.429   3.960  15.162  0.00  0.00    +0.000 A 
ATOM     22  C   UNL     1       5.782   4.838  16.202  0.00  0.00    +0.000 A 
ENDBRANCH   1  22
TORSDOF 2
ENDMDL
MODEL 2
REMARK VINA RESULT:      -8.0      1.277      2.418
REMARK  Name = 
REMARK  3 active torsions:
REMARK  status: ('A' for Active; 'I' for Inactive)
REMARK    1  A    between atoms: C_1  and  C_2
REMARK    2  A    between atoms: C_7  and  C_8
REMARK    3  A    between atoms: N_10  and  C_11
REMARK                            x       y       z     vdW  Elec       q    Type
REMARK                         _______ _______ _______ _____ _____    ______ ____
ROOT
ATOM      1  C   UNL     1       4.977   4.329  17.242  0.00  0.00    +0.000 C 
ATOM      2  O   UNL     1       5.629   4.010  18.234  0.00  0.00    +0.000 OA
ATOM      3  N   UNL     1       3.594   4.380  17.169  0.00  0.00    +0.000 N 
ATOM      4  H   UNL     1       3.147   4.490  16.258  0.00  0.00    +0.000 HD
ENDROOT
BRANCH   3   5
ATOM      5  C   UNL     1       2.712   4.086  18.247  0.00  0.00    +0.000 A 
ATOM      6  C   UNL     1       2.125   2.830  18.451  0.00  0.00    +0.000 A 
ATOM      7  C   UNL     1       1.208   2.596  19.497  0.00  0.00    +0.000 A 
ATOM      8  C   UNL     1       0.857   3.610  20.386  0.00  0.00    +0.000 A 
ATOM      9  C   UNL     1       1.450   4.845  20.214  0.00  0.00    +0.000 A 
ATOM     10  C   UNL     1       2.359   5.066  19.167  0.00  0.00    +0.000 A 
ATOM     11  C   UNL     1       2.774   6.473  19.249  0.00  0.00    +0.000 C 
ATOM     12  O   UNL     1       3.549   7.019  18.493  0.00  0.00    +0.000 OA
ATOM     13  N   UNL     1       2.116   7.027  20.328  0.00  0.00    +0.000 N 
ATOM     14  C   UNL     1       1.252   6.095  21.002  0.00  0.00    +0.000 C 
ATOM     15  H   UNL     1       2.222   8.002  20.568  0.00  0.00    +0.000 HD
ENDBRANCH   3   5
BRANCH   1  22
ATOM     16  C   UNL     1       7.345   6.306  17.027  0.00  0.00    +0.000 C 
ATOM     17  C   UNL     1       6.844   5.460  15.897  0.00  0.00    +0.000 A 
ATOM     18  N   UNL     1       7.575   5.555  14.747  0.00  0.00    +0.000 NA
ATOM     19  C   UNL     1       7.256   4.745  13.713  0.00  0.00    +0.000 A 
ATOM     20  C   UNL     1       6.223   3.833  13.749  0.00  0.00    +0.000 A 
ATOM     21  C   UNL     1       5.468   3.757  14.913  0.00  0.00    +0.000 A 
ATOM     22  C   UNL     1       5.763   4.585  16.011  0.00  0.00    +0.000 A 
ENDBRANCH   1  22
TORSDOF 2
ENDMDL
MODEL 3
REMARK VINA RESULT:      -7.3      1.750      2.604
REMARK  Name = 
REMARK  3 active torsions:
REMARK  status: ('A' for Active; 'I' for Inactive)
REMARK    1  A    between atoms: C_1  and  C_2
REMARK    2  A    between atoms: C_7  and  C_8
REMARK    3  A    between atoms: N_10  and  C_11
REMARK                            x       y       z     vdW  Elec       q    Type
REMARK                         _______ _______ _______ _____ _____    ______ ____
ROOT
ATOM      1  C   UNL     1       4.594   4.122  16.840  0.00  0.00    +0.000 C 
ATOM      2  O   UNL     1       3.492   3.772  16.422  0.00  0.00    +0.000 OA
ATOM      3  N   UNL     1       4.937   4.274  18.174  0.00  0.00    +0.000 N 
ATOM      4  H   UNL     1       5.818   4.730  18.412  0.00  0.00    +0.000 HD
ENDROOT
BRANCH   3   5
ATOM      5  C   UNL     1       4.065   4.027  19.272  0.00  0.00    +0.000 A 
ATOM      6  C   UNL     1       3.974   2.793  19.931  0.00  0.00    +0.000 A 
ATOM      7  C   UNL     1       3.054   2.572  20.976  0.00  0.00    +0.000 A 
ATOM      8  C   UNL     1       2.200   3.584  21.409  0.00  0.00    +0.000 A 
ATOM      9  C   UNL     1       2.298   4.814  20.788  0.00  0.00    +0.000 A 
ATOM     10  C   UNL     1       3.217   5.021  19.746  0.00  0.00    +0.000 A 
ATOM     11  C   UNL     1       3.046   6.407  19.292  0.00  0.00    +0.000 C 
ATOM     12  O   UNL     1       3.670   6.932  18.394  0.00  0.00    +0.000 OA
ATOM     13  N   UNL     1       2.055   6.969  20.071  0.00  0.00    +0.000 N 
ATOM     14  C   UNL     1       1.511   6.054  21.039  0.00  0.00    +0.000 C 
ATOM     15  H   UNL     1       1.741   7.917  19.924  0.00  0.00    +0.000 HD
ENDBRANCH   3   5
BRANCH   1  22
ATOM     16  C   UNL     1       7.047   5.945  17.305  0.00  0.00    +0.000 C 
ATOM     17  C   UNL     1       6.708   5.302  15.996  0.00  0.00    +0.000 A 
ATOM     18  N   UNL     1       7.626   5.507  15.007  0.00  0.00    +0.000 NA
ATOM     19  C   UNL     1       7.452   4.873  13.825  0.00  0.00    +0.000 A 
ATOM     20  C   UNL     1       6.389   4.036  13.559  0.00  0.00    +0.000 A 
ATOM     21  C   UNL     1       5.446   3.849  14.562  0.00  0.00    +0.000 A 
ATOM     22  C   UNL     1       5.587   4.494  15.804  0.00  0.00    +0.000 A 
ENDBRANCH   1  22
TORSDOF 2
ENDMDL
MODEL 4
REMARK VINA RESULT:      -7.1      3.723      5.601
REMARK  Name = 
REMARK  3 active torsions:
REMARK  status: ('A' for Active; 'I' for Inactive)
REMARK    1  A    between atoms: C_1  and  C_2
REMARK    2  A    between atoms: C_7  and  C_8
REMARK    3  A    between atoms: N_10  and  C_11
REMARK                            x       y       z     vdW  Elec       q    Type
REMARK                         _______ _______ _______ _____ _____    ______ ____
ROOT
ATOM      1  C   UNL     1       2.292   6.125  19.963  0.00  0.00    +0.000 C 
ATOM      2  O   UNL     1       1.466   5.524  20.648  0.00  0.00    +0.000 OA
ATOM      3  N   UNL     1       2.357   7.500  19.805  0.00  0.00    +0.000 N 
ATOM      4  H   UNL     1       2.967   7.889  19.086  0.00  0.00    +0.000 HD
ENDROOT
BRANCH   3   5
ATOM      5  C   UNL     1       1.484   8.433  20.432  0.00  0.00    +0.000 A 
ATOM      6  C   UNL     1       1.152   8.394  21.793  0.00  0.00    +0.000 A 
ATOM      7  C   UNL     1       0.236   9.302  22.363  0.00  0.00    +0.000 A 
ATOM      8  C   UNL     1      -0.370  10.292  21.592  0.00  0.00    +0.000 A 
ATOM      9  C   UNL     1      -0.030  10.361  20.256  0.00  0.00    +0.000 A 
ATOM     10  C   UNL     1       0.881   9.449  19.699  0.00  0.00    +0.000 A 
ATOM     11  C   UNL     1       0.997   9.775  18.272  0.00  0.00    +0.000 C 
ATOM     12  O   UNL     1       1.693   9.185  17.473  0.00  0.00    +0.000 OA
ATOM     13  N   UNL     1       0.171  10.855  18.035  0.00  0.00    +0.000 N 
ATOM     14  C   UNL     1      -0.527  11.300  19.211  0.00  0.00    +0.000 C 
ATOM     15  H   UNL     1       0.062  11.243  17.110  0.00  0.00    +0.000 HD
ENDBRANCH   3   5
BRANCH   1  22
ATOM     16  C   UNL     1       1.469   4.291  17.614  0.00  0.00    +0.000 C 
ATOM     17  C   UNL     1       2.873   4.452  18.109  0.00  0.00    +0.000 A 
ATOM     18  N   UNL     1       3.814   3.782  17.380  0.00  0.00    +0.000 NA
ATOM     19  C   UNL     1       5.118   3.960  17.694  0.00  0.00    +0.000 A 
ATOM     20  C   UNL     1       5.551   4.774  18.719  0.00  0.00    +0.000 A 
ATOM     21  C   UNL     1       4.588   5.435  19.471  0.00  0.00    +0.000 A 
ATOM     22  C   UNL     1       3.221   5.274  19.182  0.00  0.00    +0.000 A 
ENDBRANCH   1  22
TORSDOF 2
ENDMDL
MODEL 5
REMARK VINA RESULT:      -7.1      1.804      2.188
REMARK  Name = 
REMARK  3 active torsions:
REMARK  status: ('A' for Active; 'I' for Inactive)
REMARK    1  A    between atoms: C_1  and  C_2
REMARK    2  A    between atoms: C_7  and  C_8
REMARK    3  A    between atoms: N_10  and  C_11
REMARK                            x       y       z     vdW  Elec       q    Type
REMARK                         _______ _______ _______ _____ _____    ______ ____
ROOT
ATOM      1  C   UNL     1       4.288   4.881  16.845  0.00  0.00    +0.000 C 
ATOM      2  O   UNL     1       4.007   5.920  17.438  0.00  0.00    +0.000 OA
ATOM      3  N   UNL     1       3.722   3.639  17.085  0.00  0.00    +0.000 N 
ATOM      4  H   UNL     1       4.142   2.810  16.662  0.00  0.00    +0.000 HD
ENDROOT
BRANCH   3   5
ATOM      5  C   UNL     1       2.708   3.380  18.050  0.00  0.00    +0.000 A 
ATOM      6  C   UNL     1       1.339   3.558  17.805  0.00  0.00    +0.000 A 
ATOM      7  C   UNL     1       0.369   3.348  18.807  0.00  0.00    +0.000 A 
ATOM      8  C   UNL     1       0.734   2.937  20.087  0.00  0.00    +0.000 A 
ATOM      9  C   UNL     1       2.077   2.730  20.334  0.00  0.00    +0.000 A 
ATOM     10  C   UNL     1       3.034   2.946  19.329  0.00  0.00    +0.000 A 
ATOM     11  C   UNL     1       4.349   2.667  19.921  0.00  0.00    +0.000 C 
ATOM     12  O   UNL     1       5.411   2.761  19.343  0.00  0.00    +0.000 OA
ATOM     13  N   UNL     1       4.132   2.295  21.232  0.00  0.00    +0.000 N 
ATOM     14  C   UNL     1       2.741   2.306  21.599  0.00  0.00    +0.000 C 
ATOM     15  H   UNL     1       4.897   2.080  21.853  0.00  0.00    +0.000 HD
ENDBRANCH   3   5
BRANCH   1  22
ATOM     16  C   UNL     1       7.015   6.239  17.371  0.00  0.00    +0.000 C 
ATOM     17  C   UNL     1       6.636   5.574  16.084  0.00  0.00    +0.000 A 
ATOM     18  N   UNL     1       7.634   5.527  15.152  0.00  0.00    +0.000 NA
ATOM     19  C   UNL     1       7.410   4.850  14.003  0.00  0.00    +0.000 A 
ATOM     20  C   UNL     1       6.223   4.211  13.714  0.00  0.00    +0.000 A 
ATOM     21  C   UNL     1       5.205   4.281  14.656  0.00  0.00    +0.000 A 
ATOM     22  C   UNL     1       5.394   4.980  15.862  0.00  0.00    +0.000 A 
ENDBRANCH   1  22
TORSDOF 2
ENDMDL
MODEL 6
REMARK VINA RESULT:      -7.0      1.236      1.248
REMARK  Name = 
REMARK  3 active torsions:
REMARK  status: ('A' for Active; 'I' for Inactive)
REMARK    1  A    between atoms: C_1  and  C_2
REMARK    2  A    between atoms: C_7  and  C_8
REMARK    3  A    between atoms: N_10  and  C_11
REMARK                            x       y       z     vdW  Elec       q    Type
REMARK                         _______ _______ _______ _____ _____    ______ ____
ROOT
ATOM      1  C   UNL     1       4.449   5.877  16.832  0.00  0.00    +0.000 C 
ATOM      2  O   UNL     1       4.081   7.050  16.799  0.00  0.00    +0.000 OA
ATOM      3  N   UNL     1       4.048   4.934  17.765  0.00  0.00    +0.000 N 
ATOM      4  H   UNL     1       4.537   4.040  17.811  0.00  0.00    +0.000 HD
ENDROOT
BRANCH   3   5
ATOM      5  C   UNL     1       3.127   5.177  18.823  0.00  0.00    +0.000 A 
ATOM      6  C   UNL     1       2.806   6.458  19.296  0.00  0.00    +0.000 A 
ATOM      7  C   UNL     1       1.934   6.652  20.387  0.00  0.00    +0.000 A 
ATOM      8  C   UNL     1       1.339   5.572  21.034  0.00  0.00    +0.000 A 
ATOM      9  C   UNL     1       1.624   4.306  20.561  0.00  0.00    +0.000 A 
ATOM     10  C   UNL     1       2.496   4.124  19.476  0.00  0.00    +0.000 A 
ATOM     11  C   UNL     1       2.604   2.677  19.248  0.00  0.00    +0.000 C 
ATOM     12  O   UNL     1       3.284   2.152  18.393  0.00  0.00    +0.000 OA
ATOM     13  N   UNL     1       1.800   2.060  20.184  0.00  0.00    +0.000 N 
ATOM     14  C   UNL     1       1.142   2.989  21.064  0.00  0.00    +0.000 C 
ATOM     15  H   UNL     1       1.733   1.055  20.242  0.00  0.00    +0.000 HD
ENDBRANCH   3   5
BRANCH   1  22
ATOM     16  C   UNL     1       7.460   6.550  17.042  0.00  0.00    +0.000 C 
ATOM     17  C   UNL     1       6.842   5.777  15.917  0.00  0.00    +0.000 A 
ATOM     18  N   UNL     1       7.733   5.296  15.001  0.00  0.00    +0.000 NA
ATOM     19  C   UNL     1       7.271   4.497  14.012  0.00  0.00    +0.000 A 
ATOM     20  C   UNL     1       5.945   4.147  13.872  0.00  0.00    +0.000 A 
ATOM     21  C   UNL     1       5.040   4.657  14.794  0.00  0.00    +0.000 A 
ATOM     22  C   UNL     1       5.478   5.497  15.834  0.00  0.00    +0.000 A 
ENDBRANCH   1  22
TORSDOF 2
ENDMDL
MODEL 7
REMARK VINA RESULT:      -6.9      3.559      5.745
REMARK  Name = 
REMARK  3 active torsions:
REMARK  status: ('A' for Active; 'I' for Inactive)
REMARK    1  A    between atoms: C_1  and  C_2
REMARK    2  A    between atoms: C_7  and  C_8
REMARK    3  A    between atoms: N_10  and  C_11
REMARK                            x       y       z     vdW  Elec       q    Type
REMARK                         _______ _______ _______ _____ _____    ______ ____
ROOT
ATOM      1  C   UNL     1       1.836   5.683  20.114  0.00  0.00    +0.000 C 
ATOM      2  O   UNL     1       0.733   5.352  20.546  0.00  0.00    +0.000 OA
ATOM      3  N   UNL     1       2.326   6.979  20.071  0.00  0.00    +0.000 N 
ATOM      4  H   UNL     1       3.177   7.172  19.541  0.00  0.00    +0.000 HD
ENDROOT
BRANCH   3   5
ATOM      5  C   UNL     1       1.630   8.128  20.541  0.00  0.00    +0.000 A 
ATOM      6  C   UNL     1       1.259   8.319  21.879  0.00  0.00    +0.000 A 
ATOM      7  C   UNL     1       0.517   9.445  22.294  0.00  0.00    +0.000 A 
ATOM      8  C   UNL     1       0.133  10.428  21.385  0.00  0.00    +0.000 A 
ATOM      9  C   UNL     1       0.516  10.267  20.068  0.00  0.00    +0.000 A 
ATOM     10  C   UNL     1       1.252   9.140  19.667  0.00  0.00    +0.000 A 
ATOM     11  C   UNL     1       1.467   9.261  18.219  0.00  0.00    +0.000 C 
ATOM     12  O   UNL     1       2.059   8.458  17.529  0.00  0.00    +0.000 OA
ATOM     13  N   UNL     1       0.869  10.439  17.818  0.00  0.00    +0.000 N 
ATOM     14  C   UNL     1       0.236  11.147  18.898  0.00  0.00    +0.000 C 
ATOM     15  H   UNL     1       0.862  10.724  16.850  0.00  0.00    +0.000 HD
ENDBRANCH   3   5
BRANCH   1  22
ATOM     16  C   UNL     1       2.504   2.997  21.491  0.00  0.00    +0.000 C 
ATOM     17  C   UNL     1       2.945   3.372  20.109  0.00  0.00    +0.000 A 
ATOM     18  N   UNL     1       3.612   2.387  19.438  0.00  0.00    +0.000 NA
ATOM     19  C   UNL     1       3.951   2.605  18.147  0.00  0.00    +0.000 A 
ATOM     20  C   UNL     1       3.670   3.774  17.472  0.00  0.00    +0.000 A 
ATOM     21  C   UNL     1       3.011   4.780  18.167  0.00  0.00    +0.000 A 
ATOM     22  C   UNL     1       2.645   4.597  19.512  0.00  0.00    +0.000 A 
ENDBRANCH   1  22
TORSDOF 2
ENDMDL
MODEL 8
REMARK VINA RESULT:      -6.8      3.455      6.606
REMARK  Name = 
REMARK  3 active torsions:
REMARK  status: ('A' for Active; 'I' for Inactive)
REMARK    1  A    between atoms: C_1  and  C_2
REMARK    2  A    between atoms: C_7  and  C_8
REMARK    3  A    between atoms: N_10  and  C_11
REMARK                            x       y       z     vdW  Elec       q    Type
REMARK                         _______ _______ _______ _____ _____    ______ ____
ROOT
ATOM      1  C   UNL     1       1.851   8.177  19.269  0.00  0.00    +0.000 C 
ATOM      2  O   UNL     1       2.011   8.704  18.170  0.00  0.00    +0.000 OA
ATOM      3  N   UNL     1       2.232   6.887  19.606  0.00  0.00    +0.000 N 
ATOM      4  H   UNL     1       1.904   6.485  20.484  0.00  0.00    +0.000 HD
ENDROOT
BRANCH   3   5
ATOM      5  C   UNL     1       2.887   5.977  18.729  0.00  0.00    +0.000 A 
ATOM      6  C   UNL     1       3.938   6.341  17.875  0.00  0.00    +0.000 A 
ATOM      7  C   UNL     1       4.521   5.423  16.978  0.00  0.00    +0.000 A 
ATOM      8  C   UNL     1       4.082   4.102  16.914  0.00  0.00    +0.000 A 
ATOM      9  C   UNL     1       3.067   3.722  17.769  0.00  0.00    +0.000 A 
ATOM     10  C   UNL     1       2.492   4.647  18.656  0.00  0.00    +0.000 A 
ATOM     11  C   UNL     1       1.437   3.938  19.391  0.00  0.00    +0.000 C 
ATOM     12  O   UNL     1       0.720   4.430  20.237  0.00  0.00    +0.000 OA
ATOM     13  N   UNL     1       1.426   2.637  18.929  0.00  0.00    +0.000 N 
ATOM     14  C   UNL     1       2.405   2.394  17.904  0.00  0.00    +0.000 C 
ATOM     15  H   UNL     1       0.759   1.961  19.271  0.00  0.00    +0.000 HD
ENDBRANCH   3   5
BRANCH   1  22
ATOM     16  C   UNL     1      -0.344  10.247  18.595  0.00  0.00    +0.000 C 
ATOM     17  C   UNL     1       0.100   9.907  19.984  0.00  0.00    +0.000 A 
ATOM     18  N   UNL     1      -0.608  10.527  20.975  0.00  0.00    +0.000 NA
ATOM     19  C   UNL     1      -0.343  10.194  22.259  0.00  0.00    +0.000 A 
ATOM     20  C   UNL     1       0.612   9.269  22.625  0.00  0.00    +0.000 A 
ATOM     21  C   UNL     1       1.343   8.659  21.614  0.00  0.00    +0.000 A 
ATOM     22  C   UNL     1       1.104   8.980  20.266  0.00  0.00    +0.000 A 
ENDBRANCH   1  22
TORSDOF 2
ENDMDL
MODEL 9
REMARK VINA RESULT:      -6.8      2.146      2.754
REMARK  Name = 
REMARK  3 active torsions:
REMARK  status: ('A' for Active; 'I' for Inactive)
REMARK    1  A    between atoms: C_1  and  C_2
REMARK    2  A    between atoms: C_7  and  C_8
REMARK    3  A    between atoms: N_10  and  C_11
REMARK                            x       y       z     vdW  Elec       q    Type
REMARK                         _______ _______ _______ _____ _____    ______ ____
ROOT
ATOM      1  C   UNL     1       5.423   5.021  19.085  0.00  0.00    +0.000 C 
ATOM      2  O   UNL     1       5.937   3.931  19.328  0.00  0.00    +0.000 OA
ATOM      3  N   UNL     1       4.094   5.350  19.303  0.00  0.00    +0.000 N 
ATOM      4  H   UNL     1       3.727   6.218  18.912  0.00  0.00    +0.000 HD
ENDROOT
BRANCH   3   5
ATOM      5  C   UNL     1       3.121   4.475  19.862  0.00  0.00    +0.000 A 
ATOM      6  C   UNL     1       2.642   4.583  21.176  0.00  0.00    +0.000 A 
ATOM      7  C   UNL     1       1.721   3.660  21.711  0.00  0.00    +0.000 A 
ATOM      8  C   UNL     1       1.235   2.602  20.946  0.00  0.00    +0.000 A 
ATOM      9  C   UNL     1       1.676   2.499  19.641  0.00  0.00    +0.000 A 
ATOM     10  C   UNL     1       2.596   3.424  19.120  0.00  0.00    +0.000 A 
ATOM     11  C   UNL     1       2.875   3.018  17.736  0.00  0.00    +0.000 C 
ATOM     12  O   UNL     1       3.636   3.584  16.980  0.00  0.00    +0.000 OA
ATOM     13  N   UNL     1       2.119   1.892  17.485  0.00  0.00    +0.000 N 
ATOM     14  C   UNL     1       1.333   1.475  18.616  0.00  0.00    +0.000 C 
ATOM     15  H   UNL     1       2.166   1.411  16.599  0.00  0.00    +0.000 HD
ENDBRANCH   3   5
BRANCH   1  22
ATOM     16  C   UNL     1       4.662   6.666  16.580  0.00  0.00    +0.000 C 
ATOM     17  C   UNL     1       5.972   6.776  17.299  0.00  0.00    +0.000 A 
ATOM     18  N   UNL     1       6.807   7.742  16.815  0.00  0.00    +0.000 NA
ATOM     19  C   UNL     1       7.964   7.981  17.472  0.00  0.00    +0.000 A 
ATOM     20  C   UNL     1       8.355   7.293  18.602  0.00  0.00    +0.000 A 
ATOM     21  C   UNL     1       7.512   6.297  19.076  0.00  0.00    +0.000 A 
ATOM     22  C   UNL     1       6.301   6.013  18.419  0.00  0.00    +0.000 A 
ENDBRANCH   1  22
TORSDOF 2
ENDMDL
