MODEL 1
REMARK VINA RESULT:      -5.1      0.000      0.000
REMARK  Name = 
REMARK  1 active torsions:
REMARK  status: ('A' for Active; 'I' for Inactive)
REMARK    1  A    between atoms: N_1  and  C_2
REMARK                            x       y       z     vdW  Elec       q    Type
REMARK                         _______ _______ _______ _____ _____    ______ ____
ROOT
ATOM      1  C   UNL     1       6.571   4.531  17.480  0.00  0.00    +0.000 A 
ATOM      2  C   UNL     1       5.969   4.980  18.661  0.00  0.00    +0.000 A 
ATOM      3  F   UNL     1       6.740   5.405  19.675  0.00  0.00    +0.000 F 
ATOM      4  C   UNL     1       4.584   5.014  18.814  0.00  0.00    +0.000 A 
ATOM      5  C   UNL     1       3.775   4.558  17.778  0.00  0.00    +0.000 A 
ATOM      6 BR   UNL     1       1.896   4.582  17.977  0.00  0.00    +0.000 Br
ATOM      7  C   UNL     1       4.339   4.067  16.604  0.00  0.00    +0.000 A 
ATOM      8  C   UNL     1       5.727   4.044  16.475  0.00  0.00    +0.000 A 
ATOM      9  F   UNL     1       6.260   3.552  15.346  0.00  0.00    +0.000 F 
ENDROOT
BRANCH   1  10
ATOM     10  N   UNL     1       7.966   4.361  17.398  0.00  0.00    +0.000 N 
ATOM     11  H   UNL     1       8.415   4.259  18.305  0.00  0.00    +0.000 HD
ATOM     12  H   UNL     1       8.421   5.037  16.789  0.00  0.00    +0.000 HD
ENDBRANCH   1  10
TORSDOF 1
ENDMDL
MODEL 2
REMARK VINA RESULT:      -5.1      2.032      2.194
REMARK  Name = 
REMARK  1 active torsions:
REMARK  status: ('A' for Active; 'I' for Inactive)
REMARK    1  A    between atoms: N_1  and  C_2
REMARK                            x       y       z     vdW  Elec       q    Type
REMARK                         _______ _______ _______ _____ _____    ______ ____
ROOT
ATOM      1  C   UNL     1       6.643   5.484  16.240  0.00  0.00    +0.000 A 
ATOM      2  C   UNL     1       6.923   4.796  17.426  0.00  0.00    +0.000 A 
ATOM      3  F   UNL     1       8.122   4.211  17.583  0.00  0.00    +0.000 F 
ATOM      4  C   UNL     1       5.997   4.710  18.464  0.00  0.00    +0.000 A 
ATOM      5  C   UNL     1       4.744   5.295  18.307  0.00  0.00    +0.000 A 
ATOM      6 BR   UNL     1       3.471   5.173  19.698  0.00  0.00    +0.000 Br
ATOM      7  C   UNL     1       4.416   5.955  17.126  0.00  0.00    +0.000 A 
ATOM      8  C   UNL     1       5.359   6.027  16.103  0.00  0.00    +0.000 A 
ATOM      9  F   UNL     1       5.025   6.649  14.961  0.00  0.00    +0.000 F 
ENDROOT
BRANCH   1  10
ATOM     10  N   UNL     1       7.528   5.433  15.147  0.00  0.00    +0.000 N 
ATOM     11  H   UNL     1       7.057   5.339  14.250  0.00  0.00    +0.000 HD
ATOM     12  H   UNL     1       8.294   4.778  15.278  0.00  0.00    +0.000 HD
ENDBRANCH   1  10
TORSDOF 1
ENDMDL
MODEL 3
REMARK VINA RESULT:      -5.1      1.982      2.703
REMARK  Name = 
REMARK  1 active torsions:
REMARK  status: ('A' for Active; 'I' for Inactive)
REMARK    1  A    between atoms: N_1  and  C_2
REMARK                            x       y       z     vdW  Elec       q    Type
REMARK                         _______ _______ _______ _____ _____    ______ ____
ROOT
ATOM      1  C   UNL     1       6.608   5.324  16.219  0.00  0.00    +0.000 A 
ATOM      2  C   UNL     1       5.350   5.924  16.082  0.00  0.00    +0.000 A 
ATOM      3  F   UNL     1       5.033   6.537  14.930  0.00  0.00    +0.000 F 
ATOM      4  C   UNL     1       4.403   5.890  17.104  0.00  0.00    +0.000 A 
ATOM      5  C   UNL     1       4.727   5.274  18.310  0.00  0.00    +0.000 A 
ATOM      6 BR   UNL     1       3.461   5.235  19.712  0.00  0.00    +0.000 Br
ATOM      7  C   UNL     1       5.982   4.702  18.496  0.00  0.00    +0.000 A 
ATOM      8  C   UNL     1       6.911   4.748  17.458  0.00  0.00    +0.000 A 
ATOM      9  F   UNL     1       8.125   4.210  17.656  0.00  0.00    +0.000 F 
ENDROOT
BRANCH   1  10
ATOM     10  N   UNL     1       7.603   5.498  15.238  0.00  0.00    +0.000 N 
ATOM     11  H   UNL     1       7.317   5.185  14.314  0.00  0.00    +0.000 HD
ATOM     12  H   UNL     1       8.515   5.152  15.523  0.00  0.00    +0.000 HD
ENDBRANCH   1  10
TORSDOF 1
ENDMDL
MODEL 4
REMARK VINA RESULT:      -5.0      1.629      2.764
REMARK  Name = 
REMARK  1 active torsions:
REMARK  status: ('A' for Active; 'I' for Inactive)
REMARK    1  A    between atoms: N_1  and  C_2
REMARK                            x       y       z     vdW  Elec       q    Type
REMARK                         _______ _______ _______ _____ _____    ______ ____
ROOT
ATOM      1  C   UNL     1       6.343   5.388  16.268  0.00  0.00    +0.000 A 
ATOM      2  C   UNL     1       5.610   4.212  16.071  0.00  0.00    +0.000 A 
ATOM      3  F   UNL     1       6.123   3.234  15.308  0.00  0.00    +0.000 F 
ATOM      4  C   UNL     1       4.361   4.016  16.659  0.00  0.00    +0.000 A 
ATOM      5  C   UNL     1       3.810   5.030  17.437  0.00  0.00    +0.000 A 
ATOM      6 BR   UNL     1       2.111   4.787  18.228  0.00  0.00    +0.000 Br
ATOM      7  C   UNL     1       4.494   6.229  17.623  0.00  0.00    +0.000 A 
ATOM      8  C   UNL     1       5.740   6.400  17.025  0.00  0.00    +0.000 A 
ATOM      9  F   UNL     1       6.382   7.567  17.195  0.00  0.00    +0.000 F 
ENDROOT
BRANCH   1  10
ATOM     10  N   UNL     1       7.528   5.631  15.549  0.00  0.00    +0.000 N 
ATOM     11  H   UNL     1       7.642   6.604  15.275  0.00  0.00    +0.000 HD
ATOM     12  H   UNL     1       7.683   4.971  14.791  0.00  0.00    +0.000 HD
ENDBRANCH   1  10
TORSDOF 1
ENDMDL
MODEL 5
REMARK VINA RESULT:      -4.9      1.652      1.670
REMARK  Name = 
REMARK  1 active torsions:
REMARK  status: ('A' for Active; 'I' for Inactive)
REMARK    1  A    between atoms: N_1  and  C_2
REMARK                            x       y       z     vdW  Elec       q    Type
REMARK                         _______ _______ _______ _____ _____    ______ ____
ROOT
ATOM      1  C   UNL     1       6.260   5.451  16.127  0.00  0.00    +0.000 A 
ATOM      2  C   UNL     1       5.707   6.426  16.965  0.00  0.00    +0.000 A 
ATOM      3  F   UNL     1       6.358   7.585  17.151  0.00  0.00    +0.000 F 
ATOM      4  C   UNL     1       4.484   6.236  17.607  0.00  0.00    +0.000 A 
ATOM      5  C   UNL     1       3.808   5.031  17.438  0.00  0.00    +0.000 A 
ATOM      6 BR   UNL     1       2.157   4.752  18.314  0.00  0.00    +0.000 Br
ATOM      7  C   UNL     1       4.347   4.024  16.642  0.00  0.00    +0.000 A 
ATOM      8  C   UNL     1       5.571   4.238  16.012  0.00  0.00    +0.000 A 
ATOM      9  F   UNL     1       6.090   3.252  15.262  0.00  0.00    +0.000 F 
ENDROOT
BRANCH   1  10
ATOM     10  N   UNL     1       7.561   5.596  15.609  0.00  0.00    +0.000 N 
ATOM     11  H   UNL     1       8.290   5.352  16.276  0.00  0.00    +0.000 HD
ATOM     12  H   UNL     1       7.714   6.486  15.143  0.00  0.00    +0.000 HD
ENDBRANCH   1  10
TORSDOF 1
ENDMDL
MODEL 6
REMARK VINA RESULT:      -4.9      4.175      5.236
REMARK  Name = 
REMARK  1 active torsions:
REMARK  status: ('A' for Active; 'I' for Inactive)
REMARK    1  A    between atoms: N_1  and  C_2
REMARK                            x       y       z     vdW  Elec       q    Type
REMARK                         _______ _______ _______ _____ _____    ______ ____
ROOT
ATOM      1  C   UNL     1       1.634   2.850  18.975  0.00  0.00    +0.000 A 
ATOM      2  C   UNL     1       2.123   3.729  18.003  0.00  0.00    +0.000 A 
ATOM      3  F   UNL     1       2.460   3.255  16.792  0.00  0.00    +0.000 F 
ATOM      4  C   UNL     1       2.259   5.095  18.247  0.00  0.00    +0.000 A 
ATOM      5  C   UNL     1       1.932   5.596  19.504  0.00  0.00    +0.000 A 
ATOM      6 BR   UNL     1       2.127   7.442  19.857  0.00  0.00    +0.000 Br
ATOM      7  C   UNL     1       1.479   4.744  20.508  0.00  0.00    +0.000 A 
ATOM      8  C   UNL     1       1.352   3.383  20.238  0.00  0.00    +0.000 A 
ATOM      9  F   UNL     1       0.932   2.569  21.220  0.00  0.00    +0.000 F 
ENDROOT
BRANCH   1  10
ATOM     10  N   UNL     1       1.645   1.458  18.764  0.00  0.00    +0.000 N 
ATOM     11  H   UNL     1       0.760   1.009  18.984  0.00  0.00    +0.000 HD
ATOM     12  H   UNL     1       2.453   0.994  19.171  0.00  0.00    +0.000 HD
ENDBRANCH   1  10
TORSDOF 1
ENDMDL
MODEL 7
REMARK VINA RESULT:      -4.9      0.193      2.612
REMARK  Name = 
REMARK  1 active torsions:
REMARK  status: ('A' for Active; 'I' for Inactive)
REMARK    1  A    between atoms: N_1  and  C_2
REMARK                            x       y       z     vdW  Elec       q    Type
REMARK                         _______ _______ _______ _____ _____    ______ ____
ROOT
ATOM      1  C   UNL     1       6.444   4.493  17.570  0.00  0.00    +0.000 A 
ATOM      2  C   UNL     1       5.642   4.016  16.526  0.00  0.00    +0.000 A 
ATOM      3  F   UNL     1       6.221   3.563  15.403  0.00  0.00    +0.000 F 
ATOM      4  C   UNL     1       4.252   3.981  16.622  0.00  0.00    +0.000 A 
ATOM      5  C   UNL     1       3.638   4.466  17.774  0.00  0.00    +0.000 A 
ATOM      6 BR   UNL     1       1.754   4.442  17.913  0.00  0.00    +0.000 Br
ATOM      7  C   UNL     1       4.402   4.985  18.816  0.00  0.00    +0.000 A 
ATOM      8  C   UNL     1       5.790   5.008  18.696  0.00  0.00    +0.000 A 
ATOM      9  F   UNL     1       6.515   5.528  19.699  0.00  0.00    +0.000 F 
ENDROOT
BRANCH   1  10
ATOM     10  N   UNL     1       7.831   4.662  17.398  0.00  0.00    +0.000 N 
ATOM     11  H   UNL     1       8.370   4.446  18.233  0.00  0.00    +0.000 HD
ATOM     12  H   UNL     1       8.080   5.548  16.967  0.00  0.00    +0.000 HD
ENDBRANCH   1  10
TORSDOF 1
ENDMDL
MODEL 8
REMARK VINA RESULT:      -4.9      4.155      4.661
REMARK  Name = 
REMARK  1 active torsions:
REMARK  status: ('A' for Active; 'I' for Inactive)
REMARK    1  A    between atoms: N_1  and  C_2
REMARK                            x       y       z     vdW  Elec       q    Type
REMARK                         _______ _______ _______ _____ _____    ______ ____
ROOT
ATOM      1  C   UNL     1       1.810   2.892  19.021  0.00  0.00    +0.000 A 
ATOM      2  C   UNL     1       1.453   3.446  20.256  0.00  0.00    +0.000 A 
ATOM      3  F   UNL     1       1.025   2.642  21.242  0.00  0.00    +0.000 F 
ATOM      4  C   UNL     1       1.545   4.815  20.502  0.00  0.00    +0.000 A 
ATOM      5  C   UNL     1       1.969   5.662  19.482  0.00  0.00    +0.000 A 
ATOM      6 BR   UNL     1       2.082   7.522  19.794  0.00  0.00    +0.000 Br
ATOM      7  C   UNL     1       2.295   5.150  18.229  0.00  0.00    +0.000 A 
ATOM      8  C   UNL     1       2.195   3.778  18.008  0.00  0.00    +0.000 A 
ATOM      9  F   UNL     1       2.494   3.298  16.790  0.00  0.00    +0.000 F 
ENDROOT
BRANCH   1  10
ATOM     10  N   UNL     1       1.570   1.533  18.741  0.00  0.00    +0.000 N 
ATOM     11  H   UNL     1       2.419   0.977  18.680  0.00  0.00    +0.000 HD
ATOM     12  H   UNL     1       0.928   1.388  17.966  0.00  0.00    +0.000 HD
ENDBRANCH   1  10
TORSDOF 1
ENDMDL
MODEL 9
REMARK VINA RESULT:      -4.9      3.711      4.191
REMARK  Name = 
REMARK  1 active torsions:
REMARK  status: ('A' for Active; 'I' for Inactive)
REMARK    1  A    between atoms: N_1  and  C_2
REMARK                            x       y       z     vdW  Elec       q    Type
REMARK                         _______ _______ _______ _____ _____    ______ ____
ROOT
ATOM      1  C   UNL     1       2.226   2.745  18.723  0.00  0.00    +0.000 A 
ATOM      2  C   UNL     1       1.728   4.010  19.056  0.00  0.00    +0.000 A 
ATOM      3  F   UNL     1       0.612   4.106  19.796  0.00  0.00    +0.000 F 
ATOM      4  C   UNL     1       2.367   5.182  18.654  0.00  0.00    +0.000 A 
ATOM      5  C   UNL     1       3.514   5.096  17.870  0.00  0.00    +0.000 A 
ATOM      6 BR   UNL     1       4.382   6.675  17.303  0.00  0.00    +0.000 Br
ATOM      7  C   UNL     1       4.016   3.855  17.487  0.00  0.00    +0.000 A 
ATOM      8  C   UNL     1       3.359   2.698  17.902  0.00  0.00    +0.000 A 
ATOM      9  F   UNL     1       3.842   1.508  17.511  0.00  0.00    +0.000 F 
ENDROOT
BRANCH   1  10
ATOM     10  N   UNL     1       1.490   1.579  19.007  0.00  0.00    +0.000 N 
ATOM     11  H   UNL     1       0.926   1.258  18.224  0.00  0.00    +0.000 HD
ATOM     12  H   UNL     1       0.981   1.627  19.886  0.00  0.00    +0.000 HD
ENDBRANCH   1  10
TORSDOF 1
ENDMDL
