MODEL 1
REMARK VINA RESULT:      -8.3      0.000      0.000
REMARK  Name = 
REMARK  6 active torsions:
REMARK  status: ('A' for Active; 'I' for Inactive)
REMARK    1  A    between atoms: C_2  and  O_3
REMARK    2  A    between atoms: C_2  and  C_4
REMARK    3  A    between atoms: C_9  and  C_10
REMARK    4  A    between atoms: N_12  and  C_13
REMARK    5  A    between atoms: C_13  and  C_14
REMARK    6  A    between atoms: C_14  and  C_15
REMARK                            x       y       z     vdW  Elec       q    Type
REMARK                         _______ _______ _______ _____ _____    ______ ____
ROOT
ATOM      1  C   UNL     1       5.534   3.865  18.222  0.00  0.00    +0.000 C 
ATOM      2  O   UNL     1       5.255   3.764  19.416  0.00  0.00    +0.000 OA
ATOM      3  N   UNL     1       4.834   3.161  17.269  0.00  0.00    +0.000 N 
ATOM      4  H   UNL     1       5.011   3.295  16.278  0.00  0.00    +0.000 HD
ENDROOT
BRANCH   1  10
ATOM      5  C   UNL     1       6.308   6.282  17.903  0.00  0.00    +0.000 C 
ATOM      6  C   UNL     1       5.187   6.725  16.958  0.00  0.00    +0.000 C 
ATOM      7  C   UNL     1       5.347   6.311  15.498  0.00  0.00    +0.000 C 
ATOM      8  C   UNL     1       5.854   4.885  15.298  0.00  0.00    +0.000 C 
ATOM      9  C   UNL     1       6.979   4.474  16.245  0.00  0.00    +0.000 C 
ATOM     10  C   UNL     1       6.660   4.775  17.713  0.00  0.00    +0.000 C 
BRANCH   5  12
ATOM     11  O   UNL     1       7.885   7.805  16.855  0.00  0.00    +0.000 OA
ATOM     12  C   UNL     1       7.577   7.134  17.815  0.00  0.00    +0.000 C 
BRANCH  12  13
ATOM     13  O   UNL     1       8.405   7.043  18.882  0.00  0.00    +0.000 OA
ATOM     14  H   UNL     1       9.306   6.717  18.714  0.00  0.00    +0.000 HD
ENDBRANCH  12  13
ENDBRANCH   5  12
ENDBRANCH   1  10
BRANCH   3  15
ATOM     15  C   UNL     1       3.744   2.289  17.682  0.00  0.00    +0.000 C 
BRANCH  15  16
ATOM     16  C   UNL     1       2.356   2.922  17.587  0.00  0.00    +0.000 C 
BRANCH  16  17
ATOM     17  C   UNL     1       1.957   3.641  18.839  0.00  0.00    +0.000 A 
ATOM     18  C   UNL     1       1.455   3.066  19.992  0.00  0.00    +0.000 A 
ATOM     19  N   UNL     1       1.218   4.060  20.905  0.00  0.00    +0.000 N 
ATOM     20  C   UNL     1       1.553   5.282  20.369  0.00  0.00    +0.000 A 
ATOM     21  C   UNL     1       1.483   6.561  20.936  0.00  0.00    +0.000 A 
ATOM     22  C   UNL     1       1.883   7.642  20.146  0.00  0.00    +0.000 A 
ATOM     23  C   UNL     1       2.332   7.448  18.842  0.00  0.00    +0.000 A 
ATOM     24  C   UNL     1       2.402   6.162  18.294  0.00  0.00    +0.000 A 
ATOM     25  C   UNL     1       2.008   5.053  19.072  0.00  0.00    +0.000 A 
ATOM     26  H   UNL     1       0.851   3.922  21.831  0.00  0.00    +0.000 HD
ENDBRANCH  16  17
ENDBRANCH  15  16
ENDBRANCH   3  15
TORSDOF 6
ENDMDL
MODEL 2
REMARK VINA RESULT:      -7.9      4.538      6.877
REMARK  Name = 
REMARK  6 active torsions:
REMARK  status: ('A' for Active; 'I' for Inactive)
REMARK    1  A    between atoms: C_2  and  O_3
REMARK    2  A    between atoms: C_2  and  C_4
REMARK    3  A    between atoms: C_9  and  C_10
REMARK    4  A    between atoms: N_12  and  C_13
REMARK    5  A    between atoms: C_13  and  C_14
REMARK    6  A    between atoms: C_14  and  C_15
REMARK                            x       y       z     vdW  Elec       q    Type
REMARK                         _______ _______ _______ _____ _____    ______ ____
ROOT
ATOM      1  C   UNL     1       9.090  10.413  18.822  0.00  0.00    +0.000 C 
ATOM      2  O   UNL     1       9.196  10.009  19.979  0.00  0.00    +0.000 OA
ATOM      3  N   UNL     1       8.590   9.600  17.831  0.00  0.00    +0.000 N 
ATOM      4  H   UNL     1       8.432   9.950  16.891  0.00  0.00    +0.000 HD
ENDROOT
BRANCH   1  10
ATOM      5  C   UNL     1      10.884  11.849  17.698  0.00  0.00    +0.000 C 
ATOM      6  C   UNL     1      12.021  11.548  18.680  0.00  0.00    +0.000 C 
ATOM      7  C   UNL     1      11.990  12.325  19.992  0.00  0.00    +0.000 C 
ATOM      8  C   UNL     1      10.602  12.463  20.612  0.00  0.00    +0.000 C 
ATOM      9  C   UNL     1       9.490  12.776  19.613  0.00  0.00    +0.000 C 
ATOM     10  C   UNL     1       9.494  11.834  18.405  0.00  0.00    +0.000 C 
BRANCH   5  12
ATOM     11  O   UNL     1      10.413  14.156  17.099  0.00  0.00    +0.000 OA
ATOM     12  C   UNL     1      11.062  13.151  16.914  0.00  0.00    +0.000 C 
BRANCH  12  13
ATOM     13  O   UNL     1      11.973  13.098  15.913  0.00  0.00    +0.000 OA
ATOM     14  H   UNL     1      11.892  12.363  15.281  0.00  0.00    +0.000 HD
ENDBRANCH  12  13
ENDBRANCH   5  12
ENDBRANCH   1  10
BRANCH   3  15
ATOM     15  C   UNL     1       8.174   8.244  18.160  0.00  0.00    +0.000 C 
BRANCH  15  16
ATOM     16  C   UNL     1       7.066   7.686  17.268  0.00  0.00    +0.000 C 
BRANCH  16  17
ATOM     17  C   UNL     1       6.627   6.313  17.674  0.00  0.00    +0.000 A 
ATOM     18  C   UNL     1       7.451   5.242  17.969  0.00  0.00    +0.000 A 
ATOM     19  N   UNL     1       6.665   4.168  18.298  0.00  0.00    +0.000 N 
ATOM     20  C   UNL     1       5.337   4.515  18.218  0.00  0.00    +0.000 A 
ATOM     21  C   UNL     1       4.192   3.747  18.468  0.00  0.00    +0.000 A 
ATOM     22  C   UNL     1       2.949   4.363  18.294  0.00  0.00    +0.000 A 
ATOM     23  C   UNL     1       2.859   5.691  17.885  0.00  0.00    +0.000 A 
ATOM     24  C   UNL     1       4.013   6.445  17.647  0.00  0.00    +0.000 A 
ATOM     25  C   UNL     1       5.280   5.849  17.819  0.00  0.00    +0.000 A 
ATOM     26  H   UNL     1       7.006   3.258  18.556  0.00  0.00    +0.000 HD
ENDBRANCH  16  17
ENDBRANCH  15  16
ENDBRANCH   3  15
TORSDOF 6
ENDMDL
MODEL 3
REMARK VINA RESULT:      -7.8      3.769      6.395
REMARK  Name = 
REMARK  6 active torsions:
REMARK  status: ('A' for Active; 'I' for Inactive)
REMARK    1  A    between atoms: C_2  and  O_3
REMARK    2  A    between atoms: C_2  and  C_4
REMARK    3  A    between atoms: C_9  and  C_10
REMARK    4  A    between atoms: N_12  and  C_13
REMARK    5  A    between atoms: C_13  and  C_14
REMARK    6  A    between atoms: C_14  and  C_15
REMARK                            x       y       z     vdW  Elec       q    Type
REMARK                         _______ _______ _______ _____ _____    ______ ____
ROOT
ATOM      1  C   UNL     1       2.711   5.875  19.464  0.00  0.00    +0.000 C 
ATOM      2  O   UNL     1       2.737   6.290  18.307  0.00  0.00    +0.000 OA
ATOM      3  N   UNL     1       2.269   6.674  20.494  0.00  0.00    +0.000 N 
ATOM      4  H   UNL     1       2.176   6.315  21.439  0.00  0.00    +0.000 HD
ENDROOT
BRANCH   1  10
ATOM      5  C   UNL     1       3.216   3.524  18.592  0.00  0.00    +0.000 C 
ATOM      6  C   UNL     1       1.817   3.209  18.053  0.00  0.00    +0.000 C 
ATOM      7  C   UNL     1       0.786   2.778  19.091  0.00  0.00    +0.000 C 
ATOM      8  C   UNL     1       0.827   3.576  20.392  0.00  0.00    +0.000 C 
ATOM      9  C   UNL     1       2.233   3.865  20.913  0.00  0.00    +0.000 C 
ATOM     10  C   UNL     1       3.155   4.455  19.841  0.00  0.00    +0.000 C 
BRANCH   5  12
ATOM     11  O   UNL     1       3.749   1.153  18.609  0.00  0.00    +0.000 OA
ATOM     12  C   UNL     1       4.063   2.286  18.899  0.00  0.00    +0.000 C 
BRANCH  12  13
ATOM     13  O   UNL     1       5.195   2.525  19.602  0.00  0.00    +0.000 OA
ATOM     14  H   UNL     1       5.428   3.456  19.760  0.00  0.00    +0.000 HD
ENDBRANCH  12  13
ENDBRANCH   5  12
ENDBRANCH   1  10
BRANCH   3  15
ATOM     15  C   UNL     1       1.819   8.029  20.204  0.00  0.00    +0.000 C 
BRANCH  15  16
ATOM     16  C   UNL     1       0.825   8.597  21.215  0.00  0.00    +0.000 C 
BRANCH  16  17
ATOM     17  C   UNL     1       0.031   9.744  20.670  0.00  0.00    +0.000 A 
ATOM     18  C   UNL     1      -0.130  10.070  19.336  0.00  0.00    +0.000 A 
ATOM     19  N   UNL     1      -0.927  11.182  19.255  0.00  0.00    +0.000 N 
ATOM     20  C   UNL     1      -1.288  11.596  20.516  0.00  0.00    +0.000 A 
ATOM     21  C   UNL     1      -2.091  12.674  20.911  0.00  0.00    +0.000 A 
ATOM     22  C   UNL     1      -2.283  12.869  22.282  0.00  0.00    +0.000 A 
ATOM     23  C   UNL     1      -1.694  12.020  23.216  0.00  0.00    +0.000 A 
ATOM     24  C   UNL     1      -0.901  10.944  22.802  0.00  0.00    +0.000 A 
ATOM     25  C   UNL     1      -0.694  10.722  21.424  0.00  0.00    +0.000 A 
ATOM     26  H   UNL     1      -1.207  11.634  18.401  0.00  0.00    +0.000 HD
ENDBRANCH  16  17
ENDBRANCH  15  16
ENDBRANCH   3  15
TORSDOF 6
ENDMDL
MODEL 4
REMARK VINA RESULT:      -7.8      1.569      2.310
REMARK  Name = 
REMARK  6 active torsions:
REMARK  status: ('A' for Active; 'I' for Inactive)
REMARK    1  A    between atoms: C_2  and  O_3
REMARK    2  A    between atoms: C_2  and  C_4
REMARK    3  A    between atoms: C_9  and  C_10
REMARK    4  A    between atoms: N_12  and  C_13
REMARK    5  A    between atoms: C_13  and  C_14
REMARK    6  A    between atoms: C_14  and  C_15
REMARK                            x       y       z     vdW  Elec       q    Type
REMARK                         _______ _______ _______ _____ _____    ______ ____
ROOT
ATOM      1  C   UNL     1       4.668   3.616  17.269  0.00  0.00    +0.000 C 
ATOM      2  O   UNL     1       5.094   3.759  18.414  0.00  0.00    +0.000 OA
ATOM      3  N   UNL     1       3.692   2.687  16.987  0.00  0.00    +0.000 N 
ATOM      4  H   UNL     1       3.285   2.615  16.060  0.00  0.00    +0.000 HD
ENDROOT
BRANCH   1  10
ATOM      5  C   UNL     1       6.694   4.199  15.820  0.00  0.00    +0.000 C 
ATOM      6  C   UNL     1       7.571   4.782  16.932  0.00  0.00    +0.000 C 
ATOM      7  C   UNL     1       7.252   6.215  17.348  0.00  0.00    +0.000 C 
ATOM      8  C   UNL     1       5.761   6.525  17.452  0.00  0.00    +0.000 C 
ATOM      9  C   UNL     1       4.912   5.943  16.324  0.00  0.00    +0.000 C 
ATOM     10  C   UNL     1       5.179   4.453  16.088  0.00  0.00    +0.000 C 
BRANCH   5  12
ATOM     11  O   UNL     1       6.596   4.227  13.392  0.00  0.00    +0.000 OA
ATOM     12  C   UNL     1       7.066   4.675  14.413  0.00  0.00    +0.000 C 
BRANCH  12  13
ATOM     13  O   UNL     1       8.040   5.615  14.365  0.00  0.00    +0.000 OA
ATOM     14  H   UNL     1       8.222   6.018  13.498  0.00  0.00    +0.000 HD
ENDBRANCH  12  13
ENDBRANCH   5  12
ENDBRANCH   1  10
BRANCH   3  15
ATOM     15  C   UNL     1       3.153   1.869  18.064  0.00  0.00    +0.000 C 
BRANCH  15  16
ATOM     16  C   UNL     1       1.768   2.294  18.551  0.00  0.00    +0.000 C 
BRANCH  16  17
ATOM     17  C   UNL     1       1.820   3.392  19.568  0.00  0.00    +0.000 A 
ATOM     18  C   UNL     1       1.778   3.240  20.942  0.00  0.00    +0.000 A 
ATOM     19  N   UNL     1       1.853   4.482  21.518  0.00  0.00    +0.000 N 
ATOM     20  C   UNL     1       1.937   5.449  20.543  0.00  0.00    +0.000 A 
ATOM     21  C   UNL     1       2.035   6.841  20.666  0.00  0.00    +0.000 A 
ATOM     22  C   UNL     1       2.094   7.591  19.488  0.00  0.00    +0.000 A 
ATOM     23  C   UNL     1       2.055   6.972  18.241  0.00  0.00    +0.000 A 
ATOM     24  C   UNL     1       1.965   5.579  18.138  0.00  0.00    +0.000 A 
ATOM     25  C   UNL     1       1.907   4.798  19.311  0.00  0.00    +0.000 A 
ATOM     26  H   UNL     1       1.844   4.664  22.507  0.00  0.00    +0.000 HD
ENDBRANCH  16  17
ENDBRANCH  15  16
ENDBRANCH   3  15
TORSDOF 6
ENDMDL
MODEL 5
REMARK VINA RESULT:      -7.7      3.713      6.240
REMARK  Name = 
REMARK  6 active torsions:
REMARK  status: ('A' for Active; 'I' for Inactive)
REMARK    1  A    between atoms: C_2  and  O_3
REMARK    2  A    between atoms: C_2  and  C_4
REMARK    3  A    between atoms: C_9  and  C_10
REMARK    4  A    between atoms: N_12  and  C_13
REMARK    5  A    between atoms: C_13  and  C_14
REMARK    6  A    between atoms: C_14  and  C_15
REMARK                            x       y       z     vdW  Elec       q    Type
REMARK                         _______ _______ _______ _____ _____    ______ ____
ROOT
ATOM      1  C   UNL     1       2.447   6.193  19.695  0.00  0.00    +0.000 C 
ATOM      2  O   UNL     1       2.329   6.792  18.627  0.00  0.00    +0.000 OA
ATOM      3  N   UNL     1       2.036   6.765  20.877  0.00  0.00    +0.000 N 
ATOM      4  H   UNL     1       2.062   6.248  21.751  0.00  0.00    +0.000 HD
ENDROOT
BRANCH   1  10
ATOM      5  C   UNL     1       3.020   4.059  18.407  0.00  0.00    +0.000 C 
ATOM      6  C   UNL     1       1.593   3.694  17.984  0.00  0.00    +0.000 C 
ATOM      7  C   UNL     1       0.737   3.015  19.049  0.00  0.00    +0.000 C 
ATOM      8  C   UNL     1       0.880   3.610  20.448  0.00  0.00    +0.000 C 
ATOM      9  C   UNL     1       2.314   3.952  20.848  0.00  0.00    +0.000 C 
ATOM     10  C   UNL     1       3.044   4.782  19.787  0.00  0.00    +0.000 C 
BRANCH   5  12
ATOM     11  O   UNL     1       3.715   1.760  18.037  0.00  0.00    +0.000 OA
ATOM     12  C   UNL     1       3.992   2.877  18.414  0.00  0.00    +0.000 C 
BRANCH  12  13
ATOM     13  O   UNL     1       5.208   3.137  18.950  0.00  0.00    +0.000 OA
ATOM     14  H   UNL     1       5.229   3.418  19.881  0.00  0.00    +0.000 HD
ENDBRANCH  12  13
ENDBRANCH   5  12
ENDBRANCH   1  10
BRANCH   3  15
ATOM     15  C   UNL     1       1.447   8.097  20.860  0.00  0.00    +0.000 C 
BRANCH  15  16
ATOM     16  C   UNL     1       0.017   8.165  21.394  0.00  0.00    +0.000 C 
BRANCH  16  17
ATOM     17  C   UNL     1      -0.393   9.551  21.786  0.00  0.00    +0.000 A 
ATOM     18  C   UNL     1      -0.571  10.021  23.075  0.00  0.00    +0.000 A 
ATOM     19  N   UNL     1      -0.942  11.338  23.009  0.00  0.00    +0.000 N 
ATOM     20  C   UNL     1      -1.018  11.741  21.696  0.00  0.00    +0.000 A 
ATOM     21  C   UNL     1      -1.352  12.991  21.158  0.00  0.00    +0.000 A 
ATOM     22  C   UNL     1      -1.360  13.114  19.766  0.00  0.00    +0.000 A 
ATOM     23  C   UNL     1      -1.049  12.031  18.949  0.00  0.00    +0.000 A 
ATOM     24  C   UNL     1      -0.710  10.792  19.504  0.00  0.00    +0.000 A 
ATOM     25  C   UNL     1      -0.690  10.640  20.906  0.00  0.00    +0.000 A 
ATOM     26  H   UNL     1      -1.136  11.926  23.802  0.00  0.00    +0.000 HD
ENDBRANCH  16  17
ENDBRANCH  15  16
ENDBRANCH   3  15
TORSDOF 6
ENDMDL
MODEL 6
REMARK VINA RESULT:      -7.6      4.002      6.052
REMARK  Name = 
REMARK  6 active torsions:
REMARK  status: ('A' for Active; 'I' for Inactive)
REMARK    1  A    between atoms: C_2  and  O_3
REMARK    2  A    between atoms: C_2  and  C_4
REMARK    3  A    between atoms: C_9  and  C_10
REMARK    4  A    between atoms: N_12  and  C_13
REMARK    5  A    between atoms: C_13  and  C_14
REMARK    6  A    between atoms: C_14  and  C_15
REMARK                            x       y       z     vdW  Elec       q    Type
REMARK                         _______ _______ _______ _____ _____    ______ ____
ROOT
ATOM      1  C   UNL     1       2.692   6.677  19.395  0.00  0.00    +0.000 C 
ATOM      2  O   UNL     1       2.061   7.147  20.341  0.00  0.00    +0.000 OA
ATOM      3  N   UNL     1       2.918   7.417  18.257  0.00  0.00    +0.000 N 
ATOM      4  H   UNL     1       3.499   7.062  17.504  0.00  0.00    +0.000 HD
ENDROOT
BRANCH   1  10
ATOM      5  C   UNL     1       3.101   4.550  18.035  0.00  0.00    +0.000 C 
ATOM      6  C   UNL     1       1.634   4.214  17.748  0.00  0.00    +0.000 C 
ATOM      7  C   UNL     1       0.873   3.537  18.882  0.00  0.00    +0.000 C 
ATOM      8  C   UNL     1       1.159   4.112  20.267  0.00  0.00    +0.000 C 
ATOM      9  C   UNL     1       2.630   4.425  20.531  0.00  0.00    +0.000 C 
ATOM     10  C   UNL     1       3.270   5.256  19.415  0.00  0.00    +0.000 C 
BRANCH   5  12
ATOM     11  O   UNL     1       3.709   2.197  18.072  0.00  0.00    +0.000 OA
ATOM     12  C   UNL     1       4.049   3.352  17.937  0.00  0.00    +0.000 C 
BRANCH  12  13
ATOM     13  O   UNL     1       5.353   3.665  17.752  0.00  0.00    +0.000 OA
ATOM     14  H   UNL     1       5.644   4.541  18.060  0.00  0.00    +0.000 HD
ENDBRANCH  12  13
ENDBRANCH   5  12
ENDBRANCH   1  10
BRANCH   3  15
ATOM     15  C   UNL     1       2.409   8.779  18.177  0.00  0.00    +0.000 C 
BRANCH  15  16
ATOM     16  C   UNL     1       1.006   8.897  17.584  0.00  0.00    +0.000 C 
BRANCH  16  17
ATOM     17  C   UNL     1       0.147   9.885  18.313  0.00  0.00    +0.000 A 
ATOM     18  C   UNL     1       0.494  10.593  19.448  0.00  0.00    +0.000 A 
ATOM     19  N   UNL     1      -0.562  11.391  19.801  0.00  0.00    +0.000 N 
ATOM     20  C   UNL     1      -1.602  11.214  18.918  0.00  0.00    +0.000 A 
ATOM     21  C   UNL     1      -2.865  11.820  18.886  0.00  0.00    +0.000 A 
ATOM     22  C   UNL     1      -3.740  11.436  17.866  0.00  0.00    +0.000 A 
ATOM     23  C   UNL     1      -3.365  10.485  16.920  0.00  0.00    +0.000 A 
ATOM     24  C   UNL     1      -2.096   9.896  16.964  0.00  0.00    +0.000 A 
ATOM     25  C   UNL     1      -1.192  10.268  17.981  0.00  0.00    +0.000 A 
ATOM     26  H   UNL     1      -0.581  12.014  20.592  0.00  0.00    +0.000 HD
ENDBRANCH  16  17
ENDBRANCH  15  16
ENDBRANCH   3  15
TORSDOF 6
ENDMDL
MODEL 7
REMARK VINA RESULT:      -7.6      2.563      5.865
REMARK  Name = 
REMARK  6 active torsions:
REMARK  status: ('A' for Active; 'I' for Inactive)
REMARK    1  A    between atoms: C_2  and  O_3
REMARK    2  A    between atoms: C_2  and  C_4
REMARK    3  A    between atoms: C_9  and  C_10
REMARK    4  A    between atoms: N_12  and  C_13
REMARK    5  A    between atoms: C_13  and  C_14
REMARK    6  A    between atoms: C_14  and  C_15
REMARK                            x       y       z     vdW  Elec       q    Type
REMARK                         _______ _______ _______ _____ _____    ______ ____
ROOT
ATOM      1  C   UNL     1       2.628   5.355  19.786  0.00  0.00    +0.000 C 
ATOM      2  O   UNL     1       2.270   6.199  20.605  0.00  0.00    +0.000 OA
ATOM      3  N   UNL     1       2.722   5.661  18.448  0.00  0.00    +0.000 N 
ATOM      4  H   UNL     1       3.087   4.990  17.778  0.00  0.00    +0.000 HD
ENDROOT
BRANCH   1  10
ATOM      5  C   UNL     1       3.468   3.084  18.961  0.00  0.00    +0.000 C 
ATOM      6  C   UNL     1       2.308   2.780  18.007  0.00  0.00    +0.000 C 
ATOM      7  C   UNL     1       1.033   2.253  18.658  0.00  0.00    +0.000 C 
ATOM      8  C   UNL     1       0.651   2.956  19.958  0.00  0.00    +0.000 C 
ATOM      9  C   UNL     1       1.824   3.235  20.895  0.00  0.00    +0.000 C 
ATOM     10  C   UNL     1       2.999   3.920  20.189  0.00  0.00    +0.000 C 
BRANCH   5  12
ATOM     11  O   UNL     1       4.911   1.797  20.433  0.00  0.00    +0.000 OA
ATOM     12  C   UNL     1       4.236   1.845  19.429  0.00  0.00    +0.000 C 
BRANCH  12  13
ATOM     13  O   UNL     1       4.175   0.782  18.592  0.00  0.00    +0.000 OA
ATOM     14  H   UNL     1       4.312   0.958  17.645  0.00  0.00    +0.000 HD
ENDBRANCH  12  13
ENDBRANCH   5  12
ENDBRANCH   1  10
BRANCH   3  15
ATOM     15  C   UNL     1       2.399   7.007  17.998  0.00  0.00    +0.000 C 
BRANCH  15  16
ATOM     16  C   UNL     1       3.599   7.819  17.513  0.00  0.00    +0.000 C 
BRANCH  16  17
ATOM     17  C   UNL     1       4.626   6.979  16.815  0.00  0.00    +0.000 A 
ATOM     18  C   UNL     1       4.738   6.787  15.450  0.00  0.00    +0.000 A 
ATOM     19  N   UNL     1       5.803   5.958  15.216  0.00  0.00    +0.000 N 
ATOM     20  C   UNL     1       6.390   5.596  16.406  0.00  0.00    +0.000 A 
ATOM     21  C   UNL     1       7.498   4.774  16.648  0.00  0.00    +0.000 A 
ATOM     22  C   UNL     1       7.872   4.567  17.978  0.00  0.00    +0.000 A 
ATOM     23  C   UNL     1       7.165   5.159  19.022  0.00  0.00    +0.000 A 
ATOM     24  C   UNL     1       6.064   5.983  18.761  0.00  0.00    +0.000 A 
ATOM     25  C   UNL     1       5.668   6.212  17.427  0.00  0.00    +0.000 A 
ATOM     26  H   UNL     1       6.112   5.652  14.308  0.00  0.00    +0.000 HD
ENDBRANCH  16  17
ENDBRANCH  15  16
ENDBRANCH   3  15
TORSDOF 6
ENDMDL
MODEL 8
REMARK VINA RESULT:      -7.6      2.648      6.014
REMARK  Name = 
REMARK  6 active torsions:
REMARK  status: ('A' for Active; 'I' for Inactive)
REMARK    1  A    between atoms: C_2  and  O_3
REMARK    2  A    between atoms: C_2  and  C_4
REMARK    3  A    between atoms: C_9  and  C_10
REMARK    4  A    between atoms: N_12  and  C_13
REMARK    5  A    between atoms: C_13  and  C_14
REMARK    6  A    between atoms: C_14  and  C_15
REMARK                            x       y       z     vdW  Elec       q    Type
REMARK                         _______ _______ _______ _____ _____    ______ ____
ROOT
ATOM      1  C   UNL     1       2.639   5.229  20.092  0.00  0.00    +0.000 C 
ATOM      2  O   UNL     1       1.760   5.829  20.709  0.00  0.00    +0.000 OA
ATOM      3  N   UNL     1       3.337   5.843  19.077  0.00  0.00    +0.000 N 
ATOM      4  H   UNL     1       4.112   5.378  18.613  0.00  0.00    +0.000 HD
ENDROOT
BRANCH   1  10
ATOM      5  C   UNL     1       3.583   3.047  19.147  0.00  0.00    +0.000 C 
ATOM      6  C   UNL     1       2.489   2.794  18.104  0.00  0.00    +0.000 C 
ATOM      7  C   UNL     1       1.192   2.192  18.635  0.00  0.00    +0.000 C 
ATOM      8  C   UNL     1       0.717   2.783  19.960  0.00  0.00    +0.000 C 
ATOM      9  C   UNL     1       1.825   3.013  20.985  0.00  0.00    +0.000 C 
ATOM     10  C   UNL     1       3.021   3.776  20.406  0.00  0.00    +0.000 C 
BRANCH   5  12
ATOM     11  O   UNL     1       5.033   1.707  20.563  0.00  0.00    +0.000 OA
ATOM     12  C   UNL     1       4.353   1.792  19.565  0.00  0.00    +0.000 C 
BRANCH  12  13
ATOM     13  O   UNL     1       4.289   0.761  18.689  0.00  0.00    +0.000 OA
ATOM     14  H   UNL     1       3.404   0.425  18.468  0.00  0.00    +0.000 HD
ENDBRANCH  12  13
ENDBRANCH   5  12
ENDBRANCH   1  10
BRANCH   3  15
ATOM     15  C   UNL     1       3.034   7.226  18.737  0.00  0.00    +0.000 C 
BRANCH  15  16
ATOM     16  C   UNL     1       3.601   7.687  17.395  0.00  0.00    +0.000 C 
BRANCH  16  17
ATOM     17  C   UNL     1       4.981   7.166  17.135  0.00  0.00    +0.000 A 
ATOM     18  C   UNL     1       6.170   7.779  17.488  0.00  0.00    +0.000 A 
ATOM     19  N   UNL     1       7.207   6.983  17.077  0.00  0.00    +0.000 N 
ATOM     20  C   UNL     1       6.719   5.858  16.454  0.00  0.00    +0.000 A 
ATOM     21  C   UNL     1       7.406   4.777  15.886  0.00  0.00    +0.000 A 
ATOM     22  C   UNL     1       6.644   3.762  15.302  0.00  0.00    +0.000 A 
ATOM     23  C   UNL     1       5.253   3.828  15.286  0.00  0.00    +0.000 A 
ATOM     24  C   UNL     1       4.584   4.912  15.865  0.00  0.00    +0.000 A 
ATOM     25  C   UNL     1       5.328   5.949  16.465  0.00  0.00    +0.000 A 
ATOM     26  H   UNL     1       8.183   7.189  17.207  0.00  0.00    +0.000 HD
ENDBRANCH  16  17
ENDBRANCH  15  16
ENDBRANCH   3  15
TORSDOF 6
ENDMDL
MODEL 9
REMARK VINA RESULT:      -7.4      3.548      5.568
REMARK  Name = 
REMARK  6 active torsions:
REMARK  status: ('A' for Active; 'I' for Inactive)
REMARK    1  A    between atoms: C_2  and  O_3
REMARK    2  A    between atoms: C_2  and  C_4
REMARK    3  A    between atoms: C_9  and  C_10
REMARK    4  A    between atoms: N_12  and  C_13
REMARK    5  A    between atoms: C_13  and  C_14
REMARK    6  A    between atoms: C_14  and  C_15
REMARK                            x       y       z     vdW  Elec       q    Type
REMARK                         _______ _______ _______ _____ _____    ______ ____
ROOT
ATOM      1  C   UNL     1       3.161   7.294  18.105  0.00  0.00    +0.000 C 
ATOM      2  O   UNL     1       3.617   7.531  16.987  0.00  0.00    +0.000 OA
ATOM      3  N   UNL     1       2.207   8.110  18.668  0.00  0.00    +0.000 N 
ATOM      4  H   UNL     1       1.774   7.879  19.558  0.00  0.00    +0.000 HD
ENDROOT
BRANCH   1  10
ATOM      5  C   UNL     1       4.719   5.267  18.211  0.00  0.00    +0.000 C 
ATOM      6  C   UNL     1       4.164   4.528  16.989  0.00  0.00    +0.000 C 
ATOM      7  C   UNL     1       2.872   3.750  17.213  0.00  0.00    +0.000 C 
ATOM      8  C   UNL     1       1.838   4.476  18.070  0.00  0.00    +0.000 C 
ATOM      9  C   UNL     1       2.416   5.193  19.288  0.00  0.00    +0.000 C 
ATOM     10  C   UNL     1       3.611   6.087  18.940  0.00  0.00    +0.000 C 
BRANCH   5  12
ATOM     11  O   UNL     1       5.085   3.256  19.524  0.00  0.00    +0.000 OA
ATOM     12  C   UNL     1       5.450   4.367  19.209  0.00  0.00    +0.000 C 
BRANCH  12  13
ATOM     13  O   UNL     1       6.535   4.925  19.798  0.00  0.00    +0.000 OA
ATOM     14  H   UNL     1       6.966   5.656  19.324  0.00  0.00    +0.000 HD
ENDBRANCH  12  13
ENDBRANCH   5  12
ENDBRANCH   1  10
BRANCH   3  15
ATOM     15  C   UNL     1       1.725   9.265  17.924  0.00  0.00    +0.000 C 
BRANCH  15  16
ATOM     16  C   UNL     1       0.212   9.471  17.982  0.00  0.00    +0.000 C 
BRANCH  16  17
ATOM     17  C   UNL     1      -0.202  10.455  19.033  0.00  0.00    +0.000 A 
ATOM     18  C   UNL     1      -0.514  11.787  18.832  0.00  0.00    +0.000 A 
ATOM     19  N   UNL     1      -0.845  12.341  20.040  0.00  0.00    +0.000 N 
ATOM     20  C   UNL     1      -0.750  11.395  21.035  0.00  0.00    +0.000 A 
ATOM     21  C   UNL     1      -0.996  11.510  22.409  0.00  0.00    +0.000 A 
ATOM     22  C   UNL     1      -0.805  10.372  23.197  0.00  0.00    +0.000 A 
ATOM     23  C   UNL     1      -0.383   9.171  22.631  0.00  0.00    +0.000 A 
ATOM     24  C   UNL     1      -0.149   9.074  21.255  0.00  0.00    +0.000 A 
ATOM     25  C   UNL     1      -0.338  10.206  20.436  0.00  0.00    +0.000 A 
ATOM     26  H   UNL     1      -1.115  13.300  20.184  0.00  0.00    +0.000 HD
ENDBRANCH  16  17
ENDBRANCH  15  16
ENDBRANCH   3  15
TORSDOF 6
ENDMDL
