MODEL 1
REMARK VINA RESULT:      -9.0      0.000      0.000
REMARK  Name = 
REMARK  5 active torsions:
REMARK  status: ('A' for Active; 'I' for Inactive)
REMARK    1  A    between atoms: C_2  and  C_3
REMARK    2  A    between atoms: C_4  and  C_5
REMARK    3  A    between atoms: N_12  and  C_13
REMARK    4  A    between atoms: C_17  and  C_18
REMARK    5  A    between atoms: C_25  and  N_26
REMARK                            x       y       z     vdW  Elec       q    Type
REMARK                         _______ _______ _______ _____ _____    ______ ____
ROOT
ATOM      1  C   UNL     1       2.181   4.199  19.004  0.00  0.00    +0.000 A 
ATOM      2  C   UNL     1       2.817   5.442  18.433  0.00  0.00    +0.000 A 
ATOM      3  N   UNL     1       3.790   5.432  17.570  0.00  0.00    +0.000 NA
ATOM      4  N   UNL     1       4.211   4.221  17.059  0.00  0.00    +0.000 N 
ATOM      5  C   UNL     1       3.683   2.998  17.464  0.00  0.00    +0.000 A 
ATOM      6  O   UNL     1       4.086   1.878  17.130  0.00  0.00    +0.000 OA
ATOM      7  C   UNL     1       2.575   3.025  18.483  0.00  0.00    +0.000 A 
ENDROOT
BRANCH   2   8
ATOM      8  C   UNL     1       2.286   6.787  18.877  0.00  0.00    +0.000 A 
ATOM      9  C   UNL     1       1.988   7.008  20.228  0.00  0.00    +0.000 A 
ATOM     10  C   UNL     1       1.467   8.238  20.652  0.00  0.00    +0.000 A 
ATOM     11  C   UNL     1       1.230   9.258  19.731  0.00  0.00    +0.000 A 
ATOM     12  C   UNL     1       1.563   9.068  18.395  0.00  0.00    +0.000 A 
ATOM     13  C   UNL     1       2.127   7.859  17.985  0.00  0.00    +0.000 A 
ENDBRANCH   2   8
BRANCH   4  14
ATOM     14  C   UNL     1       5.266   4.294  16.086  0.00  0.00    +0.000 A 
ATOM     15  C   UNL     1       6.485   4.927  16.386  0.00  0.00    +0.000 A 
ATOM     16  C   UNL     1       7.489   5.083  15.430  0.00  0.00    +0.000 A 
ATOM     17  C   UNL     1       7.291   4.619  14.136  0.00  0.00    +0.000 A 
ATOM     18  C   UNL     1       6.095   3.967  13.800  0.00  0.00    +0.000 A 
ATOM     19  C   UNL     1       5.107   3.772  14.793  0.00  0.00    +0.000 A 
BRANCH  18  20
ATOM     20  C   UNL     1       5.851   3.515  12.382  0.00  0.00    +0.000 C 
ATOM     21  F   UNL     1       5.996   2.171  12.204  0.00  0.00    +0.000 F 
ATOM     22  F   UNL     1       4.599   3.813  11.940  0.00  0.00    +0.000 F 
ATOM     23  F   UNL     1       6.710   4.095  11.496  0.00  0.00    +0.000 F 
ENDBRANCH  18  20
ENDBRANCH   4  14
BRANCH   7  24
ATOM     24  N   UNL     1       2.100   1.756  18.855  0.00  0.00    +0.000 N 
ATOM     25  H   UNL     1       1.201   1.572  18.403  0.00  0.00    +0.000 HD
ATOM     26  H   UNL     1       2.780   1.016  18.718  0.00  0.00    +0.000 HD
ENDBRANCH   7  24
BRANCH   1  28
ATOM     27  C   UNL     1       1.424   3.645  21.287  0.00  0.00    +0.000 C 
ATOM     28  C   UNL     1       1.221   4.236  20.102  0.00  0.00    +0.000 C 
ENDBRANCH   1  28
TORSDOF 5
ENDMDL
MODEL 2
REMARK VINA RESULT:      -8.5      4.983      7.673
REMARK  Name = 
REMARK  5 active torsions:
REMARK  status: ('A' for Active; 'I' for Inactive)
REMARK    1  A    between atoms: C_2  and  C_3
REMARK    2  A    between atoms: C_4  and  C_5
REMARK    3  A    between atoms: N_12  and  C_13
REMARK    4  A    between atoms: C_17  and  C_18
REMARK    5  A    between atoms: C_25  and  N_26
REMARK                            x       y       z     vdW  Elec       q    Type
REMARK                         _______ _______ _______ _____ _____    ______ ____
ROOT
ATOM      1  C   UNL     1       3.754   3.633  19.195  0.00  0.00    +0.000 A 
ATOM      2  C   UNL     1       4.035   4.823  18.311  0.00  0.00    +0.000 A 
ATOM      3  N   UNL     1       3.435   5.971  18.423  0.00  0.00    +0.000 NA
ATOM      4  N   UNL     1       2.557   6.162  19.471  0.00  0.00    +0.000 N 
ATOM      5  C   UNL     1       2.236   5.164  20.388  0.00  0.00    +0.000 A 
ATOM      6  O   UNL     1       1.383   5.234  21.279  0.00  0.00    +0.000 OA
ATOM      7  C   UNL     1       2.921   3.833  20.230  0.00  0.00    +0.000 A 
ENDROOT
BRANCH   2   8
ATOM      8  C   UNL     1       5.089   4.682  17.235  0.00  0.00    +0.000 A 
ATOM      9  C   UNL     1       6.443   4.825  17.562  0.00  0.00    +0.000 A 
ATOM     10  C   UNL     1       7.431   4.728  16.571  0.00  0.00    +0.000 A 
ATOM     11  C   UNL     1       7.075   4.495  15.243  0.00  0.00    +0.000 A 
ATOM     12  C   UNL     1       5.739   4.306  14.912  0.00  0.00    +0.000 A 
ATOM     13  C   UNL     1       4.763   4.355  15.909  0.00  0.00    +0.000 A 
ENDBRANCH   2   8
BRANCH   4  14
ATOM     14  C   UNL     1       1.959   7.467  19.546  0.00  0.00    +0.000 A 
ATOM     15  C   UNL     1       2.011   8.351  18.455  0.00  0.00    +0.000 A 
ATOM     16  C   UNL     1       1.511   9.652  18.536  0.00  0.00    +0.000 A 
ATOM     17  C   UNL     1       0.958  10.108  19.725  0.00  0.00    +0.000 A 
ATOM     18  C   UNL     1       0.874   9.251  20.833  0.00  0.00    +0.000 A 
ATOM     19  C   UNL     1       1.338   7.920  20.720  0.00  0.00    +0.000 A 
BRANCH  18  20
ATOM     20  C   UNL     1       0.329   9.761  22.144  0.00  0.00    +0.000 C 
ATOM     21  F   UNL     1       1.151   9.525  23.206  0.00  0.00    +0.000 F 
ATOM     22  F   UNL     1       0.108  11.104  22.139  0.00  0.00    +0.000 F 
ATOM     23  F   UNL     1      -0.863   9.187  22.471  0.00  0.00    +0.000 F 
ENDBRANCH  18  20
ENDBRANCH   4  14
BRANCH   7  24
ATOM     24  N   UNL     1       2.540   2.871  21.180  0.00  0.00    +0.000 N 
ATOM     25  H   UNL     1       2.684   3.235  22.125  0.00  0.00    +0.000 HD
ATOM     26  H   UNL     1       1.607   2.502  21.028  0.00  0.00    +0.000 HD
ENDBRANCH   7  24
BRANCH   1  28
ATOM     27  C   UNL     1       3.691   1.381  18.187  0.00  0.00    +0.000 C 
ATOM     28  C   UNL     1       4.305   2.308  18.934  0.00  0.00    +0.000 C 
ENDBRANCH   1  28
TORSDOF 5
ENDMDL
MODEL 3
REMARK VINA RESULT:      -8.5      5.016      7.676
REMARK  Name = 
REMARK  5 active torsions:
REMARK  status: ('A' for Active; 'I' for Inactive)
REMARK    1  A    between atoms: C_2  and  C_3
REMARK    2  A    between atoms: C_4  and  C_5
REMARK    3  A    between atoms: N_12  and  C_13
REMARK    4  A    between atoms: C_17  and  C_18
REMARK    5  A    between atoms: C_25  and  N_26
REMARK                            x       y       z     vdW  Elec       q    Type
REMARK                         _______ _______ _______ _____ _____    ______ ____
ROOT
ATOM      1  C   UNL     1       3.573   4.020  19.366  0.00  0.00    +0.000 A 
ATOM      2  C   UNL     1       3.974   5.100  18.391  0.00  0.00    +0.000 A 
ATOM      3  N   UNL     1       3.427   6.278  18.343  0.00  0.00    +0.000 NA
ATOM      4  N   UNL     1       2.491   6.614  19.301  0.00  0.00    +0.000 N 
ATOM      5  C   UNL     1       2.058   5.731  20.286  0.00  0.00    +0.000 A 
ATOM      6  O   UNL     1       1.151   5.928  21.102  0.00  0.00    +0.000 OA
ATOM      7  C   UNL     1       2.683   4.361  20.312  0.00  0.00    +0.000 A 
ENDROOT
BRANCH   2   8
ATOM      8  C   UNL     1       5.091   4.803  17.413  0.00  0.00    +0.000 A 
ATOM      9  C   UNL     1       4.786   4.429  16.099  0.00  0.00    +0.000 A 
ATOM     10  C   UNL     1       5.807   4.122  15.189  0.00  0.00    +0.000 A 
ATOM     11  C   UNL     1       7.143   4.177  15.585  0.00  0.00    +0.000 A 
ATOM     12  C   UNL     1       7.462   4.591  16.873  0.00  0.00    +0.000 A 
ATOM     13  C   UNL     1       6.443   4.942  17.761  0.00  0.00    +0.000 A 
ENDBRANCH   2   8
BRANCH   4  14
ATOM     14  C   UNL     1       1.956   7.944  19.202  0.00  0.00    +0.000 A 
ATOM     15  C   UNL     1       2.120   8.706  18.033  0.00  0.00    +0.000 A 
ATOM     16  C   UNL     1       1.683  10.029  17.947  0.00  0.00    +0.000 A 
ATOM     17  C   UNL     1       1.081  10.631  19.044  0.00  0.00    +0.000 A 
ATOM     18  C   UNL     1       0.884   9.900  20.225  0.00  0.00    +0.000 A 
ATOM     19  C   UNL     1       1.287   8.545  20.280  0.00  0.00    +0.000 A 
BRANCH  18  20
ATOM     20  C   UNL     1       0.284  10.568  21.437  0.00  0.00    +0.000 C 
ATOM     21  F   UNL     1       0.622   9.967  22.614  0.00  0.00    +0.000 F 
ATOM     22  F   UNL     1       0.662  11.869  21.566  0.00  0.00    +0.000 F 
ATOM     23  F   UNL     1      -1.078  10.574  21.408  0.00  0.00    +0.000 F 
ENDBRANCH  18  20
ENDBRANCH   4  14
BRANCH   7  24
ATOM     24  N   UNL     1       2.190   3.520  21.323  0.00  0.00    +0.000 N 
ATOM     25  H   UNL     1       1.273   3.847  21.636  0.00  0.00    +0.000 HD
ATOM     26  H   UNL     1       2.203   2.537  21.070  0.00  0.00    +0.000 HD
ENDBRANCH   7  24
BRANCH   1  28
ATOM     27  C   UNL     1       3.532   1.711  18.493  0.00  0.00    +0.000 C 
ATOM     28  C   UNL     1       4.073   2.652  19.279  0.00  0.00    +0.000 C 
ENDBRANCH   1  28
TORSDOF 5
ENDMDL
MODEL 4
REMARK VINA RESULT:      -8.4      5.027      7.755
REMARK  Name = 
REMARK  5 active torsions:
REMARK  status: ('A' for Active; 'I' for Inactive)
REMARK    1  A    between atoms: C_2  and  C_3
REMARK    2  A    between atoms: C_4  and  C_5
REMARK    3  A    between atoms: N_12  and  C_13
REMARK    4  A    between atoms: C_17  and  C_18
REMARK    5  A    between atoms: C_25  and  N_26
REMARK                            x       y       z     vdW  Elec       q    Type
REMARK                         _______ _______ _______ _____ _____    ______ ____
ROOT
ATOM      1  C   UNL     1       3.642   3.666  19.193  0.00  0.00    +0.000 A 
ATOM      2  C   UNL     1       3.997   4.897  18.396  0.00  0.00    +0.000 A 
ATOM      3  N   UNL     1       3.406   6.048  18.532  0.00  0.00    +0.000 NA
ATOM      4  N   UNL     1       2.466   6.196  19.531  0.00  0.00    +0.000 N 
ATOM      5  C   UNL     1       2.072   5.156  20.369  0.00  0.00    +0.000 A 
ATOM      6  O   UNL     1       1.164   5.192  21.206  0.00  0.00    +0.000 OA
ATOM      7  C   UNL     1       2.747   3.824  20.181  0.00  0.00    +0.000 A 
ENDROOT
BRANCH   2   8
ATOM      8  C   UNL     1       5.116   4.797  17.383  0.00  0.00    +0.000 A 
ATOM      9  C   UNL     1       4.816   4.648  16.023  0.00  0.00    +0.000 A 
ATOM     10  C   UNL     1       5.841   4.524  15.075  0.00  0.00    +0.000 A 
ATOM     11  C   UNL     1       7.176   4.538  15.476  0.00  0.00    +0.000 A 
ATOM     12  C   UNL     1       7.490   4.731  16.816  0.00  0.00    +0.000 A 
ATOM     13  C   UNL     1       6.467   4.903  17.750  0.00  0.00    +0.000 A 
ENDBRANCH   2   8
BRANCH   4  14
ATOM     14  C   UNL     1       1.882   7.506  19.640  0.00  0.00    +0.000 A 
ATOM     15  C   UNL     1       1.950   8.420  18.575  0.00  0.00    +0.000 A 
ATOM     16  C   UNL     1       1.464   9.723  18.690  0.00  0.00    +0.000 A 
ATOM     17  C   UNL     1       0.910  10.152  19.890  0.00  0.00    +0.000 A 
ATOM     18  C   UNL     1       0.810   9.265  20.972  0.00  0.00    +0.000 A 
ATOM     19  C   UNL     1       1.260   7.933  20.824  0.00  0.00    +0.000 A 
BRANCH  18  20
ATOM     20  C   UNL     1       0.264   9.744  22.294  0.00  0.00    +0.000 C 
ATOM     21  F   UNL     1      -0.018  11.078  22.319  0.00  0.00    +0.000 F 
ATOM     22  F   UNL     1      -0.891   9.117  22.647  0.00  0.00    +0.000 F 
ATOM     23  F   UNL     1       1.133   9.535  23.323  0.00  0.00    +0.000 F 
ENDBRANCH  18  20
ENDBRANCH   4  14
BRANCH   7  24
ATOM     24  N   UNL     1       2.292   2.818  21.050  0.00  0.00    +0.000 N 
ATOM     25  H   UNL     1       2.393   1.901  20.608  0.00  0.00    +0.000 HD
ATOM     26  H   UNL     1       2.706   2.868  21.975  0.00  0.00    +0.000 HD
ENDBRANCH   7  24
BRANCH   1  28
ATOM     27  C   UNL     1       3.622   1.480  18.046  0.00  0.00    +0.000 C 
ATOM     28  C   UNL     1       4.191   2.347  18.894  0.00  0.00    +0.000 C 
ENDBRANCH   1  28
TORSDOF 5
ENDMDL
MODEL 5
REMARK VINA RESULT:      -8.4      4.998      7.625
REMARK  Name = 
REMARK  5 active torsions:
REMARK  status: ('A' for Active; 'I' for Inactive)
REMARK    1  A    between atoms: C_2  and  C_3
REMARK    2  A    between atoms: C_4  and  C_5
REMARK    3  A    between atoms: N_12  and  C_13
REMARK    4  A    between atoms: C_17  and  C_18
REMARK    5  A    between atoms: C_25  and  N_26
REMARK                            x       y       z     vdW  Elec       q    Type
REMARK                         _______ _______ _______ _____ _____    ______ ____
ROOT
ATOM      1  C   UNL     1       3.564   4.121  19.381  0.00  0.00    +0.000 A 
ATOM      2  C   UNL     1       3.959   5.164  18.365  0.00  0.00    +0.000 A 
ATOM      3  N   UNL     1       3.417   6.344  18.285  0.00  0.00    +0.000 NA
ATOM      4  N   UNL     1       2.494   6.717  19.241  0.00  0.00    +0.000 N 
ATOM      5  C   UNL     1       2.069   5.870  20.260  0.00  0.00    +0.000 A 
ATOM      6  O   UNL     1       1.172   6.100  21.079  0.00  0.00    +0.000 OA
ATOM      7  C   UNL     1       2.686   4.499  20.325  0.00  0.00    +0.000 A 
ENDROOT
BRANCH   2   8
ATOM      8  C   UNL     1       5.062   4.829  17.386  0.00  0.00    +0.000 A 
ATOM      9  C   UNL     1       6.400   4.881  17.797  0.00  0.00    +0.000 A 
ATOM     10  C   UNL     1       7.436   4.602  16.894  0.00  0.00    +0.000 A 
ATOM     11  C   UNL     1       7.146   4.277  15.569  0.00  0.00    +0.000 A 
ATOM     12  C   UNL     1       5.822   4.177  15.159  0.00  0.00    +0.000 A 
ATOM     13  C   UNL     1       4.793   4.408  16.074  0.00  0.00    +0.000 A 
ENDBRANCH   2   8
BRANCH   4  14
ATOM     14  C   UNL     1       1.966   8.046  19.104  0.00  0.00    +0.000 A 
ATOM     15  C   UNL     1       2.271   8.835  17.981  0.00  0.00    +0.000 A 
ATOM     16  C   UNL     1       1.838  10.157  17.868  0.00  0.00    +0.000 A 
ATOM     17  C   UNL     1       1.096  10.731  18.892  0.00  0.00    +0.000 A 
ATOM     18  C   UNL     1       0.757   9.973  20.023  0.00  0.00    +0.000 A 
ATOM     19  C   UNL     1       1.161   8.620  20.100  0.00  0.00    +0.000 A 
BRANCH  18  20
ATOM     20  C   UNL     1       0.003  10.611  21.164  0.00  0.00    +0.000 C 
ATOM     21  F   UNL     1      -1.222  11.092  20.807  0.00  0.00    +0.000 F 
ATOM     22  F   UNL     1      -0.224   9.751  22.193  0.00  0.00    +0.000 F 
ATOM     23  F   UNL     1       0.671  11.670  21.701  0.00  0.00    +0.000 F 
ENDBRANCH  18  20
ENDBRANCH   4  14
BRANCH   7  24
ATOM     24  N   UNL     1       2.201   3.694  21.369  0.00  0.00    +0.000 N 
ATOM     25  H   UNL     1       2.965   3.439  22.000  0.00  0.00    +0.000 HD
ATOM     26  H   UNL     1       1.400   4.095  21.847  0.00  0.00    +0.000 HD
ENDBRANCH   7  24
BRANCH   1  28
ATOM     27  C   UNL     1       3.543   1.801  18.535  0.00  0.00    +0.000 C 
ATOM     28  C   UNL     1       4.055   2.747  19.334  0.00  0.00    +0.000 C 
ENDBRANCH   1  28
TORSDOF 5
ENDMDL
MODEL 6
REMARK VINA RESULT:      -8.1      2.450      4.026
REMARK  Name = 
REMARK  5 active torsions:
REMARK  status: ('A' for Active; 'I' for Inactive)
REMARK    1  A    between atoms: C_2  and  C_3
REMARK    2  A    between atoms: C_4  and  C_5
REMARK    3  A    between atoms: N_12  and  C_13
REMARK    4  A    between atoms: C_17  and  C_18
REMARK    5  A    between atoms: C_25  and  N_26
REMARK                            x       y       z     vdW  Elec       q    Type
REMARK                         _______ _______ _______ _____ _____    ______ ____
ROOT
ATOM      1  C   UNL     1       5.136   5.085  18.343  0.00  0.00    +0.000 A 
ATOM      2  C   UNL     1       4.346   4.232  17.381  0.00  0.00    +0.000 A 
ATOM      3  N   UNL     1       4.656   4.069  16.129  0.00  0.00    +0.000 NA
ATOM      4  N   UNL     1       5.830   4.620  15.659  0.00  0.00    +0.000 N 
ATOM      5  C   UNL     1       6.677   5.395  16.447  0.00  0.00    +0.000 A 
ATOM      6  O   UNL     1       7.682   6.005  16.064  0.00  0.00    +0.000 OA
ATOM      7  C   UNL     1       6.292   5.596  17.888  0.00  0.00    +0.000 A 
ENDROOT
BRANCH   2   8
ATOM      8  C   UNL     1       3.124   3.508  17.903  0.00  0.00    +0.000 A 
ATOM      9  C   UNL     1       1.849   4.048  17.689  0.00  0.00    +0.000 A 
ATOM     10  C   UNL     1       0.708   3.407  18.192  0.00  0.00    +0.000 A 
ATOM     11  C   UNL     1       0.830   2.224  18.921  0.00  0.00    +0.000 A 
ATOM     12  C   UNL     1       2.084   1.653  19.101  0.00  0.00    +0.000 A 
ATOM     13  C   UNL     1       3.212   2.270  18.557  0.00  0.00    +0.000 A 
ENDBRANCH   2   8
BRANCH   4  14
ATOM     14  C   UNL     1       6.120   4.368  14.274  0.00  0.00    +0.000 A 
ATOM     15  C   UNL     1       7.326   4.802  13.695  0.00  0.00    +0.000 A 
ATOM     16  C   UNL     1       7.590   4.642  12.335  0.00  0.00    +0.000 A 
ATOM     17  C   UNL     1       6.641   4.054  11.509  0.00  0.00    +0.000 A 
ATOM     18  C   UNL     1       5.431   3.592  12.050  0.00  0.00    +0.000 A 
ATOM     19  C   UNL     1       5.198   3.716  13.440  0.00  0.00    +0.000 A 
BRANCH  18  20
ATOM     20  C   UNL     1       4.373   3.007  11.149  0.00  0.00    +0.000 C 
ATOM     21  F   UNL     1       3.178   2.801  11.772  0.00  0.00    +0.000 F 
ATOM     22  F   UNL     1       4.098   3.796  10.075  0.00  0.00    +0.000 F 
ATOM     23  F   UNL     1       4.735   1.795  10.641  0.00  0.00    +0.000 F 
ENDBRANCH  18  20
ENDBRANCH   4  14
BRANCH   7  24
ATOM     24  N   UNL     1       7.184   6.398  18.619  0.00  0.00    +0.000 N 
ATOM     25  H   UNL     1       6.748   7.298  18.836  0.00  0.00    +0.000 HD
ATOM     26  H   UNL     1       7.571   5.930  19.431  0.00  0.00    +0.000 HD
ENDBRANCH   7  24
BRANCH   1  28
ATOM     27  C   UNL     1       3.478   5.958  19.951  0.00  0.00    +0.000 C 
ATOM     28  C   UNL     1       4.667   5.398  19.689  0.00  0.00    +0.000 C 
ENDBRANCH   1  28
TORSDOF 5
ENDMDL
MODEL 7
REMARK VINA RESULT:      -8.0      3.816      6.976
REMARK  Name = 
REMARK  5 active torsions:
REMARK  status: ('A' for Active; 'I' for Inactive)
REMARK    1  A    between atoms: C_2  and  C_3
REMARK    2  A    between atoms: C_4  and  C_5
REMARK    3  A    between atoms: N_12  and  C_13
REMARK    4  A    between atoms: C_17  and  C_18
REMARK    5  A    between atoms: C_25  and  N_26
REMARK                            x       y       z     vdW  Elec       q    Type
REMARK                         _______ _______ _______ _____ _____    ______ ____
ROOT
ATOM      1  C   UNL     1       3.076   3.339  18.463  0.00  0.00    +0.000 A 
ATOM      2  C   UNL     1       3.730   4.657  18.130  0.00  0.00    +0.000 A 
ATOM      3  N   UNL     1       3.312   5.808  18.567  0.00  0.00    +0.000 NA
ATOM      4  N   UNL     1       2.270   5.835  19.473  0.00  0.00    +0.000 N 
ATOM      5  C   UNL     1       1.603   4.691  19.901  0.00  0.00    +0.000 A 
ATOM      6  O   UNL     1       0.599   4.653  20.621  0.00  0.00    +0.000 OA
ATOM      7  C   UNL     1       2.082   3.368  19.365  0.00  0.00    +0.000 A 
ENDROOT
BRANCH   2   8
ATOM      8  C   UNL     1       4.955   4.645  17.242  0.00  0.00    +0.000 A 
ATOM      9  C   UNL     1       6.231   4.584  17.816  0.00  0.00    +0.000 A 
ATOM     10  C   UNL     1       7.378   4.602  17.010  0.00  0.00    +0.000 A 
ATOM     11  C   UNL     1       7.262   4.691  15.623  0.00  0.00    +0.000 A 
ATOM     12  C   UNL     1       6.002   4.707  15.038  0.00  0.00    +0.000 A 
ATOM     13  C   UNL     1       4.863   4.639  15.842  0.00  0.00    +0.000 A 
ENDBRANCH   2   8
BRANCH   4  14
ATOM     14  C   UNL     1       1.888   7.141  19.936  0.00  0.00    +0.000 A 
ATOM     15  C   UNL     1       1.461   7.344  21.259  0.00  0.00    +0.000 A 
ATOM     16  C   UNL     1       1.006   8.586  21.705  0.00  0.00    +0.000 A 
ATOM     17  C   UNL     1       0.951   9.659  20.825  0.00  0.00    +0.000 A 
ATOM     18  C   UNL     1       1.383   9.502  19.500  0.00  0.00    +0.000 A 
ATOM     19  C   UNL     1       1.889   8.251  19.076  0.00  0.00    +0.000 A 
BRANCH  18  20
ATOM     20  C   UNL     1       1.269  10.649  18.526  0.00  0.00    +0.000 C 
ATOM     21  F   UNL     1       1.573  11.861  19.071  0.00  0.00    +0.000 F 
ATOM     22  F   UNL     1       2.092  10.512  17.450  0.00  0.00    +0.000 F 
ATOM     23  F   UNL     1       0.010  10.780  18.021  0.00  0.00    +0.000 F 
ENDBRANCH  18  20
ENDBRANCH   4  14
BRANCH   7  24
ATOM     24  N   UNL     1       1.355   2.259  19.829  0.00  0.00    +0.000 N 
ATOM     25  H   UNL     1       1.237   2.316  20.843  0.00  0.00    +0.000 HD
ATOM     26  H   UNL     1       0.484   2.111  19.329  0.00  0.00    +0.000 HD
ENDBRANCH   7  24
BRANCH   1  28
ATOM     27  C   UNL     1       4.133   1.108  18.426  0.00  0.00    +0.000 C 
ATOM     28  C   UNL     1       3.451   2.086  17.815  0.00  0.00    +0.000 C 
ENDBRANCH   1  28
TORSDOF 5
ENDMDL
MODEL 8
REMARK VINA RESULT:      -8.0      3.867      7.045
REMARK  Name = 
REMARK  5 active torsions:
REMARK  status: ('A' for Active; 'I' for Inactive)
REMARK    1  A    between atoms: C_2  and  C_3
REMARK    2  A    between atoms: C_4  and  C_5
REMARK    3  A    between atoms: N_12  and  C_13
REMARK    4  A    between atoms: C_17  and  C_18
REMARK    5  A    between atoms: C_25  and  N_26
REMARK                            x       y       z     vdW  Elec       q    Type
REMARK                         _______ _______ _______ _____ _____    ______ ____
ROOT
ATOM      1  C   UNL     1       3.084   3.440  18.458  0.00  0.00    +0.000 A 
ATOM      2  C   UNL     1       3.747   4.762  18.160  0.00  0.00    +0.000 A 
ATOM      3  N   UNL     1       3.324   5.907  18.609  0.00  0.00    +0.000 NA
ATOM      4  N   UNL     1       2.266   5.921  19.495  0.00  0.00    +0.000 N 
ATOM      5  C   UNL     1       1.587   4.772  19.891  0.00  0.00    +0.000 A 
ATOM      6  O   UNL     1       0.570   4.726  20.591  0.00  0.00    +0.000 OA
ATOM      7  C   UNL     1       2.073   3.457  19.343  0.00  0.00    +0.000 A 
ENDROOT
BRANCH   2   8
ATOM      8  C   UNL     1       4.989   4.761  17.296  0.00  0.00    +0.000 A 
ATOM      9  C   UNL     1       4.876   4.932  15.911  0.00  0.00    +0.000 A 
ATOM     10  C   UNL     1       6.014   4.904  15.092  0.00  0.00    +0.000 A 
ATOM     11  C   UNL     1       7.276   4.696  15.648  0.00  0.00    +0.000 A 
ATOM     12  C   UNL     1       7.408   4.570  17.026  0.00  0.00    +0.000 A 
ATOM     13  C   UNL     1       6.278   4.648  17.841  0.00  0.00    +0.000 A 
ENDBRANCH   2   8
BRANCH   4  14
ATOM     14  C   UNL     1       1.878   7.221  19.972  0.00  0.00    +0.000 A 
ATOM     15  C   UNL     1       1.544   7.427  21.322  0.00  0.00    +0.000 A 
ATOM     16  C   UNL     1       1.085   8.659  21.788  0.00  0.00    +0.000 A 
ATOM     17  C   UNL     1       0.932   9.720  20.904  0.00  0.00    +0.000 A 
ATOM     18  C   UNL     1       1.269   9.560  19.552  0.00  0.00    +0.000 A 
ATOM     19  C   UNL     1       1.781   8.320  19.104  0.00  0.00    +0.000 A 
BRANCH  18  20
ATOM     20  C   UNL     1       1.048  10.691  18.578  0.00  0.00    +0.000 C 
ATOM     21  F   UNL     1      -0.100  10.570  17.853  0.00  0.00    +0.000 F 
ATOM     22  F   UNL     1       0.974  11.906  19.186  0.00  0.00    +0.000 F 
ATOM     23  F   UNL     1       2.051  10.791  17.661  0.00  0.00    +0.000 F 
ENDBRANCH  18  20
ENDBRANCH   4  14
BRANCH   7  24
ATOM     24  N   UNL     1       1.334   2.343  19.773  0.00  0.00    +0.000 N 
ATOM     25  H   UNL     1       0.354   2.603  19.908  0.00  0.00    +0.000 HD
ATOM     26  H   UNL     1       1.458   1.526  19.184  0.00  0.00    +0.000 HD
ENDBRANCH   7  24
BRANCH   1  28
ATOM     27  C   UNL     1       4.052   1.169  18.427  0.00  0.00    +0.000 C 
ATOM     28  C   UNL     1       3.468   2.197  17.797  0.00  0.00    +0.000 C 
ENDBRANCH   1  28
TORSDOF 5
ENDMDL
MODEL 9
REMARK VINA RESULT:      -7.9      2.471      4.064
REMARK  Name = 
REMARK  5 active torsions:
REMARK  status: ('A' for Active; 'I' for Inactive)
REMARK    1  A    between atoms: C_2  and  C_3
REMARK    2  A    between atoms: C_4  and  C_5
REMARK    3  A    between atoms: N_12  and  C_13
REMARK    4  A    between atoms: C_17  and  C_18
REMARK    5  A    between atoms: C_25  and  N_26
REMARK                            x       y       z     vdW  Elec       q    Type
REMARK                         _______ _______ _______ _____ _____    ______ ____
ROOT
ATOM      1  C   UNL     1       5.136   5.129  18.189  0.00  0.00    +0.000 A 
ATOM      2  C   UNL     1       4.297   4.241  17.303  0.00  0.00    +0.000 A 
ATOM      3  N   UNL     1       4.553   4.015  16.048  0.00  0.00    +0.000 NA
ATOM      4  N   UNL     1       5.712   4.529  15.504  0.00  0.00    +0.000 N 
ATOM      5  C   UNL     1       6.600   5.329  16.218  0.00  0.00    +0.000 A 
ATOM      6  O   UNL     1       7.593   5.908  15.765  0.00  0.00    +0.000 OA
ATOM      7  C   UNL     1       6.277   5.603  17.663  0.00  0.00    +0.000 A 
ENDROOT
BRANCH   2   8
ATOM      8  C   UNL     1       3.091   3.558  17.910  0.00  0.00    +0.000 A 
ATOM      9  C   UNL     1       3.264   2.439  18.733  0.00  0.00    +0.000 A 
ATOM     10  C   UNL     1       2.155   1.776  19.279  0.00  0.00    +0.000 A 
ATOM     11  C   UNL     1       0.863   2.219  19.000  0.00  0.00    +0.000 A 
ATOM     12  C   UNL     1       0.679   3.356  18.223  0.00  0.00    +0.000 A 
ATOM     13  C   UNL     1       1.787   4.041  17.722  0.00  0.00    +0.000 A 
ENDBRANCH   2   8
BRANCH   4  14
ATOM     14  C   UNL     1       5.941   4.208  14.122  0.00  0.00    +0.000 A 
ATOM     15  C   UNL     1       7.203   4.398  13.533  0.00  0.00    +0.000 A 
ATOM     16  C   UNL     1       7.424   4.173  12.174  0.00  0.00    +0.000 A 
ATOM     17  C   UNL     1       6.375   3.764  11.360  0.00  0.00    +0.000 A 
ATOM     18  C   UNL     1       5.104   3.547  11.912  0.00  0.00    +0.000 A 
ATOM     19  C   UNL     1       4.907   3.732  13.301  0.00  0.00    +0.000 A 
BRANCH  18  20
ATOM     20  C   UNL     1       3.948   3.161  11.022  0.00  0.00    +0.000 C 
ATOM     21  F   UNL     1       3.556   4.155  10.175  0.00  0.00    +0.000 F 
ATOM     22  F   UNL     1       4.225   2.090  10.231  0.00  0.00    +0.000 F 
ATOM     23  F   UNL     1       2.834   2.825  11.732  0.00  0.00    +0.000 F 
ENDBRANCH  18  20
ENDBRANCH   4  14
BRANCH   7  24
ATOM     24  N   UNL     1       7.208   6.428  18.317  0.00  0.00    +0.000 N 
ATOM     25  H   UNL     1       7.920   6.746  17.655  0.00  0.00    +0.000 HD
ATOM     26  H   UNL     1       6.777   7.182  18.841  0.00  0.00    +0.000 HD
ENDBRANCH   7  24
BRANCH   1  28
ATOM     27  C   UNL     1       3.556   6.095  19.822  0.00  0.00    +0.000 C 
ATOM     28  C   UNL     1       4.728   5.511  19.537  0.00  0.00    +0.000 C 
ENDBRANCH   1  28
TORSDOF 5
ENDMDL
