MODEL 1
REMARK VINA RESULT:      -7.2      0.000      0.000
REMARK  Name = 
REMARK  9 active torsions:
REMARK  status: ('A' for Active; 'I' for Inactive)
REMARK    1  A    between atoms: C_1  and  C_2
REMARK    2  A    between atoms: C_2  and  C_3
REMARK    3  A    between atoms: C_2  and  C_4
REMARK    4  A    between atoms: C_2  and  C_8
REMARK    5  A    between atoms: C_4  and  C_5
REMARK    6  A    between atoms: C_5  and  O_7
REMARK    7  A    between atoms: C_8  and  C_9
REMARK    8  A    between atoms: N_11  and  C_12
REMARK    9  A    between atoms: C_18  and  C_19
REMARK                            x       y       z     vdW  Elec       q    Type
REMARK                         _______ _______ _______ _____ _____    ______ ____
ROOT
ATOM      1  C   UNL     1       4.481   6.097  16.805  0.00  0.00    +0.000 C 
ATOM      2  O   UNL     1       4.649   7.175  17.379  0.00  0.00    +0.000 OA
ATOM      3  N   UNL     1       3.794   5.005  17.310  0.00  0.00    +0.000 N 
ATOM      4  H   UNL     1       3.904   4.092  16.846  0.00  0.00    +0.000 HD
ENDROOT
BRANCH   3   5
ATOM      5  C   UNL     1       3.090   4.978  18.551  0.00  0.00    +0.000 A 
ATOM      6  C   UNL     1       2.393   6.130  18.960  0.00  0.00    +0.000 A 
ATOM      7  C   UNL     1       1.769   6.207  20.196  0.00  0.00    +0.000 A 
ATOM      8  C   UNL     1       1.799   5.114  21.045  0.00  0.00    +0.000 A 
ATOM      9  C   UNL     1       2.424   3.924  20.648  0.00  0.00    +0.000 A 
ATOM     10 CL   UNL     1       2.294   2.636  21.802  0.00  0.00    +0.000 Cl
ATOM     11  C   UNL     1       3.076   3.829  19.395  0.00  0.00    +0.000 A 
BRANCH  11  12
ATOM     12  C   UNL     1       3.758   2.581  18.923  0.00  0.00    +0.000 C 
ATOM     13  N   UNL     1       4.958   2.221  19.470  0.00  0.00    +0.000 N 
ATOM     14  O   UNL     1       3.263   1.889  18.039  0.00  0.00    +0.000 OA
ATOM     15  H   UNL     1       5.363   2.689  20.273  0.00  0.00    +0.000 HD
ATOM     16  H   UNL     1       5.372   1.345  19.188  0.00  0.00    +0.000 HD
ENDBRANCH  11  12
ENDBRANCH   3   5
BRANCH   1  17
ATOM     17  C   UNL     1       5.143   5.905  15.450  0.00  0.00    +0.000 C 
BRANCH  17  19
ATOM     18  C   UNL     1       7.093   5.158  14.099  0.00  0.00    +0.000 C 
ATOM     19  C   UNL     1       6.432   5.029  15.487  0.00  0.00    +0.000 C 
ATOM     20  C   UNL     1       6.030   3.564  15.725  0.00  0.00    +0.000 C 
BRANCH  19  21
ATOM     21  C   UNL     1       7.403   5.539  16.590  0.00  0.00    +0.000 C 
BRANCH  21  22
ATOM     22  C   UNL     1       7.682   4.611  17.759  0.00  0.00    +0.000 C 
ATOM     23  O   UNL     1       8.689   3.944  17.931  0.00  0.00    +0.000 OA
BRANCH  22  24
ATOM     24  O   UNL     1       6.651   4.580  18.638  0.00  0.00    +0.000 OA
ATOM     25  H   UNL     1       6.798   3.983  19.396  0.00  0.00    +0.000 HD
ENDBRANCH  22  24
ENDBRANCH  21  22
ENDBRANCH  19  21
ENDBRANCH  17  19
ENDBRANCH   1  17
TORSDOF 7
ENDMDL
MODEL 2
REMARK VINA RESULT:      -6.9      1.236      1.835
REMARK  Name = 
REMARK  9 active torsions:
REMARK  status: ('A' for Active; 'I' for Inactive)
REMARK    1  A    between atoms: C_1  and  C_2
REMARK    2  A    between atoms: C_2  and  C_3
REMARK    3  A    between atoms: C_2  and  C_4
REMARK    4  A    between atoms: C_2  and  C_8
REMARK    5  A    between atoms: C_4  and  C_5
REMARK    6  A    between atoms: C_5  and  O_7
REMARK    7  A    between atoms: C_8  and  C_9
REMARK    8  A    between atoms: N_11  and  C_12
REMARK    9  A    between atoms: C_18  and  C_19
REMARK                            x       y       z     vdW  Elec       q    Type
REMARK                         _______ _______ _______ _____ _____    ______ ____
ROOT
ATOM      1  C   UNL     1       4.584   3.874  16.687  0.00  0.00    +0.000 C 
ATOM      2  O   UNL     1       3.495   3.610  16.171  0.00  0.00    +0.000 OA
ATOM      3  N   UNL     1       4.780   4.340  17.976  0.00  0.00    +0.000 N 
ATOM      4  H   UNL     1       5.699   4.735  18.226  0.00  0.00    +0.000 HD
ENDROOT
BRANCH   3   5
ATOM      5  C   UNL     1       3.756   4.511  18.954  0.00  0.00    +0.000 A 
ATOM      6  C   UNL     1       3.151   5.775  19.089  0.00  0.00    +0.000 A 
ATOM      7  C   UNL     1       2.219   6.038  20.081  0.00  0.00    +0.000 A 
ATOM      8  C   UNL     1       1.841   5.028  20.948  0.00  0.00    +0.000 A 
ATOM      9  C   UNL     1       2.368   3.737  20.806  0.00  0.00    +0.000 A 
ATOM     10 CL   UNL     1       1.723   2.580  21.926  0.00  0.00    +0.000 Cl
ATOM     11  C   UNL     1       3.329   3.451  19.806  0.00  0.00    +0.000 A 
BRANCH  11  12
ATOM     12  C   UNL     1       3.923   2.088  19.611  0.00  0.00    +0.000 C 
ATOM     13  N   UNL     1       5.033   1.730  20.324  0.00  0.00    +0.000 N 
ATOM     14  O   UNL     1       3.436   1.300  18.807  0.00  0.00    +0.000 OA
ATOM     15  H   UNL     1       5.415   2.292  21.076  0.00  0.00    +0.000 HD
ATOM     16  H   UNL     1       5.381   0.787  20.229  0.00  0.00    +0.000 HD
ENDBRANCH  11  12
ENDBRANCH   3   5
BRANCH   1  17
ATOM     17  C   UNL     1       5.827   3.753  15.820  0.00  0.00    +0.000 C 
BRANCH  17  19
ATOM     18  C   UNL     1       5.315   6.155  15.428  0.00  0.00    +0.000 C 
ATOM     19  C   UNL     1       6.459   5.120  15.414  0.00  0.00    +0.000 C 
ATOM     20  C   UNL     1       7.024   5.003  13.989  0.00  0.00    +0.000 C 
BRANCH  19  21
ATOM     21  C   UNL     1       7.562   5.530  16.432  0.00  0.00    +0.000 C 
BRANCH  21  22
ATOM     22  C   UNL     1       7.273   6.718  17.334  0.00  0.00    +0.000 C 
ATOM     23  O   UNL     1       7.430   7.894  17.055  0.00  0.00    +0.000 OA
BRANCH  22  24
ATOM     24  O   UNL     1       6.811   6.330  18.548  0.00  0.00    +0.000 OA
ATOM     25  H   UNL     1       7.487   5.901  19.107  0.00  0.00    +0.000 HD
ENDBRANCH  22  24
ENDBRANCH  21  22
ENDBRANCH  19  21
ENDBRANCH  17  19
ENDBRANCH   1  17
TORSDOF 7
ENDMDL
MODEL 3
REMARK VINA RESULT:      -6.8      2.355      2.951
REMARK  Name = 
REMARK  9 active torsions:
REMARK  status: ('A' for Active; 'I' for Inactive)
REMARK    1  A    between atoms: C_1  and  C_2
REMARK    2  A    between atoms: C_2  and  C_3
REMARK    3  A    between atoms: C_2  and  C_4
REMARK    4  A    between atoms: C_2  and  C_8
REMARK    5  A    between atoms: C_4  and  C_5
REMARK    6  A    between atoms: C_5  and  O_7
REMARK    7  A    between atoms: C_8  and  C_9
REMARK    8  A    between atoms: N_11  and  C_12
REMARK    9  A    between atoms: C_18  and  C_19
REMARK                            x       y       z     vdW  Elec       q    Type
REMARK                         _______ _______ _______ _____ _____    ______ ____
ROOT
ATOM      1  C   UNL     1       4.735   3.863  16.848  0.00  0.00    +0.000 C 
ATOM      2  O   UNL     1       3.704   3.419  16.337  0.00  0.00    +0.000 OA
ATOM      3  N   UNL     1       4.825   4.499  18.075  0.00  0.00    +0.000 N 
ATOM      4  H   UNL     1       5.685   5.021  18.301  0.00  0.00    +0.000 HD
ENDROOT
BRANCH   3   5
ATOM      5  C   UNL     1       3.748   4.670  18.995  0.00  0.00    +0.000 A 
ATOM      6  C   UNL     1       3.163   5.943  19.125  0.00  0.00    +0.000 A 
ATOM      7  C   UNL     1       2.180   6.203  20.066  0.00  0.00    +0.000 A 
ATOM      8  C   UNL     1       1.728   5.181  20.884  0.00  0.00    +0.000 A 
ATOM      9  C   UNL     1       2.235   3.882  20.740  0.00  0.00    +0.000 A 
ATOM     10 CL   UNL     1       1.499   2.714  21.790  0.00  0.00    +0.000 Cl
ATOM     11  C   UNL     1       3.248   3.599  19.792  0.00  0.00    +0.000 A 
BRANCH  11  12
ATOM     12  C   UNL     1       3.823   2.228  19.598  0.00  0.00    +0.000 C 
ATOM     13  N   UNL     1       3.182   1.340  18.779  0.00  0.00    +0.000 N 
ATOM     14  O   UNL     1       4.848   1.887  20.178  0.00  0.00    +0.000 OA
ATOM     15  H   UNL     1       2.396   1.594  18.192  0.00  0.00    +0.000 HD
ATOM     16  H   UNL     1       3.616   0.444  18.608  0.00  0.00    +0.000 HD
ENDBRANCH  11  12
ENDBRANCH   3   5
BRANCH   1  17
ATOM     17  C   UNL     1       6.019   3.779  16.039  0.00  0.00    +0.000 C 
BRANCH  17  19
ATOM     18  C   UNL     1       7.560   5.062  14.567  0.00  0.00    +0.000 C 
ATOM     19  C   UNL     1       6.070   4.748  14.819  0.00  0.00    +0.000 C 
ATOM     20  C   UNL     1       5.330   6.046  15.184  0.00  0.00    +0.000 C 
BRANCH  19  21
ATOM     21  C   UNL     1       5.448   4.072  13.563  0.00  0.00    +0.000 C 
BRANCH  21  22
ATOM     22  C   UNL     1       6.401   3.615  12.472  0.00  0.00    +0.000 C 
ATOM     23  O   UNL     1       7.198   4.312  11.867  0.00  0.00    +0.000 OA
BRANCH  22  24
ATOM     24  O   UNL     1       6.270   2.291  12.209  0.00  0.00    +0.000 OA
ATOM     25  H   UNL     1       5.361   1.956  12.325  0.00  0.00    +0.000 HD
ENDBRANCH  22  24
ENDBRANCH  21  22
ENDBRANCH  19  21
ENDBRANCH  17  19
ENDBRANCH   1  17
TORSDOF 7
ENDMDL
MODEL 4
REMARK VINA RESULT:      -6.7      2.243      2.936
REMARK  Name = 
REMARK  9 active torsions:
REMARK  status: ('A' for Active; 'I' for Inactive)
REMARK    1  A    between atoms: C_1  and  C_2
REMARK    2  A    between atoms: C_2  and  C_3
REMARK    3  A    between atoms: C_2  and  C_4
REMARK    4  A    between atoms: C_2  and  C_8
REMARK    5  A    between atoms: C_4  and  C_5
REMARK    6  A    between atoms: C_5  and  O_7
REMARK    7  A    between atoms: C_8  and  C_9
REMARK    8  A    between atoms: N_11  and  C_12
REMARK    9  A    between atoms: C_18  and  C_19
REMARK                            x       y       z     vdW  Elec       q    Type
REMARK                         _______ _______ _______ _____ _____    ______ ____
ROOT
ATOM      1  C   UNL     1       5.854   4.451  17.273  0.00  0.00    +0.000 C 
ATOM      2  O   UNL     1       6.485   5.035  18.157  0.00  0.00    +0.000 OA
ATOM      3  N   UNL     1       4.526   4.064  17.343  0.00  0.00    +0.000 N 
ATOM      4  H   UNL     1       4.167   3.395  16.647  0.00  0.00    +0.000 HD
ENDROOT
BRANCH   3   5
ATOM      5  C   UNL     1       3.640   4.354  18.424  0.00  0.00    +0.000 A 
ATOM      6  C   UNL     1       3.017   5.615  18.470  0.00  0.00    +0.000 A 
ATOM      7  C   UNL     1       2.222   6.000  19.538  0.00  0.00    +0.000 A 
ATOM      8  C   UNL     1       2.001   5.114  20.579  0.00  0.00    +0.000 A 
ATOM      9  C   UNL     1       2.547   3.824  20.540  0.00  0.00    +0.000 A 
ATOM     10 CL   UNL     1       2.100   2.824  21.885  0.00  0.00    +0.000 Cl
ATOM     11  C   UNL     1       3.371   3.416  19.462  0.00  0.00    +0.000 A 
BRANCH  11  12
ATOM     12  C   UNL     1       3.977   2.048  19.372  0.00  0.00    +0.000 C 
ATOM     13  N   UNL     1       5.049   1.734  20.160  0.00  0.00    +0.000 N 
ATOM     14  O   UNL     1       3.536   1.215  18.587  0.00  0.00    +0.000 OA
ATOM     15  H   UNL     1       5.389   2.338  20.900  0.00  0.00    +0.000 HD
ATOM     16  H   UNL     1       5.405   0.789  20.135  0.00  0.00    +0.000 HD
ENDBRANCH  11  12
ENDBRANCH   3   5
BRANCH   1  17
ATOM     17  C   UNL     1       6.605   4.048  16.015  0.00  0.00    +0.000 C 
BRANCH  17  19
ATOM     18  C   UNL     1       7.319   5.052  13.854  0.00  0.00    +0.000 C 
ATOM     19  C   UNL     1       6.079   4.725  14.712  0.00  0.00    +0.000 C 
ATOM     20  C   UNL     1       5.359   6.031  15.087  0.00  0.00    +0.000 C 
BRANCH  19  21
ATOM     21  C   UNL     1       5.137   3.756  13.941  0.00  0.00    +0.000 C 
BRANCH  21  22
ATOM     22  C   UNL     1       5.490   3.440  12.497  0.00  0.00    +0.000 C 
ATOM     23  O   UNL     1       4.908   3.843  11.504  0.00  0.00    +0.000 OA
BRANCH  22  24
ATOM     24  O   UNL     1       6.563   2.617  12.408  0.00  0.00    +0.000 OA
ATOM     25  H   UNL     1       7.418   3.073  12.522  0.00  0.00    +0.000 HD
ENDBRANCH  22  24
ENDBRANCH  21  22
ENDBRANCH  19  21
ENDBRANCH  17  19
ENDBRANCH   1  17
TORSDOF 7
ENDMDL
MODEL 5
REMARK VINA RESULT:      -6.7      1.967      2.582
REMARK  Name = 
REMARK  9 active torsions:
REMARK  status: ('A' for Active; 'I' for Inactive)
REMARK    1  A    between atoms: C_1  and  C_2
REMARK    2  A    between atoms: C_2  and  C_3
REMARK    3  A    between atoms: C_2  and  C_4
REMARK    4  A    between atoms: C_2  and  C_8
REMARK    5  A    between atoms: C_4  and  C_5
REMARK    6  A    between atoms: C_5  and  O_7
REMARK    7  A    between atoms: C_8  and  C_9
REMARK    8  A    between atoms: N_11  and  C_12
REMARK    9  A    between atoms: C_18  and  C_19
REMARK                            x       y       z     vdW  Elec       q    Type
REMARK                         _______ _______ _______ _____ _____    ______ ____
ROOT
ATOM      1  C   UNL     1       4.778   5.900  16.816  0.00  0.00    +0.000 C 
ATOM      2  O   UNL     1       5.324   6.734  17.541  0.00  0.00    +0.000 OA
ATOM      3  N   UNL     1       3.752   5.048  17.189  0.00  0.00    +0.000 N 
ATOM      4  H   UNL     1       3.524   4.249  16.579  0.00  0.00    +0.000 HD
ENDROOT
BRANCH   3   5
ATOM      5  C   UNL     1       3.096   5.054  18.456  0.00  0.00    +0.000 A 
ATOM      6  C   UNL     1       2.443   6.227  18.876  0.00  0.00    +0.000 A 
ATOM      7  C   UNL     1       1.870   6.335  20.134  0.00  0.00    +0.000 A 
ATOM      8  C   UNL     1       1.906   5.253  20.996  0.00  0.00    +0.000 A 
ATOM      9  C   UNL     1       2.487   4.043  20.592  0.00  0.00    +0.000 A 
ATOM     10 CL   UNL     1       2.370   2.773  21.767  0.00  0.00    +0.000 Cl
ATOM     11  C   UNL     1       3.087   3.917  19.316  0.00  0.00    +0.000 A 
BRANCH  11  12
ATOM     12  C   UNL     1       3.719   2.646  18.834  0.00  0.00    +0.000 C 
ATOM     13  N   UNL     1       4.898   2.229  19.388  0.00  0.00    +0.000 N 
ATOM     14  O   UNL     1       3.203   1.986  17.938  0.00  0.00    +0.000 OA
ATOM     15  H   UNL     1       5.315   2.669  20.200  0.00  0.00    +0.000 HD
ATOM     16  H   UNL     1       5.277   1.339  19.099  0.00  0.00    +0.000 HD
ENDBRANCH  11  12
ENDBRANCH   3   5
BRANCH   1  17
ATOM     17  C   UNL     1       5.315   5.728  15.405  0.00  0.00    +0.000 C 
BRANCH  17  19
ATOM     18  C   UNL     1       5.568   3.265  15.647  0.00  0.00    +0.000 C 
ATOM     19  C   UNL     1       6.324   4.549  15.245  0.00  0.00    +0.000 C 
ATOM     20  C   UNL     1       7.502   4.770  16.207  0.00  0.00    +0.000 C 
BRANCH  19  21
ATOM     21  C   UNL     1       6.806   4.444  13.769  0.00  0.00    +0.000 C 
BRANCH  21  22
ATOM     22  C   UNL     1       5.972   3.601  12.820  0.00  0.00    +0.000 C 
ATOM     23  O   UNL     1       4.793   3.762  12.553  0.00  0.00    +0.000 OA
BRANCH  22  24
ATOM     24  O   UNL     1       6.693   2.590  12.276  0.00  0.00    +0.000 OA
ATOM     25  H   UNL     1       6.413   1.704  12.572  0.00  0.00    +0.000 HD
ENDBRANCH  22  24
ENDBRANCH  21  22
ENDBRANCH  19  21
ENDBRANCH  17  19
ENDBRANCH   1  17
TORSDOF 7
ENDMDL
MODEL 6
REMARK VINA RESULT:      -6.7      4.167      6.150
REMARK  Name = 
REMARK  9 active torsions:
REMARK  status: ('A' for Active; 'I' for Inactive)
REMARK    1  A    between atoms: C_1  and  C_2
REMARK    2  A    between atoms: C_2  and  C_3
REMARK    3  A    between atoms: C_2  and  C_4
REMARK    4  A    between atoms: C_2  and  C_8
REMARK    5  A    between atoms: C_4  and  C_5
REMARK    6  A    between atoms: C_5  and  O_7
REMARK    7  A    between atoms: C_8  and  C_9
REMARK    8  A    between atoms: N_11  and  C_12
REMARK    9  A    between atoms: C_18  and  C_19
REMARK                            x       y       z     vdW  Elec       q    Type
REMARK                         _______ _______ _______ _____ _____    ______ ____
ROOT
ATOM      1  C   UNL     1       2.774   5.719  20.101  0.00  0.00    +0.000 C 
ATOM      2  O   UNL     1       3.453   5.701  19.072  0.00  0.00    +0.000 OA
ATOM      3  N   UNL     1       1.978   6.768  20.531  0.00  0.00    +0.000 N 
ATOM      4  H   UNL     1       1.634   6.764  21.502  0.00  0.00    +0.000 HD
ENDROOT
BRANCH   3   5
ATOM      5  C   UNL     1       1.746   7.975  19.806  0.00  0.00    +0.000 A 
ATOM      6  C   UNL     1       2.077   8.020  18.440  0.00  0.00    +0.000 A 
ATOM      7  C   UNL     1       1.969   9.187  17.699  0.00  0.00    +0.000 A 
ATOM      8  C   UNL     1       1.491  10.338  18.302  0.00  0.00    +0.000 A 
ATOM      9  C   UNL     1       1.086  10.319  19.644  0.00  0.00    +0.000 A 
ATOM     10 CL   UNL     1       0.439  11.825  20.210  0.00  0.00    +0.000 Cl
ATOM     11  C   UNL     1       1.199   9.140  20.420  0.00  0.00    +0.000 A 
BRANCH  11  12
ATOM     12  C   UNL     1       0.779   9.066  21.857  0.00  0.00    +0.000 C 
ATOM     13  N   UNL     1      -0.526   8.796  22.163  0.00  0.00    +0.000 N 
ATOM     14  O   UNL     1       1.586   9.264  22.759  0.00  0.00    +0.000 OA
ATOM     15  H   UNL     1      -1.212   8.518  21.471  0.00  0.00    +0.000 HD
ATOM     16  H   UNL     1      -0.779   8.685  23.135  0.00  0.00    +0.000 HD
ENDBRANCH  11  12
ENDBRANCH   3   5
BRANCH   1  17
ATOM     17  C   UNL     1       2.862   4.518  21.029  0.00  0.00    +0.000 C 
BRANCH  17  19
ATOM     18  C   UNL     1       0.861   3.787  19.746  0.00  0.00    +0.000 C 
ATOM     19  C   UNL     1       2.086   3.264  20.525  0.00  0.00    +0.000 C 
ATOM     20  C   UNL     1       1.608   2.453  21.741  0.00  0.00    +0.000 C 
BRANCH  19  21
ATOM     21  C   UNL     1       2.988   2.408  19.589  0.00  0.00    +0.000 C 
BRANCH  21  22
ATOM     22  C   UNL     1       4.475   2.367  19.898  0.00  0.00    +0.000 C 
ATOM     23  O   UNL     1       5.013   1.724  20.783  0.00  0.00    +0.000 OA
BRANCH  22  24
ATOM     24  O   UNL     1       5.186   3.162  19.062  0.00  0.00    +0.000 OA
ATOM     25  H   UNL     1       5.001   3.003  18.117  0.00  0.00    +0.000 HD
ENDBRANCH  22  24
ENDBRANCH  21  22
ENDBRANCH  19  21
ENDBRANCH  17  19
ENDBRANCH   1  17
TORSDOF 7
ENDMDL
MODEL 7
REMARK VINA RESULT:      -6.6      1.413      1.928
REMARK  Name = 
REMARK  9 active torsions:
REMARK  status: ('A' for Active; 'I' for Inactive)
REMARK    1  A    between atoms: C_1  and  C_2
REMARK    2  A    between atoms: C_2  and  C_3
REMARK    3  A    between atoms: C_2  and  C_4
REMARK    4  A    between atoms: C_2  and  C_8
REMARK    5  A    between atoms: C_4  and  C_5
REMARK    6  A    between atoms: C_5  and  O_7
REMARK    7  A    between atoms: C_8  and  C_9
REMARK    8  A    between atoms: N_11  and  C_12
REMARK    9  A    between atoms: C_18  and  C_19
REMARK                            x       y       z     vdW  Elec       q    Type
REMARK                         _______ _______ _______ _____ _____    ______ ____
ROOT
ATOM      1  C   UNL     1       4.912   4.103  17.347  0.00  0.00    +0.000 C 
ATOM      2  O   UNL     1       5.669   3.916  18.301  0.00  0.00    +0.000 OA
ATOM      3  N   UNL     1       3.566   4.418  17.427  0.00  0.00    +0.000 N 
ATOM      4  H   UNL     1       2.985   4.333  16.579  0.00  0.00    +0.000 HD
ENDROOT
BRANCH   3   5
ATOM      5  C   UNL     1       2.848   4.662  18.636  0.00  0.00    +0.000 A 
ATOM      6  C   UNL     1       2.634   5.993  19.039  0.00  0.00    +0.000 A 
ATOM      7  C   UNL     1       2.031   6.302  20.249  0.00  0.00    +0.000 A 
ATOM      8  C   UNL     1       1.594   5.281  21.075  0.00  0.00    +0.000 A 
ATOM      9  C   UNL     1       1.727   3.943  20.680  0.00  0.00    +0.000 A 
ATOM     10 CL   UNL     1       1.053   2.803  21.800  0.00  0.00    +0.000 Cl
ATOM     11  C   UNL     1       2.350   3.606  19.454  0.00  0.00    +0.000 A 
BRANCH  11  12
ATOM     12  C   UNL     1       2.516   2.192  18.985  0.00  0.00    +0.000 C 
ATOM     13  N   UNL     1       1.440   1.525  18.466  0.00  0.00    +0.000 N 
ATOM     14  O   UNL     1       3.597   1.622  19.077  0.00  0.00    +0.000 OA
ATOM     15  H   UNL     1       0.554   1.973  18.265  0.00  0.00    +0.000 HD
ATOM     16  H   UNL     1       1.584   0.597  18.095  0.00  0.00    +0.000 HD
ENDBRANCH  11  12
ENDBRANCH   3   5
BRANCH   1  17
ATOM     17  C   UNL     1       5.473   3.903  15.948  0.00  0.00    +0.000 C 
BRANCH  17  19
ATOM     18  C   UNL     1       5.318   6.322  15.388  0.00  0.00    +0.000 C 
ATOM     19  C   UNL     1       6.285   5.120  15.406  0.00  0.00    +0.000 C 
ATOM     20  C   UNL     1       6.743   4.812  13.971  0.00  0.00    +0.000 C 
BRANCH  19  21
ATOM     21  C   UNL     1       7.494   5.422  16.337  0.00  0.00    +0.000 C 
BRANCH  21  22
ATOM     22  C   UNL     1       7.405   6.654  17.221  0.00  0.00    +0.000 C 
ATOM     23  O   UNL     1       7.603   7.808  16.878  0.00  0.00    +0.000 OA
BRANCH  22  24
ATOM     24  O   UNL     1       7.077   6.338  18.497  0.00  0.00    +0.000 OA
ATOM     25  H   UNL     1       7.639   6.773  19.166  0.00  0.00    +0.000 HD
ENDBRANCH  22  24
ENDBRANCH  21  22
ENDBRANCH  19  21
ENDBRANCH  17  19
ENDBRANCH   1  17
TORSDOF 7
ENDMDL
MODEL 8
REMARK VINA RESULT:      -6.6      2.303      2.826
REMARK  Name = 
REMARK  9 active torsions:
REMARK  status: ('A' for Active; 'I' for Inactive)
REMARK    1  A    between atoms: C_1  and  C_2
REMARK    2  A    between atoms: C_2  and  C_3
REMARK    3  A    between atoms: C_2  and  C_4
REMARK    4  A    between atoms: C_2  and  C_8
REMARK    5  A    between atoms: C_4  and  C_5
REMARK    6  A    between atoms: C_5  and  O_7
REMARK    7  A    between atoms: C_8  and  C_9
REMARK    8  A    between atoms: N_11  and  C_12
REMARK    9  A    between atoms: C_18  and  C_19
REMARK                            x       y       z     vdW  Elec       q    Type
REMARK                         _______ _______ _______ _____ _____    ______ ____
ROOT
ATOM      1  C   UNL     1       6.095   5.027  17.410  0.00  0.00    +0.000 C 
ATOM      2  O   UNL     1       6.443   5.998  18.085  0.00  0.00    +0.000 OA
ATOM      3  N   UNL     1       4.956   4.265  17.610  0.00  0.00    +0.000 N 
ATOM      4  H   UNL     1       4.878   3.355  17.134  0.00  0.00    +0.000 HD
ENDROOT
BRANCH   3   5
ATOM      5  C   UNL     1       3.947   4.534  18.583  0.00  0.00    +0.000 A 
ATOM      6  C   UNL     1       3.308   5.787  18.570  0.00  0.00    +0.000 A 
ATOM      7  C   UNL     1       2.390   6.150  19.543  0.00  0.00    +0.000 A 
ATOM      8  C   UNL     1       2.060   5.251  20.541  0.00  0.00    +0.000 A 
ATOM      9  C   UNL     1       2.622   3.966  20.552  0.00  0.00    +0.000 A 
ATOM     10 CL   UNL     1       2.035   2.947  21.826  0.00  0.00    +0.000 Cl
ATOM     11  C   UNL     1       3.570   3.580  19.574  0.00  0.00    +0.000 A 
BRANCH  11  12
ATOM     12  C   UNL     1       4.199   2.220  19.540  0.00  0.00    +0.000 C 
ATOM     13  N   UNL     1       3.845   1.339  18.557  0.00  0.00    +0.000 N 
ATOM     14  O   UNL     1       5.013   1.882  20.393  0.00  0.00    +0.000 OA
ATOM     15  H   UNL     1       3.264   1.594  17.766  0.00  0.00    +0.000 HD
ATOM     16  H   UNL     1       4.325   0.452  18.510  0.00  0.00    +0.000 HD
ENDBRANCH  11  12
ENDBRANCH   3   5
BRANCH   1  17
ATOM     17  C   UNL     1       7.025   4.565  16.300  0.00  0.00    +0.000 C 
BRANCH  17  19
ATOM     18  C   UNL     1       7.658   5.435  14.058  0.00  0.00    +0.000 C 
ATOM     19  C   UNL     1       6.486   4.835  14.862  0.00  0.00    +0.000 C 
ATOM     20  C   UNL     1       5.345   5.862  14.944  0.00  0.00    +0.000 C 
BRANCH  19  21
ATOM     21  C   UNL     1       6.011   3.508  14.202  0.00  0.00    +0.000 C 
BRANCH  21  22
ATOM     22  C   UNL     1       5.955   3.463  12.685  0.00  0.00    +0.000 C 
ATOM     23  O   UNL     1       6.898   3.304  11.929  0.00  0.00    +0.000 OA
BRANCH  22  24
ATOM     24  O   UNL     1       4.693   3.635  12.221  0.00  0.00    +0.000 OA
ATOM     25  H   UNL     1       4.559   4.480  11.752  0.00  0.00    +0.000 HD
ENDBRANCH  22  24
ENDBRANCH  21  22
ENDBRANCH  19  21
ENDBRANCH  17  19
ENDBRANCH   1  17
TORSDOF 7
ENDMDL
MODEL 9
REMARK VINA RESULT:      -6.5      4.150      6.198
REMARK  Name = 
REMARK  9 active torsions:
REMARK  status: ('A' for Active; 'I' for Inactive)
REMARK    1  A    between atoms: C_1  and  C_2
REMARK    2  A    between atoms: C_2  and  C_3
REMARK    3  A    between atoms: C_2  and  C_4
REMARK    4  A    between atoms: C_2  and  C_8
REMARK    5  A    between atoms: C_4  and  C_5
REMARK    6  A    between atoms: C_5  and  O_7
REMARK    7  A    between atoms: C_8  and  C_9
REMARK    8  A    between atoms: N_11  and  C_12
REMARK    9  A    between atoms: C_18  and  C_19
REMARK                            x       y       z     vdW  Elec       q    Type
REMARK                         _______ _______ _______ _____ _____    ______ ____
ROOT
ATOM      1  C   UNL     1       2.175   6.048  20.322  0.00  0.00    +0.000 C 
ATOM      2  O   UNL     1       1.175   5.516  20.810  0.00  0.00    +0.000 OA
ATOM      3  N   UNL     1       2.359   7.406  20.126  0.00  0.00    +0.000 N 
ATOM      4  H   UNL     1       3.127   7.720  19.515  0.00  0.00    +0.000 HD
ENDROOT
BRANCH   3   5
ATOM      5  C   UNL     1       1.449   8.427  20.535  0.00  0.00    +0.000 A 
ATOM      6  C   UNL     1       0.979   8.423  21.861  0.00  0.00    +0.000 A 
ATOM      7  C   UNL     1       0.022   9.325  22.300  0.00  0.00    +0.000 A 
ATOM      8  C   UNL     1      -0.467  10.282  21.427  0.00  0.00    +0.000 A 
ATOM      9  C   UNL     1       0.025  10.363  20.117  0.00  0.00    +0.000 A 
ATOM     10 CL   UNL     1      -0.640  11.670  19.190  0.00  0.00    +0.000 Cl
ATOM     11  C   UNL     1       0.994   9.444  19.646  0.00  0.00    +0.000 A 
BRANCH  11  12
ATOM     12  C   UNL     1       1.554   9.489  18.257  0.00  0.00    +0.000 C 
ATOM     13  N   UNL     1       2.088  10.656  17.784  0.00  0.00    +0.000 N 
ATOM     14  O   UNL     1       1.520   8.499  17.533  0.00  0.00    +0.000 OA
ATOM     15  H   UNL     1       2.242  11.471  18.366  0.00  0.00    +0.000 HD
ATOM     16  H   UNL     1       2.519  10.652  16.871  0.00  0.00    +0.000 HD
ENDBRANCH  11  12
ENDBRANCH   3   5
BRANCH   1  17
ATOM     17  C   UNL     1       3.287   5.140  19.820  0.00  0.00    +0.000 C 
BRANCH  17  19
ATOM     18  C   UNL     1       4.129   4.173  17.689  0.00  0.00    +0.000 C 
ATOM     19  C   UNL     1       2.887   4.255  18.600  0.00  0.00    +0.000 C 
ATOM     20  C   UNL     1       1.742   4.945  17.841  0.00  0.00    +0.000 C 
BRANCH  19  21
ATOM     21  C   UNL     1       2.478   2.831  19.075  0.00  0.00    +0.000 C 
BRANCH  21  22
ATOM     22  C   UNL     1       0.993   2.539  19.211  0.00  0.00    +0.000 C 
ATOM     23  O   UNL     1       0.274   2.033  18.365  0.00  0.00    +0.000 OA
BRANCH  22  24
ATOM     24  O   UNL     1       0.511   2.921  20.418  0.00  0.00    +0.000 OA
ATOM     25  H   UNL     1       0.049   3.781  20.402  0.00  0.00    +0.000 HD
ENDBRANCH  22  24
ENDBRANCH  21  22
ENDBRANCH  19  21
ENDBRANCH  17  19
ENDBRANCH   1  17
TORSDOF 7
ENDMDL
