MODEL 1
REMARK VINA RESULT:      -7.1      0.000      0.000
REMARK  Name = 
REMARK  2 active torsions:
REMARK  status: ('A' for Active; 'I' for Inactive)
REMARK    1  A    between atoms: O_1  and  C_2
REMARK    2  A    between atoms: C_5  and  C_6
REMARK                            x       y       z     vdW  Elec       q    Type
REMARK                         _______ _______ _______ _____ _____    ______ ____
ROOT
ATOM      1  C   UNL     1       6.999   6.330  17.028  0.00  0.00    +0.000 A 
ATOM      2  C   UNL     1       6.306   6.268  18.233  0.00  0.00    +0.000 A 
ATOM      3  C   UNL     1       5.311   5.313  18.397  0.00  0.00    +0.000 A 
ATOM      4  C   UNL     1       4.995   4.418  17.360  0.00  0.00    +0.000 A 
ATOM      5  C   UNL     1       5.712   4.492  16.123  0.00  0.00    +0.000 A 
ATOM      6  C   UNL     1       5.464   3.659  15.004  0.00  0.00    +0.000 A 
ATOM      7  C   UNL     1       6.198   3.781  13.830  0.00  0.00    +0.000 A 
ATOM      8  C   UNL     1       7.174   4.749  13.787  0.00  0.00    +0.000 A 
ATOM      9  N   UNL     1       7.442   5.576  14.814  0.00  0.00    +0.000 NA
ATOM     10  C   UNL     1       6.733   5.463  15.960  0.00  0.00    +0.000 A 
ENDROOT
BRANCH   4  11
ATOM     11  C   UNL     1       3.940   3.424  17.599  0.00  0.00    +0.000 A 
ATOM     12  N   UNL     1       2.672   3.461  17.232  0.00  0.00    +0.000 NA
ATOM     13  N   UNL     1       2.091   2.304  17.688  0.00  0.00    +0.000 NA
ATOM     14  N   UNL     1       2.975   1.550  18.322  0.00  0.00    +0.000 NA
ATOM     15  N   UNL     1       4.119   2.242  18.269  0.00  0.00    +0.000 N 
ATOM     16  H   UNL     1       4.949   1.862  18.703  0.00  0.00    +0.000 HD
ENDBRANCH   4  11
BRANCH   1  17
ATOM     17  O   UNL     1       7.981   7.285  16.885  0.00  0.00    +0.000 OA
ATOM     18  H   UNL     1       7.603   8.170  16.994  0.00  0.00    +0.000 HD
ENDBRANCH   1  17
TORSDOF 2
ENDMDL
MODEL 2
REMARK VINA RESULT:      -6.9      1.255      2.836
REMARK  Name = 
REMARK  2 active torsions:
REMARK  status: ('A' for Active; 'I' for Inactive)
REMARK    1  A    between atoms: O_1  and  C_2
REMARK    2  A    between atoms: C_5  and  C_6
REMARK                            x       y       z     vdW  Elec       q    Type
REMARK                         _______ _______ _______ _____ _____    ______ ____
ROOT
ATOM      1  C   UNL     1       6.914   5.035  15.234  0.00  0.00    +0.000 A 
ATOM      2  C   UNL     1       5.991   4.269  14.528  0.00  0.00    +0.000 A 
ATOM      3  C   UNL     1       4.942   3.667  15.211  0.00  0.00    +0.000 A 
ATOM      4  C   UNL     1       4.809   3.818  16.603  0.00  0.00    +0.000 A 
ATOM      5  C   UNL     1       5.765   4.606  17.320  0.00  0.00    +0.000 A 
ATOM      6  C   UNL     1       5.744   4.808  18.722  0.00  0.00    +0.000 A 
ATOM      7  C   UNL     1       6.702   5.587  19.359  0.00  0.00    +0.000 A 
ATOM      8  C   UNL     1       7.684   6.152  18.580  0.00  0.00    +0.000 A 
ATOM      9  N   UNL     1       7.761   5.982  17.247  0.00  0.00    +0.000 NA
ATOM     10  C   UNL     1       6.831   5.227  16.620  0.00  0.00    +0.000 A 
ENDROOT
BRANCH   4  11
ATOM     11  C   UNL     1       3.673   3.165  17.265  0.00  0.00    +0.000 A 
ATOM     12  N   UNL     1       2.393   3.488  17.221  0.00  0.00    +0.000 NA
ATOM     13  N   UNL     1       1.725   2.579  18.003  0.00  0.00    +0.000 NA
ATOM     14  N   UNL     1       2.563   1.697  18.524  0.00  0.00    +0.000 NA
ATOM     15  N   UNL     1       3.769   2.059  18.070  0.00  0.00    +0.000 N 
ATOM     16  H   UNL     1       4.583   1.527  18.347  0.00  0.00    +0.000 HD
ENDBRANCH   4  11
BRANCH   1  17
ATOM     17  O   UNL     1       7.947   5.623  14.538  0.00  0.00    +0.000 OA
ATOM     18  H   UNL     1       8.322   6.352  15.053  0.00  0.00    +0.000 HD
ENDBRANCH   1  17
TORSDOF 2
ENDMDL
MODEL 3
REMARK VINA RESULT:      -6.9      1.018      1.382
REMARK  Name = 
REMARK  2 active torsions:
REMARK  status: ('A' for Active; 'I' for Inactive)
REMARK    1  A    between atoms: O_1  and  C_2
REMARK    2  A    between atoms: C_5  and  C_6
REMARK                            x       y       z     vdW  Elec       q    Type
REMARK                         _______ _______ _______ _____ _____    ______ ____
ROOT
ATOM      1  C   UNL     1       7.020   5.751  18.193  0.00  0.00    +0.000 A 
ATOM      2  C   UNL     1       6.229   5.576  19.325  0.00  0.00    +0.000 A 
ATOM      3  C   UNL     1       5.025   4.894  19.214  0.00  0.00    +0.000 A 
ATOM      4  C   UNL     1       4.596   4.387  17.974  0.00  0.00    +0.000 A 
ATOM      5  C   UNL     1       5.417   4.575  16.815  0.00  0.00    +0.000 A 
ATOM      6  C   UNL     1       5.077   4.129  15.515  0.00  0.00    +0.000 A 
ATOM      7  C   UNL     1       5.919   4.343  14.430  0.00  0.00    +0.000 A 
ATOM      8  C   UNL     1       7.098   5.012  14.661  0.00  0.00    +0.000 A 
ATOM      9  N   UNL     1       7.464   5.470  15.872  0.00  0.00    +0.000 NA
ATOM     10  C   UNL     1       6.650   5.265  16.933  0.00  0.00    +0.000 A 
ENDROOT
BRANCH   4  11
ATOM     11  C   UNL     1       3.318   3.666  17.923  0.00  0.00    +0.000 A 
ATOM     12  N   UNL     1       3.103   2.363  17.939  0.00  0.00    +0.000 NA
ATOM     13  N   UNL     1       1.744   2.182  17.873  0.00  0.00    +0.000 NA
ATOM     14  N   UNL     1       1.114   3.346  17.825  0.00  0.00    +0.000 NA
ATOM     15  N   UNL     1       2.086   4.264  17.855  0.00  0.00    +0.000 N 
ATOM     16  H   UNL     1       1.843   5.245  17.818  0.00  0.00    +0.000 HD
ENDBRANCH   4  11
BRANCH   1  17
ATOM     17  O   UNL     1       8.210   6.431  18.325  0.00  0.00    +0.000 OA
ATOM     18  H   UNL     1       8.805   6.205  17.596  0.00  0.00    +0.000 HD
ENDBRANCH   1  17
TORSDOF 2
ENDMDL
MODEL 4
REMARK VINA RESULT:      -6.7      2.488      4.874
REMARK  Name = 
REMARK  2 active torsions:
REMARK  status: ('A' for Active; 'I' for Inactive)
REMARK    1  A    between atoms: O_1  and  C_2
REMARK    2  A    between atoms: C_5  and  C_6
REMARK                            x       y       z     vdW  Elec       q    Type
REMARK                         _______ _______ _______ _____ _____    ______ ____
ROOT
ATOM      1  C   UNL     1       2.888   6.406  18.614  0.00  0.00    +0.000 A 
ATOM      2  C   UNL     1       3.583   7.389  17.914  0.00  0.00    +0.000 A 
ATOM      3  C   UNL     1       4.509   7.011  16.951  0.00  0.00    +0.000 A 
ATOM      4  C   UNL     1       4.756   5.653  16.682  0.00  0.00    +0.000 A 
ATOM      5  C   UNL     1       4.038   4.650  17.410  0.00  0.00    +0.000 A 
ATOM      6  C   UNL     1       4.220   3.256  17.240  0.00  0.00    +0.000 A 
ATOM      7  C   UNL     1       3.489   2.333  17.978  0.00  0.00    +0.000 A 
ATOM      8  C   UNL     1       2.583   2.819  18.890  0.00  0.00    +0.000 A 
ATOM      9  N   UNL     1       2.380   4.133  19.102  0.00  0.00    +0.000 NA
ATOM     10  C   UNL     1       3.086   5.038  18.388  0.00  0.00    +0.000 A 
ENDROOT
BRANCH   4  11
ATOM     11  C   UNL     1       5.740   5.319  15.645  0.00  0.00    +0.000 A 
ATOM     12  N   UNL     1       5.567   4.626  14.535  0.00  0.00    +0.000 NA
ATOM     13  N   UNL     1       6.781   4.586  13.896  0.00  0.00    +0.000 NA
ATOM     14  N   UNL     1       7.699   5.246  14.584  0.00  0.00    +0.000 NA
ATOM     15  N   UNL     1       7.057   5.699  15.667  0.00  0.00    +0.000 N 
ATOM     16  H   UNL     1       7.566   6.235  16.357  0.00  0.00    +0.000 HD
ENDBRANCH   4  11
BRANCH   1  17
ATOM     17  O   UNL     1       1.975   6.801  19.566  0.00  0.00    +0.000 OA
ATOM     18  H   UNL     1       1.081   6.543  19.296  0.00  0.00    +0.000 HD
ENDBRANCH   1  17
TORSDOF 2
ENDMDL
MODEL 5
REMARK VINA RESULT:      -6.7      3.459      4.995
REMARK  Name = 
REMARK  2 active torsions:
REMARK  status: ('A' for Active; 'I' for Inactive)
REMARK    1  A    between atoms: O_1  and  C_2
REMARK    2  A    between atoms: C_5  and  C_6
REMARK                            x       y       z     vdW  Elec       q    Type
REMARK                         _______ _______ _______ _____ _____    ______ ____
ROOT
ATOM      1  C   UNL     1       5.122   4.433  16.778  0.00  0.00    +0.000 A 
ATOM      2  C   UNL     1       5.548   5.753  16.666  0.00  0.00    +0.000 A 
ATOM      3  C   UNL     1       4.722   6.775  17.116  0.00  0.00    +0.000 A 
ATOM      4  C   UNL     1       3.463   6.490  17.674  0.00  0.00    +0.000 A 
ATOM      5  C   UNL     1       3.033   5.128  17.782  0.00  0.00    +0.000 A 
ATOM      6  C   UNL     1       1.781   4.725  18.305  0.00  0.00    +0.000 A 
ATOM      7  C   UNL     1       1.423   3.384  18.384  0.00  0.00    +0.000 A 
ATOM      8  C   UNL     1       2.329   2.456  17.928  0.00  0.00    +0.000 A 
ATOM      9  N   UNL     1       3.526   2.783  17.408  0.00  0.00    +0.000 NA
ATOM     10  C   UNL     1       3.882   4.085  17.329  0.00  0.00    +0.000 A 
ENDROOT
BRANCH   4  11
ATOM     11  C   UNL     1       2.641   7.613  18.141  0.00  0.00    +0.000 A 
ATOM     12  N   UNL     1       2.206   8.657  17.460  0.00  0.00    +0.000 NA
ATOM     13  N   UNL     1       1.479   9.428  18.333  0.00  0.00    +0.000 NA
ATOM     14  N   UNL     1       1.450   8.879  19.537  0.00  0.00    +0.000 NA
ATOM     15  N   UNL     1       2.169   7.757  19.420  0.00  0.00    +0.000 N 
ATOM     16  H   UNL     1       2.298   7.163  20.229  0.00  0.00    +0.000 HD
ENDBRANCH   4  11
BRANCH   1  17
ATOM     17  O   UNL     1       5.955   3.435  16.324  0.00  0.00    +0.000 OA
ATOM     18  H   UNL     1       5.691   3.159  15.435  0.00  0.00    +0.000 HD
ENDBRANCH   1  17
TORSDOF 2
ENDMDL
MODEL 6
REMARK VINA RESULT:      -6.6      3.461      5.823
REMARK  Name = 
REMARK  2 active torsions:
REMARK  status: ('A' for Active; 'I' for Inactive)
REMARK    1  A    between atoms: O_1  and  C_2
REMARK    2  A    between atoms: C_5  and  C_6
REMARK                            x       y       z     vdW  Elec       q    Type
REMARK                         _______ _______ _______ _____ _____    ______ ____
ROOT
ATOM      1  C   UNL     1       1.762   2.736  18.551  0.00  0.00    +0.000 A 
ATOM      2  C   UNL     1       2.598   2.041  17.682  0.00  0.00    +0.000 A 
ATOM      3  C   UNL     1       3.825   2.589  17.333  0.00  0.00    +0.000 A 
ATOM      4  C   UNL     1       4.226   3.838  17.841  0.00  0.00    +0.000 A 
ATOM      5  C   UNL     1       3.357   4.547  18.732  0.00  0.00    +0.000 A 
ATOM      6  C   UNL     1       3.646   5.818  19.286  0.00  0.00    +0.000 A 
ATOM      7  C   UNL     1       2.760   6.453  20.147  0.00  0.00    +0.000 A 
ATOM      8  C   UNL     1       1.582   5.807  20.440  0.00  0.00    +0.000 A 
ATOM      9  N   UNL     1       1.251   4.606  19.932  0.00  0.00    +0.000 NA
ATOM     10  C   UNL     1       2.108   3.981  19.094  0.00  0.00    +0.000 A 
ENDROOT
BRANCH   4  11
ATOM     11  C   UNL     1       5.539   4.359  17.442  0.00  0.00    +0.000 A 
ATOM     12  N   UNL     1       5.847   5.118  16.406  0.00  0.00    +0.000 NA
ATOM     13  N   UNL     1       7.200   5.340  16.462  0.00  0.00    +0.000 NA
ATOM     14  N   UNL     1       7.734   4.740  17.515  0.00  0.00    +0.000 NA
ATOM     15  N   UNL     1       6.708   4.133  18.121  0.00  0.00    +0.000 N 
ATOM     16  H   UNL     1       6.876   3.593  18.960  0.00  0.00    +0.000 HD
ENDBRANCH   4  11
BRANCH   1  17
ATOM     17  O   UNL     1       0.549   2.176  18.883  0.00  0.00    +0.000 OA
ATOM     18  H   UNL     1       0.260   1.570  18.185  0.00  0.00    +0.000 HD
ENDBRANCH   1  17
TORSDOF 2
ENDMDL
MODEL 7
REMARK VINA RESULT:      -6.6      3.300      5.284
REMARK  Name = 
REMARK  2 active torsions:
REMARK  status: ('A' for Active; 'I' for Inactive)
REMARK    1  A    between atoms: O_1  and  C_2
REMARK    2  A    between atoms: C_5  and  C_6
REMARK                            x       y       z     vdW  Elec       q    Type
REMARK                         _______ _______ _______ _____ _____    ______ ____
ROOT
ATOM      1  C   UNL     1       3.327   4.547  19.858  0.00  0.00    +0.000 A 
ATOM      2  C   UNL     1       4.243   3.569  19.482  0.00  0.00    +0.000 A 
ATOM      3  C   UNL     1       5.073   3.797  18.393  0.00  0.00    +0.000 A 
ATOM      4  C   UNL     1       4.993   4.998  17.666  0.00  0.00    +0.000 A 
ATOM      5  C   UNL     1       4.046   5.998  18.060  0.00  0.00    +0.000 A 
ATOM      6  C   UNL     1       3.862   7.232  17.391  0.00  0.00    +0.000 A 
ATOM      7  C   UNL     1       2.925   8.162  17.825  0.00  0.00    +0.000 A 
ATOM      8  C   UNL     1       2.171   7.838  18.928  0.00  0.00    +0.000 A 
ATOM      9  N   UNL     1       2.293   6.675  19.593  0.00  0.00    +0.000 NA
ATOM     10  C   UNL     1       3.204   5.765  19.177  0.00  0.00    +0.000 A 
ENDROOT
BRANCH   4  11
ATOM     11  C   UNL     1       5.906   5.184  16.531  0.00  0.00    +0.000 A 
ATOM     12  N   UNL     1       7.154   5.616  16.535  0.00  0.00    +0.000 NA
ATOM     13  N   UNL     1       7.581   5.615  15.231  0.00  0.00    +0.000 NA
ATOM     14  N   UNL     1       6.626   5.185  14.421  0.00  0.00    +0.000 NA
ATOM     15  N   UNL     1       5.589   4.919  15.223  0.00  0.00    +0.000 N 
ATOM     16  H   UNL     1       4.726   4.580  14.821  0.00  0.00    +0.000 HD
ENDBRANCH   4  11
BRANCH   1  17
ATOM     17  O   UNL     1       2.512   4.301  20.940  0.00  0.00    +0.000 OA
ATOM     18  H   UNL     1       2.406   3.347  21.066  0.00  0.00    +0.000 HD
ENDBRANCH   1  17
TORSDOF 2
ENDMDL
MODEL 8
REMARK VINA RESULT:      -6.6      3.625      5.698
REMARK  Name = 
REMARK  2 active torsions:
REMARK  status: ('A' for Active; 'I' for Inactive)
REMARK    1  A    between atoms: O_1  and  C_2
REMARK    2  A    between atoms: C_5  and  C_6
REMARK                            x       y       z     vdW  Elec       q    Type
REMARK                         _______ _______ _______ _____ _____    ______ ____
ROOT
ATOM      1  C   UNL     1       2.586   3.477  20.944  0.00  0.00    +0.000 A 
ATOM      2  C   UNL     1       3.469   2.462  20.587  0.00  0.00    +0.000 A 
ATOM      3  C   UNL     1       4.422   2.704  19.606  0.00  0.00    +0.000 A 
ATOM      4  C   UNL     1       4.498   3.955  18.968  0.00  0.00    +0.000 A 
ATOM      5  C   UNL     1       3.583   4.991  19.341  0.00  0.00    +0.000 A 
ATOM      6  C   UNL     1       3.553   6.279  18.753  0.00  0.00    +0.000 A 
ATOM      7  C   UNL     1       2.639   7.243  19.162  0.00  0.00    +0.000 A 
ATOM      8  C   UNL     1       1.754   6.901  20.157  0.00  0.00    +0.000 A 
ATOM      9  N   UNL     1       1.729   5.689  20.741  0.00  0.00    +0.000 NA
ATOM     10  C   UNL     1       2.616   4.745  20.349  0.00  0.00    +0.000 A 
ENDROOT
BRANCH   4  11
ATOM     11  C   UNL     1       5.534   4.151  17.947  0.00  0.00    +0.000 A 
ATOM     12  N   UNL     1       5.404   4.181  16.633  0.00  0.00    +0.000 NA
ATOM     13  N   UNL     1       6.656   4.390  16.112  0.00  0.00    +0.000 NA
ATOM     14  N   UNL     1       7.557   4.497  17.077  0.00  0.00    +0.000 NA
ATOM     15  N   UNL     1       6.865   4.348  18.212  0.00  0.00    +0.000 N 
ATOM     16  H   UNL     1       7.351   4.383  19.097  0.00  0.00    +0.000 HD
ENDBRANCH   4  11
BRANCH   1  17
ATOM     17  O   UNL     1       1.649   3.217  21.918  0.00  0.00    +0.000 OA
ATOM     18  H   UNL     1       1.738   2.306  22.231  0.00  0.00    +0.000 HD
ENDBRANCH   1  17
TORSDOF 2
ENDMDL
MODEL 9
REMARK VINA RESULT:      -6.6      2.938      5.151
REMARK  Name = 
REMARK  2 active torsions:
REMARK  status: ('A' for Active; 'I' for Inactive)
REMARK    1  A    between atoms: O_1  and  C_2
REMARK    2  A    between atoms: C_5  and  C_6
REMARK                            x       y       z     vdW  Elec       q    Type
REMARK                         _______ _______ _______ _____ _____    ______ ____
ROOT
ATOM      1  C   UNL     1       2.315   5.415  19.714  0.00  0.00    +0.000 A 
ATOM      2  C   UNL     1       3.172   6.478  19.444  0.00  0.00    +0.000 A 
ATOM      3  C   UNL     1       4.312   6.256  18.682  0.00  0.00    +0.000 A 
ATOM      4  C   UNL     1       4.611   4.973  18.192  0.00  0.00    +0.000 A 
ATOM      5  C   UNL     1       3.725   3.885  18.479  0.00  0.00    +0.000 A 
ATOM      6  C   UNL     1       3.937   2.550  18.057  0.00  0.00    +0.000 A 
ATOM      7  C   UNL     1       3.036   1.538  18.368  0.00  0.00    +0.000 A 
ATOM      8  C   UNL     1       1.929   1.877  19.110  0.00  0.00    +0.000 A 
ATOM      9  N   UNL     1       1.685   3.125  19.548  0.00  0.00    +0.000 NA
ATOM     10  C   UNL     1       2.557   4.116  19.249  0.00  0.00    +0.000 A 
ENDROOT
BRANCH   4  11
ATOM     11  C   UNL     1       5.827   4.805  17.385  0.00  0.00    +0.000 A 
ATOM     12  N   UNL     1       6.014   5.080  16.107  0.00  0.00    +0.000 NA
ATOM     13  N   UNL     1       7.315   4.751  15.816  0.00  0.00    +0.000 NA
ATOM     14  N   UNL     1       7.937   4.286  16.888  0.00  0.00    +0.000 NA
ATOM     15  N   UNL     1       7.017   4.318  17.859  0.00  0.00    +0.000 N 
ATOM     16  H   UNL     1       7.263   3.996  18.786  0.00  0.00    +0.000 HD
ENDBRANCH   4  11
BRANCH   1  17
ATOM     17  O   UNL     1       1.190   5.656  20.471  0.00  0.00    +0.000 OA
ATOM     18  H   UNL     1       1.388   6.304  21.163  0.00  0.00    +0.000 HD
ENDBRANCH   1  17
TORSDOF 2
ENDMDL
