MODEL 1
REMARK VINA RESULT:      -7.9      0.000      0.000
REMARK  Name = 
REMARK  8 active torsions:
REMARK  status: ('A' for Active; 'I' for Inactive)
REMARK    1  A    between atoms: C_1  and  C_2
REMARK    2  A    between atoms: C_2  and  N_3
REMARK    3  A    between atoms: C_11  and  C_12
REMARK    4  A    between atoms: C_14  and  C_15
REMARK    5  A    between atoms: N_16  and  C_17
REMARK    6  A    between atoms: C_21  and  O_22
REMARK    7  A    between atoms: O_22  and  C_23
REMARK    8  A    between atoms: C_23  and  C_24
REMARK                            x       y       z     vdW  Elec       q    Type
REMARK                         _______ _______ _______ _____ _____    ______ ____
ROOT
ATOM      1  N   UNL     1      -1.000  13.759  22.413  0.00  0.00    +0.000 N 
ATOM      2  C   UNL     1      -0.480  12.557  21.961  0.00  0.00    +0.000 C 
ATOM      3  O   UNL     1      -0.376  11.591  22.706  0.00  0.00    +0.000 OA
ATOM      4  N   UNL     1      -0.079  12.630  20.647  0.00  0.00    +0.000 N 
ATOM      5  C   UNL     1       0.461  11.522  20.048  0.00  0.00    +0.000 A 
ATOM      6  N   UNL     1       0.357  10.284  20.454  0.00  0.00    +0.000 NA
ATOM      7  C   UNL     1       1.120   9.484  19.650  0.00  0.00    +0.000 A 
ATOM      8  C   UNL     1       1.320   8.111  19.787  0.00  0.00    +0.000 A 
ATOM      9  C   UNL     1       2.113   7.407  18.860  0.00  0.00    +0.000 A 
ATOM     10  C   UNL     1       2.750   8.195  17.874  0.00  0.00    +0.000 A 
ATOM     11  N   UNL     1       2.585   9.543  17.703  0.00  0.00    +0.000 NA
ATOM     12  C   UNL     1       1.763  10.117  18.603  0.00  0.00    +0.000 A 
ATOM     13  S   UNL     1       1.375  11.787  18.626  0.00  0.00    +0.000 S 
ATOM     14  H   UNL     1      -1.580  14.243  21.742  0.00  0.00    +0.000 HD
ATOM     15  H   UNL     1       0.109  13.531  20.239  0.00  0.00    +0.000 HD
ENDROOT
BRANCH   9  16
ATOM     16  C   UNL     1       2.222   5.928  19.072  0.00  0.00    +0.000 A 
ATOM     17  C   UNL     1       2.206   5.263  20.363  0.00  0.00    +0.000 A 
ATOM     18  C   UNL     1       2.126   3.923  20.486  0.00  0.00    +0.000 A 
ATOM     19  C   UNL     1       2.168   3.284  21.846  0.00  0.00    +0.000 C 
ATOM     20  N   UNL     1       2.034   3.121  19.349  0.00  0.00    +0.000 N 
ATOM     21  C   UNL     1       1.773   1.692  19.407  0.00  0.00    +0.000 C 
ATOM     22  C   UNL     1       2.090   3.663  18.065  0.00  0.00    +0.000 A 
ATOM     23  O   UNL     1       1.969   3.019  17.027  0.00  0.00    +0.000 OA
ATOM     24  C   UNL     1       2.259   5.132  17.984  0.00  0.00    +0.000 A 
ENDBRANCH   9  16
BRANCH   1  26
ATOM     25  C   UNL     1      -2.768  14.487  23.975  0.00  0.00    +0.000 C 
ATOM     26  C   UNL     1      -1.428  13.806  23.800  0.00  0.00    +0.000 C 
ENDBRANCH   1  26
BRANCH  10  27
ATOM     27  O   UNL     1       3.608   7.573  16.969  0.00  0.00    +0.000 OA
BRANCH  27  28
ATOM     28  C   UNL     1       4.933   7.411  17.501  0.00  0.00    +0.000 C 
BRANCH  28  29
ATOM     29  C   UNL     1       5.480   5.975  17.415  0.00  0.00    +0.000 C 
ATOM     30  C   UNL     1       5.934   5.424  18.751  0.00  0.00    +0.000 C 
ATOM     31  C   UNL     1       7.389   5.830  18.816  0.00  0.00    +0.000 C 
ATOM     32  O   UNL     1       7.864   5.901  17.467  0.00  0.00    +0.000 OA
ATOM     33  C   UNL     1       6.741   5.835  16.579  0.00  0.00    +0.000 C 
ENDBRANCH  28  29
ENDBRANCH  27  28
ENDBRANCH  10  27
TORSDOF 5
ENDMDL
MODEL 2
REMARK VINA RESULT:      -7.8      2.957      9.283
REMARK  Name = 
REMARK  8 active torsions:
REMARK  status: ('A' for Active; 'I' for Inactive)
REMARK    1  A    between atoms: C_1  and  C_2
REMARK    2  A    between atoms: C_2  and  N_3
REMARK    3  A    between atoms: C_11  and  C_12
REMARK    4  A    between atoms: C_14  and  C_15
REMARK    5  A    between atoms: N_16  and  C_17
REMARK    6  A    between atoms: C_21  and  O_22
REMARK    7  A    between atoms: O_22  and  C_23
REMARK    8  A    between atoms: C_23  and  C_24
REMARK                            x       y       z     vdW  Elec       q    Type
REMARK                         _______ _______ _______ _____ _____    ______ ____
ROOT
ATOM      1  N   UNL     1       3.258   3.952  19.868  0.00  0.00    +0.000 N 
ATOM      2  C   UNL     1       2.620   5.140  20.183  0.00  0.00    +0.000 C 
ATOM      3  O   UNL     1       1.947   5.249  21.200  0.00  0.00    +0.000 OA
ATOM      4  N   UNL     1       2.805   6.098  19.213  0.00  0.00    +0.000 N 
ATOM      5  C   UNL     1       2.234   7.334  19.373  0.00  0.00    +0.000 A 
ATOM      6  N   UNL     1       1.793   7.854  20.488  0.00  0.00    +0.000 NA
ATOM      7  C   UNL     1       1.201   9.056  20.218  0.00  0.00    +0.000 A 
ATOM      8  C   UNL     1       0.560   9.894  21.130  0.00  0.00    +0.000 A 
ATOM      9  C   UNL     1       0.019  11.126  20.712  0.00  0.00    +0.000 A 
ATOM     10  C   UNL     1       0.086  11.387  19.324  0.00  0.00    +0.000 A 
ATOM     11  N   UNL     1       0.703  10.594  18.394  0.00  0.00    +0.000 NA
ATOM     12  C   UNL     1       1.240   9.466  18.899  0.00  0.00    +0.000 A 
ATOM     13  S   UNL     1       2.072   8.294  17.965  0.00  0.00    +0.000 S 
ATOM     14  H   UNL     1       4.170   4.066  19.447  0.00  0.00    +0.000 HD
ATOM     15  H   UNL     1       3.071   5.814  18.285  0.00  0.00    +0.000 HD
ENDROOT
BRANCH   9  16
ATOM     16  C   UNL     1      -0.605  11.971  21.781  0.00  0.00    +0.000 A 
ATOM     17  C   UNL     1      -0.230  13.339  22.093  0.00  0.00    +0.000 A 
ATOM     18  C   UNL     1      -0.943  14.109  22.939  0.00  0.00    +0.000 A 
ATOM     19  C   UNL     1      -0.479  15.501  23.267  0.00  0.00    +0.000 C 
ATOM     20  N   UNL     1      -2.098  13.607  23.537  0.00  0.00    +0.000 N 
ATOM     21  C   UNL     1      -3.006  14.429  24.320  0.00  0.00    +0.000 C 
ATOM     22  C   UNL     1      -2.511  12.289  23.338  0.00  0.00    +0.000 A 
ATOM     23  O   UNL     1      -3.540  11.802  23.797  0.00  0.00    +0.000 OA
ATOM     24  C   UNL     1      -1.650  11.461  22.463  0.00  0.00    +0.000 A 
ENDBRANCH   9  16
BRANCH   1  26
ATOM     25  C   UNL     1       1.689   2.326  20.860  0.00  0.00    +0.000 C 
ATOM     26  C   UNL     1       3.104   2.858  20.809  0.00  0.00    +0.000 C 
ENDBRANCH   1  26
BRANCH  10  27
ATOM     27  O   UNL     1      -0.495  12.553  18.832  0.00  0.00    +0.000 OA
BRANCH  27  28
ATOM     28  C   UNL     1      -1.562  12.280  17.908  0.00  0.00    +0.000 C 
BRANCH  28  29
ATOM     29  C   UNL     1      -2.638  11.321  18.448  0.00  0.00    +0.000 C 
ATOM     30  C   UNL     1      -3.289  10.481  17.369  0.00  0.00    +0.000 C 
ATOM     31  C   UNL     1      -4.460  11.330  16.928  0.00  0.00    +0.000 C 
ATOM     32  O   UNL     1      -4.851  12.120  18.057  0.00  0.00    +0.000 OA
ATOM     33  C   UNL     1      -3.840  12.014  19.066  0.00  0.00    +0.000 C 
ENDBRANCH  28  29
ENDBRANCH  27  28
ENDBRANCH  10  27
TORSDOF 5
ENDMDL
MODEL 3
REMARK VINA RESULT:      -7.8      2.913      9.086
REMARK  Name = 
REMARK  8 active torsions:
REMARK  status: ('A' for Active; 'I' for Inactive)
REMARK    1  A    between atoms: C_1  and  C_2
REMARK    2  A    between atoms: C_2  and  N_3
REMARK    3  A    between atoms: C_11  and  C_12
REMARK    4  A    between atoms: C_14  and  C_15
REMARK    5  A    between atoms: N_16  and  C_17
REMARK    6  A    between atoms: C_21  and  O_22
REMARK    7  A    between atoms: O_22  and  C_23
REMARK    8  A    between atoms: C_23  and  C_24
REMARK                            x       y       z     vdW  Elec       q    Type
REMARK                         _______ _______ _______ _____ _____    ______ ____
ROOT
ATOM      1  N   UNL     1       3.018   4.434  19.465  0.00  0.00    +0.000 N 
ATOM      2  C   UNL     1       2.371   5.587  19.881  0.00  0.00    +0.000 C 
ATOM      3  O   UNL     1       1.677   5.597  20.889  0.00  0.00    +0.000 OA
ATOM      4  N   UNL     1       2.576   6.635  19.013  0.00  0.00    +0.000 N 
ATOM      5  C   UNL     1       2.001   7.849  19.281  0.00  0.00    +0.000 A 
ATOM      6  N   UNL     1       1.535   8.258  20.431  0.00  0.00    +0.000 NA
ATOM      7  C   UNL     1       0.948   9.482  20.268  0.00  0.00    +0.000 A 
ATOM      8  C   UNL     1       0.287  10.228  21.243  0.00  0.00    +0.000 A 
ATOM      9  C   UNL     1      -0.246  11.495  20.935  0.00  0.00    +0.000 A 
ATOM     10  C   UNL     1      -0.149  11.890  19.581  0.00  0.00    +0.000 A 
ATOM     11  N   UNL     1       0.488  11.191  18.592  0.00  0.00    +0.000 NA
ATOM     12  C   UNL     1       1.015  10.018  18.996  0.00  0.00    +0.000 A 
ATOM     13  S   UNL     1       1.868   8.942  17.970  0.00  0.00    +0.000 S 
ATOM     14  H   UNL     1       3.938   4.587  19.078  0.00  0.00    +0.000 HD
ATOM     15  H   UNL     1       2.863   6.442  18.068  0.00  0.00    +0.000 HD
ENDROOT
BRANCH   9  16
ATOM     16  C   UNL     1      -0.893  12.232  22.068  0.00  0.00    +0.000 A 
ATOM     17  C   UNL     1      -0.514  13.555  22.531  0.00  0.00    +0.000 A 
ATOM     18  C   UNL     1      -1.245  14.243  23.432  0.00  0.00    +0.000 A 
ATOM     19  C   UNL     1      -0.777  15.587  23.918  0.00  0.00    +0.000 C 
ATOM     20  N   UNL     1      -2.422  13.697  23.940  0.00  0.00    +0.000 N 
ATOM     21  C   UNL     1      -3.346  14.446  24.778  0.00  0.00    +0.000 C 
ATOM     22  C   UNL     1      -2.843  12.413  23.593  0.00  0.00    +0.000 A 
ATOM     23  O   UNL     1      -3.891  11.894  23.968  0.00  0.00    +0.000 OA
ATOM     24  C   UNL     1      -1.965  11.669  22.662  0.00  0.00    +0.000 A 
ENDBRANCH   9  16
BRANCH   1  26
ATOM     25  C   UNL     1       1.835   2.282  19.719  0.00  0.00    +0.000 C 
ATOM     26  C   UNL     1       2.844   3.253  20.292  0.00  0.00    +0.000 C 
ENDBRANCH   1  26
BRANCH  10  27
ATOM     27  O   UNL     1      -0.722  13.100  19.192  0.00  0.00    +0.000 OA
BRANCH  27  28
ATOM     28  C   UNL     1       0.211  13.942  18.496  0.00  0.00    +0.000 C 
BRANCH  28  29
ATOM     29  C   UNL     1       1.340  14.504  19.379  0.00  0.00    +0.000 C 
ATOM     30  C   UNL     1       1.329  16.015  19.480  0.00  0.00    +0.000 C 
ATOM     31  C   UNL     1       2.203  16.445  18.323  0.00  0.00    +0.000 C 
ATOM     32  O   UNL     1       3.146  15.391  18.097  0.00  0.00    +0.000 OA
ATOM     33  C   UNL     1       2.739  14.240  18.848  0.00  0.00    +0.000 C 
ENDBRANCH  28  29
ENDBRANCH  27  28
ENDBRANCH  10  27
TORSDOF 5
ENDMDL
MODEL 4
REMARK VINA RESULT:      -7.5      2.464      4.393
REMARK  Name = 
REMARK  8 active torsions:
REMARK  status: ('A' for Active; 'I' for Inactive)
REMARK    1  A    between atoms: C_1  and  C_2
REMARK    2  A    between atoms: C_2  and  N_3
REMARK    3  A    between atoms: C_11  and  C_12
REMARK    4  A    between atoms: C_14  and  C_15
REMARK    5  A    between atoms: N_16  and  C_17
REMARK    6  A    between atoms: C_21  and  O_22
REMARK    7  A    between atoms: O_22  and  C_23
REMARK    8  A    between atoms: C_23  and  C_24
REMARK                            x       y       z     vdW  Elec       q    Type
REMARK                         _______ _______ _______ _____ _____    ______ ____
ROOT
ATOM      1  N   UNL     1      -0.597  13.559  20.020  0.00  0.00    +0.000 N 
ATOM      2  C   UNL     1       0.077  12.376  19.762  0.00  0.00    +0.000 C 
ATOM      3  O   UNL     1       0.734  12.230  18.739  0.00  0.00    +0.000 OA
ATOM      4  N   UNL     1      -0.135  11.437  20.745  0.00  0.00    +0.000 N 
ATOM      5  C   UNL     1       0.462  10.208  20.637  0.00  0.00    +0.000 A 
ATOM      6  N   UNL     1       1.483   9.896  19.883  0.00  0.00    +0.000 NA
ATOM      7  C   UNL     1       1.714   8.552  19.974  0.00  0.00    +0.000 A 
ATOM      8  C   UNL     1       2.678   7.822  19.279  0.00  0.00    +0.000 A 
ATOM      9  C   UNL     1       2.823   6.438  19.499  0.00  0.00    +0.000 A 
ATOM     10  C   UNL     1       1.878   5.853  20.373  0.00  0.00    +0.000 A 
ATOM     11  N   UNL     1       0.916   6.529  21.074  0.00  0.00    +0.000 NA
ATOM     12  C   UNL     1       0.893   7.856  20.841  0.00  0.00    +0.000 A 
ATOM     13  S   UNL     1      -0.204   8.945  21.582  0.00  0.00    +0.000 S 
ATOM     14  H   UNL     1      -0.588  13.842  20.990  0.00  0.00    +0.000 HD
ATOM     15  H   UNL     1      -0.937  11.525  21.345  0.00  0.00    +0.000 HD
ENDROOT
BRANCH   9  16
ATOM     16  C   UNL     1       3.920   5.759  18.738  0.00  0.00    +0.000 A 
ATOM     17  C   UNL     1       3.894   5.463  17.316  0.00  0.00    +0.000 A 
ATOM     18  C   UNL     1       4.979   5.016  16.650  0.00  0.00    +0.000 A 
ATOM     19  C   UNL     1       4.882   4.674  15.190  0.00  0.00    +0.000 C 
ATOM     20  N   UNL     1       6.188   4.841  17.322  0.00  0.00    +0.000 N 
ATOM     21  C   UNL     1       7.434   4.530  16.640  0.00  0.00    +0.000 C 
ATOM     22  C   UNL     1       6.299   5.052  18.696  0.00  0.00    +0.000 A 
ATOM     23  O   UNL     1       7.343   4.960  19.336  0.00  0.00    +0.000 OA
ATOM     24  C   UNL     1       5.061   5.466  19.394  0.00  0.00    +0.000 A 
ENDBRANCH   9  16
BRANCH   1  26
ATOM     25  C   UNL     1      -0.856  15.972  19.572  0.00  0.00    +0.000 C 
ATOM     26  C   UNL     1      -0.469  14.613  19.030  0.00  0.00    +0.000 C 
ENDBRANCH   1  26
BRANCH  10  27
ATOM     27  O   UNL     1       1.917   4.475  20.579  0.00  0.00    +0.000 OA
BRANCH  27  28
ATOM     28  C   UNL     1       1.109   3.761  19.628  0.00  0.00    +0.000 C 
BRANCH  28  29
ATOM     29  C   UNL     1       1.564   2.313  19.370  0.00  0.00    +0.000 C 
ATOM     30  C   UNL     1       2.652   1.848  20.315  0.00  0.00    +0.000 C 
ATOM     31  C   UNL     1       3.924   2.232  19.593  0.00  0.00    +0.000 C 
ATOM     32  O   UNL     1       3.634   2.202  18.191  0.00  0.00    +0.000 OA
ATOM     33  C   UNL     1       2.216   2.094  18.016  0.00  0.00    +0.000 C 
ENDBRANCH  28  29
ENDBRANCH  27  28
ENDBRANCH  10  27
TORSDOF 5
ENDMDL
MODEL 5
REMARK VINA RESULT:      -7.5      2.978      9.141
REMARK  Name = 
REMARK  8 active torsions:
REMARK  status: ('A' for Active; 'I' for Inactive)
REMARK    1  A    between atoms: C_1  and  C_2
REMARK    2  A    between atoms: C_2  and  N_3
REMARK    3  A    between atoms: C_11  and  C_12
REMARK    4  A    between atoms: C_14  and  C_15
REMARK    5  A    between atoms: N_16  and  C_17
REMARK    6  A    between atoms: C_21  and  O_22
REMARK    7  A    between atoms: O_22  and  C_23
REMARK    8  A    between atoms: C_23  and  C_24
REMARK                            x       y       z     vdW  Elec       q    Type
REMARK                         _______ _______ _______ _____ _____    ______ ____
ROOT
ATOM      1  N   UNL     1       2.962   4.602  19.509  0.00  0.00    +0.000 N 
ATOM      2  C   UNL     1       2.299   5.738  19.943  0.00  0.00    +0.000 C 
ATOM      3  O   UNL     1       1.573   5.712  20.929  0.00  0.00    +0.000 OA
ATOM      4  N   UNL     1       2.528   6.816  19.119  0.00  0.00    +0.000 N 
ATOM      5  C   UNL     1       1.941   8.019  19.410  0.00  0.00    +0.000 A 
ATOM      6  N   UNL     1       1.438   8.388  20.559  0.00  0.00    +0.000 NA
ATOM      7  C   UNL     1       0.852   9.615  20.418  0.00  0.00    +0.000 A 
ATOM      8  C   UNL     1       0.158  10.325  21.397  0.00  0.00    +0.000 A 
ATOM      9  C   UNL     1      -0.369  11.601  21.116  0.00  0.00    +0.000 A 
ATOM     10  C   UNL     1      -0.229  12.043  19.781  0.00  0.00    +0.000 A 
ATOM     11  N   UNL     1       0.441  11.380  18.789  0.00  0.00    +0.000 NA
ATOM     12  C   UNL     1       0.959  10.196  19.169  0.00  0.00    +0.000 A 
ATOM     13  S   UNL     1       1.848   9.157  18.134  0.00  0.00    +0.000 S 
ATOM     14  H   UNL     1       3.894   4.770  19.157  0.00  0.00    +0.000 HD
ATOM     15  H   UNL     1       2.846   6.657  18.178  0.00  0.00    +0.000 HD
ENDROOT
BRANCH   9  16
ATOM     16  C   UNL     1      -1.054  12.298  22.253  0.00  0.00    +0.000 A 
ATOM     17  C   UNL     1      -0.641  13.565  22.830  0.00  0.00    +0.000 A 
ATOM     18  C   UNL     1      -1.396  14.232  23.726  0.00  0.00    +0.000 A 
ATOM     19  C   UNL     1      -0.896  15.513  24.332  0.00  0.00    +0.000 C 
ATOM     20  N   UNL     1      -2.632  13.719  24.117  0.00  0.00    +0.000 N 
ATOM     21  C   UNL     1      -3.572  14.462  24.943  0.00  0.00    +0.000 C 
ATOM     22  C   UNL     1      -3.093  12.486  23.656  0.00  0.00    +0.000 A 
ATOM     23  O   UNL     1      -4.188  12.002  23.925  0.00  0.00    +0.000 OA
ATOM     24  C   UNL     1      -2.191  11.757  22.735  0.00  0.00    +0.000 A 
ENDBRANCH   9  16
BRANCH   1  26
ATOM     25  C   UNL     1       3.892   2.397  20.116  0.00  0.00    +0.000 C 
ATOM     26  C   UNL     1       2.766   3.393  20.289  0.00  0.00    +0.000 C 
ENDBRANCH   1  26
BRANCH  10  27
ATOM     27  O   UNL     1      -0.793  13.265  19.415  0.00  0.00    +0.000 OA
BRANCH  27  28
ATOM     28  C   UNL     1      -0.094  13.879  18.320  0.00  0.00    +0.000 C 
BRANCH  28  29
ATOM     29  C   UNL     1       0.812  15.056  18.726  0.00  0.00    +0.000 C 
ATOM     30  C   UNL     1       2.281  14.802  18.459  0.00  0.00    +0.000 C 
ATOM     31  C   UNL     1       2.761  14.166  19.744  0.00  0.00    +0.000 C 
ATOM     32  O   UNL     1       1.933  14.673  20.796  0.00  0.00    +0.000 OA
ATOM     33  C   UNL     1       0.816  15.357  20.215  0.00  0.00    +0.000 C 
ENDBRANCH  28  29
ENDBRANCH  27  28
ENDBRANCH  10  27
TORSDOF 5
ENDMDL
MODEL 6
REMARK VINA RESULT:      -7.5      1.103      1.593
REMARK  Name = 
REMARK  8 active torsions:
REMARK  status: ('A' for Active; 'I' for Inactive)
REMARK    1  A    between atoms: C_1  and  C_2
REMARK    2  A    between atoms: C_2  and  N_3
REMARK    3  A    between atoms: C_11  and  C_12
REMARK    4  A    between atoms: C_14  and  C_15
REMARK    5  A    between atoms: N_16  and  C_17
REMARK    6  A    between atoms: C_21  and  O_22
REMARK    7  A    between atoms: O_22  and  C_23
REMARK    8  A    between atoms: C_23  and  C_24
REMARK                            x       y       z     vdW  Elec       q    Type
REMARK                         _______ _______ _______ _____ _____    ______ ____
ROOT
ATOM      1  N   UNL     1      -1.002  13.967  22.460  0.00  0.00    +0.000 N 
ATOM      2  C   UNL     1      -0.520  12.741  22.030  0.00  0.00    +0.000 C 
ATOM      3  O   UNL     1      -0.404  11.799  22.803  0.00  0.00    +0.000 OA
ATOM      4  N   UNL     1      -0.169  12.762  20.700  0.00  0.00    +0.000 N 
ATOM      5  C   UNL     1       0.328  11.624  20.120  0.00  0.00    +0.000 A 
ATOM      6  N   UNL     1       0.219  10.403  20.572  0.00  0.00    +0.000 NA
ATOM      7  C   UNL     1       0.936   9.561  19.768  0.00  0.00    +0.000 A 
ATOM      8  C   UNL     1       1.117   8.191  19.945  0.00  0.00    +0.000 A 
ATOM      9  C   UNL     1       1.861   7.441  19.013  0.00  0.00    +0.000 A 
ATOM     10  C   UNL     1       2.473   8.183  17.976  0.00  0.00    +0.000 A 
ATOM     11  N   UNL     1       2.325   9.527  17.765  0.00  0.00    +0.000 NA
ATOM     12  C   UNL     1       1.549  10.147  18.676  0.00  0.00    +0.000 A 
ATOM     13  S   UNL     1       1.191  11.824  18.655  0.00  0.00    +0.000 S 
ATOM     14  H   UNL     1      -1.598  14.439  21.794  0.00  0.00    +0.000 HD
ATOM     15  H   UNL     1       0.018  13.644  20.255  0.00  0.00    +0.000 HD
ENDROOT
BRANCH   9  16
ATOM     16  C   UNL     1       1.953   5.968  19.272  0.00  0.00    +0.000 A 
ATOM     17  C   UNL     1       2.164   4.951  18.257  0.00  0.00    +0.000 A 
ATOM     18  C   UNL     1       2.418   3.663  18.566  0.00  0.00    +0.000 A 
ATOM     19  C   UNL     1       2.574   2.640  17.475  0.00  0.00    +0.000 C 
ATOM     20  N   UNL     1       2.507   3.268  19.900  0.00  0.00    +0.000 N 
ATOM     21  C   UNL     1       2.945   1.942  20.306  0.00  0.00    +0.000 C 
ATOM     22  C   UNL     1       2.272   4.162  20.945  0.00  0.00    +0.000 A 
ATOM     23  O   UNL     1       2.379   3.890  22.137  0.00  0.00    +0.000 OA
ATOM     24  C   UNL     1       1.918   5.545  20.552  0.00  0.00    +0.000 A 
ENDBRANCH   9  16
BRANCH   1  26
ATOM     25  C   UNL     1      -2.001  15.403  24.201  0.00  0.00    +0.000 C 
ATOM     26  C   UNL     1      -1.374  14.069  23.859  0.00  0.00    +0.000 C 
ENDBRANCH   1  26
BRANCH  10  27
ATOM     27  O   UNL     1       3.285   7.515  17.062  0.00  0.00    +0.000 OA
BRANCH  27  28
ATOM     28  C   UNL     1       4.649   7.431  17.506  0.00  0.00    +0.000 C 
BRANCH  28  29
ATOM     29  C   UNL     1       5.287   6.040  17.336  0.00  0.00    +0.000 C 
ATOM     30  C   UNL     1       6.236   5.673  18.458  0.00  0.00    +0.000 C 
ATOM     31  C   UNL     1       7.568   6.195  17.968  0.00  0.00    +0.000 C 
ATOM     32  O   UNL     1       7.531   6.156  16.537  0.00  0.00    +0.000 OA
ATOM     33  C   UNL     1       6.184   5.908  16.117  0.00  0.00    +0.000 C 
ENDBRANCH  28  29
ENDBRANCH  27  28
ENDBRANCH  10  27
TORSDOF 5
ENDMDL
MODEL 7
REMARK VINA RESULT:      -7.5      2.562      5.217
REMARK  Name = 
REMARK  8 active torsions:
REMARK  status: ('A' for Active; 'I' for Inactive)
REMARK    1  A    between atoms: C_1  and  C_2
REMARK    2  A    between atoms: C_2  and  N_3
REMARK    3  A    between atoms: C_11  and  C_12
REMARK    4  A    between atoms: C_14  and  C_15
REMARK    5  A    between atoms: N_16  and  C_17
REMARK    6  A    between atoms: C_21  and  O_22
REMARK    7  A    between atoms: O_22  and  C_23
REMARK    8  A    between atoms: C_23  and  C_24
REMARK                            x       y       z     vdW  Elec       q    Type
REMARK                         _______ _______ _______ _____ _____    ______ ____
ROOT
ATOM      1  N   UNL     1      -1.461  11.456  19.896  0.00  0.00    +0.000 N 
ATOM      2  C   UNL     1      -0.525  10.547  19.430  0.00  0.00    +0.000 C 
ATOM      3  O   UNL     1      -0.217  10.503  18.245  0.00  0.00    +0.000 OA
ATOM      4  N   UNL     1      -0.065   9.722  20.430  0.00  0.00    +0.000 N 
ATOM      5  C   UNL     1       0.867   8.762  20.132  0.00  0.00    +0.000 A 
ATOM      6  N   UNL     1       1.638   8.721  19.078  0.00  0.00    +0.000 NA
ATOM      7  C   UNL     1       2.354   7.556  19.091  0.00  0.00    +0.000 A 
ATOM      8  C   UNL     1       3.244   7.112  18.114  0.00  0.00    +0.000 A 
ATOM      9  C   UNL     1       3.938   5.897  18.278  0.00  0.00    +0.000 A 
ATOM     10  C   UNL     1       3.593   5.142  19.423  0.00  0.00    +0.000 A 
ATOM     11  N   UNL     1       2.725   5.537  20.405  0.00  0.00    +0.000 NA
ATOM     12  C   UNL     1       2.155   6.738  20.188  0.00  0.00    +0.000 A 
ATOM     13  S   UNL     1       1.033   7.478  21.251  0.00  0.00    +0.000 S 
ATOM     14  H   UNL     1      -1.250  11.844  20.805  0.00  0.00    +0.000 HD
ATOM     15  H   UNL     1      -0.613   9.609  21.266  0.00  0.00    +0.000 HD
ENDROOT
BRANCH   9  16
ATOM     16  C   UNL     1       4.907   5.538  17.192  0.00  0.00    +0.000 A 
ATOM     17  C   UNL     1       4.602   4.711  16.038  0.00  0.00    +0.000 A 
ATOM     18  C   UNL     1       5.457   4.569  15.004  0.00  0.00    +0.000 A 
ATOM     19  C   UNL     1       5.114   3.658  13.859  0.00  0.00    +0.000 C 
ATOM     20  N   UNL     1       6.676   5.245  15.008  0.00  0.00    +0.000 N 
ATOM     21  C   UNL     1       7.567   5.277  13.859  0.00  0.00    +0.000 C 
ATOM     22  C   UNL     1       7.078   6.024  16.093  0.00  0.00    +0.000 A 
ATOM     23  O   UNL     1       8.115   6.679  16.139  0.00  0.00    +0.000 OA
ATOM     24  C   UNL     1       6.139   6.082  17.237  0.00  0.00    +0.000 A 
ENDBRANCH   9  16
BRANCH   1  26
ATOM     25  C   UNL     1      -3.383  11.886  18.408  0.00  0.00    +0.000 C 
ATOM     26  C   UNL     1      -2.039  12.359  18.917  0.00  0.00    +0.000 C 
ENDBRANCH   1  26
BRANCH  10  27
ATOM     27  O   UNL     1       4.187   3.895  19.608  0.00  0.00    +0.000 OA
BRANCH  27  28
ATOM     28  C   UNL     1       3.357   3.008  20.376  0.00  0.00    +0.000 C 
BRANCH  28  29
ATOM     29  C   UNL     1       2.605   1.958  19.538  0.00  0.00    +0.000 C 
ATOM     30  C   UNL     1       3.137   1.822  18.127  0.00  0.00    +0.000 C 
ATOM     31  C   UNL     1       2.321   2.830  17.350  0.00  0.00    +0.000 C 
ATOM     32  O   UNL     1       1.058   2.945  18.015  0.00  0.00    +0.000 OA
ATOM     33  C   UNL     1       1.144   2.290  19.286  0.00  0.00    +0.000 C 
ENDBRANCH  28  29
ENDBRANCH  27  28
ENDBRANCH  10  27
TORSDOF 5
ENDMDL
MODEL 8
REMARK VINA RESULT:      -7.4      1.462      1.807
REMARK  Name = 
REMARK  8 active torsions:
REMARK  status: ('A' for Active; 'I' for Inactive)
REMARK    1  A    between atoms: C_1  and  C_2
REMARK    2  A    between atoms: C_2  and  N_3
REMARK    3  A    between atoms: C_11  and  C_12
REMARK    4  A    between atoms: C_14  and  C_15
REMARK    5  A    between atoms: N_16  and  C_17
REMARK    6  A    between atoms: C_21  and  O_22
REMARK    7  A    between atoms: O_22  and  C_23
REMARK    8  A    between atoms: C_23  and  C_24
REMARK                            x       y       z     vdW  Elec       q    Type
REMARK                         _______ _______ _______ _____ _____    ______ ____
ROOT
ATOM      1  N   UNL     1      -0.741  13.379  22.059  0.00  0.00    +0.000 N 
ATOM      2  C   UNL     1      -0.205  12.167  21.654  0.00  0.00    +0.000 C 
ATOM      3  O   UNL     1      -0.042  11.249  22.448  0.00  0.00    +0.000 OA
ATOM      4  N   UNL     1       0.141  12.175  20.323  0.00  0.00    +0.000 N 
ATOM      5  C   UNL     1       0.689  11.049  19.766  0.00  0.00    +0.000 A 
ATOM      6  N   UNL     1       0.638   9.834  20.245  0.00  0.00    +0.000 NA
ATOM      7  C   UNL     1       1.392   9.009  19.457  0.00  0.00    +0.000 A 
ATOM      8  C   UNL     1       1.637   7.653  19.664  0.00  0.00    +0.000 A 
ATOM      9  C   UNL     1       2.412   6.918  18.746  0.00  0.00    +0.000 A 
ATOM     10  C   UNL     1       2.986   7.664  17.691  0.00  0.00    +0.000 A 
ATOM     11  N   UNL     1       2.775   8.995  17.451  0.00  0.00    +0.000 NA
ATOM     12  C   UNL     1       1.973   9.598  18.350  0.00  0.00    +0.000 A 
ATOM     13  S   UNL     1       1.538  11.255  18.294  0.00  0.00    +0.000 S 
ATOM     14  H   UNL     1      -1.361  13.808  21.385  0.00  0.00    +0.000 HD
ATOM     15  H   UNL     1       0.286  13.055  19.857  0.00  0.00    +0.000 HD
ENDROOT
BRANCH   9  16
ATOM     16  C   UNL     1       2.573   5.457  19.037  0.00  0.00    +0.000 A 
ATOM     17  C   UNL     1       1.582   4.433  18.756  0.00  0.00    +0.000 A 
ATOM     18  C   UNL     1       1.850   3.116  18.872  0.00  0.00    +0.000 A 
ATOM     19  C   UNL     1       0.772   2.100  18.619  0.00  0.00    +0.000 C 
ATOM     20  N   UNL     1       3.122   2.693  19.255  0.00  0.00    +0.000 N 
ATOM     21  C   UNL     1       3.532   1.297  19.234  0.00  0.00    +0.000 C 
ATOM     22  C   UNL     1       4.125   3.601  19.593  0.00  0.00    +0.000 A 
ATOM     23  O   UNL     1       5.275   3.295  19.893  0.00  0.00    +0.000 OA
ATOM     24  C   UNL     1       3.756   5.034  19.526  0.00  0.00    +0.000 A 
ENDBRANCH   9  16
BRANCH   1  26
ATOM     25  C   UNL     1      -2.507  14.056  23.645  0.00  0.00    +0.000 C 
ATOM     26  C   UNL     1      -1.114  13.495  23.457  0.00  0.00    +0.000 C 
ENDBRANCH   1  26
BRANCH  10  27
ATOM     27  O   UNL     1       3.826   7.014  16.788  0.00  0.00    +0.000 OA
BRANCH  27  28
ATOM     28  C   UNL     1       5.191   6.991  17.236  0.00  0.00    +0.000 C 
BRANCH  28  29
ATOM     29  C   UNL     1       5.865   5.610  17.143  0.00  0.00    +0.000 C 
ATOM     30  C   UNL     1       7.214   5.645  16.455  0.00  0.00    +0.000 C 
ATOM     31  C   UNL     1       6.867   5.424  15.000  0.00  0.00    +0.000 C 
ATOM     32  O   UNL     1       5.667   4.642  14.972  0.00  0.00    +0.000 OA
ATOM     33  C   UNL     1       5.112   4.602  16.292  0.00  0.00    +0.000 C 
ENDBRANCH  28  29
ENDBRANCH  27  28
ENDBRANCH  10  27
TORSDOF 5
ENDMDL
MODEL 9
REMARK VINA RESULT:      -7.3      2.550      4.363
REMARK  Name = 
REMARK  8 active torsions:
REMARK  status: ('A' for Active; 'I' for Inactive)
REMARK    1  A    between atoms: C_1  and  C_2
REMARK    2  A    between atoms: C_2  and  N_3
REMARK    3  A    between atoms: C_11  and  C_12
REMARK    4  A    between atoms: C_14  and  C_15
REMARK    5  A    between atoms: N_16  and  C_17
REMARK    6  A    between atoms: C_21  and  O_22
REMARK    7  A    between atoms: O_22  and  C_23
REMARK    8  A    between atoms: C_23  and  C_24
REMARK                            x       y       z     vdW  Elec       q    Type
REMARK                         _______ _______ _______ _____ _____    ______ ____
ROOT
ATOM      1  N   UNL     1      -0.605  14.264  19.747  0.00  0.00    +0.000 N 
ATOM      2  C   UNL     1      -0.009  13.050  19.446  0.00  0.00    +0.000 C 
ATOM      3  O   UNL     1       0.377  12.795  18.312  0.00  0.00    +0.000 OA
ATOM      4  N   UNL     1       0.033  12.211  20.537  0.00  0.00    +0.000 N 
ATOM      5  C   UNL     1       0.592  10.967  20.405  0.00  0.00    +0.000 A 
ATOM      6  N   UNL     1       1.397  10.567  19.456  0.00  0.00    +0.000 NA
ATOM      7  C   UNL     1       1.652   9.233  19.617  0.00  0.00    +0.000 A 
ATOM      8  C   UNL     1       2.419   8.424  18.781  0.00  0.00    +0.000 A 
ATOM      9  C   UNL     1       2.621   7.065  19.091  0.00  0.00    +0.000 A 
ATOM     10  C   UNL     1       1.924   6.582  20.222  0.00  0.00    +0.000 A 
ATOM     11  N   UNL     1       1.160   7.338  21.069  0.00  0.00    +0.000 NA
ATOM     12  C   UNL     1       1.073   8.638  20.722  0.00  0.00    +0.000 A 
ATOM     13  S   UNL     1       0.186   9.812  21.601  0.00  0.00    +0.000 S 
ATOM     14  H   UNL     1      -0.360  14.637  20.653  0.00  0.00    +0.000 HD
ATOM     15  H   UNL     1      -0.598  12.371  21.304  0.00  0.00    +0.000 HD
ENDROOT
BRANCH   9  16
ATOM     16  C   UNL     1       3.502   6.297  18.152  0.00  0.00    +0.000 A 
ATOM     17  C   UNL     1       3.568   4.849  18.061  0.00  0.00    +0.000 A 
ATOM     18  C   UNL     1       4.241   4.216  17.078  0.00  0.00    +0.000 A 
ATOM     19  C   UNL     1       4.321   2.715  17.063  0.00  0.00    +0.000 C 
ATOM     20  N   UNL     1       4.890   4.953  16.089  0.00  0.00    +0.000 N 
ATOM     21  C   UNL     1       5.486   4.343  14.911  0.00  0.00    +0.000 C 
ATOM     22  C   UNL     1       4.924   6.347  16.119  0.00  0.00    +0.000 A 
ATOM     23  O   UNL     1       5.438   7.053  15.256  0.00  0.00    +0.000 OA
ATOM     24  C   UNL     1       4.238   6.992  17.261  0.00  0.00    +0.000 A 
ENDBRANCH   9  16
BRANCH   1  26
ATOM     25  C   UNL     1       0.051  16.489  18.904  0.00  0.00    +0.000 C 
ATOM     26  C   UNL     1      -0.731  15.217  18.659  0.00  0.00    +0.000 C 
ENDBRANCH   1  26
BRANCH  10  27
ATOM     27  O   UNL     1       2.020   5.229  20.543  0.00  0.00    +0.000 OA
BRANCH  27  28
ATOM     28  C   UNL     1       0.787   4.528  20.313  0.00  0.00    +0.000 C 
BRANCH  28  29
ATOM     29  C   UNL     1       0.858   3.014  20.585  0.00  0.00    +0.000 C 
ATOM     30  C   UNL     1       1.727   2.658  21.774  0.00  0.00    +0.000 C 
ATOM     31  C   UNL     1       3.096   2.475  21.159  0.00  0.00    +0.000 C 
ATOM     32  O   UNL     1       2.893   2.042  19.809  0.00  0.00    +0.000 OA
ATOM     33  C   UNL     1       1.510   2.209  19.474  0.00  0.00    +0.000 C 
ENDBRANCH  28  29
ENDBRANCH  27  28
ENDBRANCH  10  27
TORSDOF 5
ENDMDL
