MODEL 1
REMARK VINA RESULT:      -8.0      0.000      0.000
REMARK  Name = 
REMARK  12 active torsions:
REMARK  status: ('A' for Active; 'I' for Inactive)
REMARK    1  A    between atoms: C_1  and  C_2
REMARK    2  A    between atoms: C_2  and  C_3
REMARK    3  A    between atoms: C_3  and  C_4
REMARK    4  A    between atoms: C_4  and  N_5
REMARK    5  A    between atoms: N_5  and  C_23
REMARK    6  A    between atoms: C_6  and  C_8
REMARK    7  A    between atoms: C_12  and  S_13
REMARK    8  A    between atoms: S_13  and  N_16
REMARK    9  A    between atoms: C_24  and  N_25
REMARK   10  A    between atoms: N_26  and  C_27
REMARK   11  A    between atoms: C_27  and  C_28
REMARK   12  A    between atoms: C_28  and  C_29
REMARK                            x       y       z     vdW  Elec       q    Type
REMARK                         _______ _______ _______ _____ _____    ______ ____
ROOT
ATOM      1  N   UNL     1       3.870   4.223  19.257  0.00  0.00    +0.000 N 
ATOM      2  C   UNL     1       2.993   5.046  20.013  0.00  0.00    +0.000 C 
ATOM      3  O   UNL     1       2.469   4.661  21.056  0.00  0.00    +0.000 OA
ENDROOT
BRANCH   1   4
ATOM      4  C   UNL     1       4.646   4.713  18.197  0.00  0.00    +0.000 A 
ATOM      5  C   UNL     1       5.811   5.396  18.362  0.00  0.00    +0.000 A 
ATOM      6  N   UNL     1       6.532   5.813  17.238  0.00  0.00    +0.000 N 
ATOM      7  C   UNL     1       6.203   5.405  15.948  0.00  0.00    +0.000 A 
ATOM      8  O   UNL     1       6.802   5.748  14.929  0.00  0.00    +0.000 OA
ATOM      9  N   UNL     1       5.126   4.584  15.830  0.00  0.00    +0.000 N 
ATOM     10  C   UNL     1       4.216   4.357  16.808  0.00  0.00    +0.000 A 
ATOM     11  O   UNL     1       3.120   3.865  16.555  0.00  0.00    +0.000 OA
ATOM     12  H   UNL     1       4.851   4.347  14.890  0.00  0.00    +0.000 HD
BRANCH   5  13
ATOM     13  N   UNL     1       6.342   5.585  19.622  0.00  0.00    +0.000 N 
ATOM     14  H   UNL     1       6.152   6.463  20.087  0.00  0.00    +0.000 HD
ATOM     15  H   UNL     1       7.228   5.152  19.843  0.00  0.00    +0.000 HD
ENDBRANCH   5  13
BRANCH   6  16
ATOM     16  C   UNL     1       7.700   6.702  17.374  0.00  0.00    +0.000 C 
BRANCH  16  17
ATOM     17  C   UNL     1       7.391   8.202  17.433  0.00  0.00    +0.000 C 
ATOM     18  C   UNL     1       8.434   8.966  18.214  0.00  0.00    +0.000 C 
ENDBRANCH  16  17
ENDBRANCH   6  16
ENDBRANCH   1   4
BRANCH   2  19
ATOM     19  C   UNL     1       2.620   6.426  19.535  0.00  0.00    +0.000 A 
ATOM     20  C   UNL     1       2.995   6.796  18.233  0.00  0.00    +0.000 A 
ATOM     21  C   UNL     1       2.632   8.048  17.715  0.00  0.00    +0.000 A 
ATOM     22  C   UNL     1       1.860   8.924  18.476  0.00  0.00    +0.000 A 
ATOM     23  C   UNL     1       1.499   8.575  19.780  0.00  0.00    +0.000 A 
ATOM     24  C   UNL     1       1.949   7.369  20.332  0.00  0.00    +0.000 A 
BRANCH  23  25
ATOM     25  S   UNL     1       0.614   9.743  20.803  0.00  0.00    +0.000 S 
ATOM     26  O   UNL     1      -0.654   9.139  21.142  0.00  0.00    +0.000 OA
ATOM     27  O   UNL     1       1.519  10.183  21.837  0.00  0.00    +0.000 OA
BRANCH  25  28
ATOM     28  N   UNL     1       0.279  11.086  19.792  0.00  0.00    +0.000 NA
ATOM     29  C   UNL     1       1.112  12.319  19.905  0.00  0.00    +0.000 C 
ATOM     30  C   UNL     1       0.718  13.159  21.123  0.00  0.00    +0.000 C 
ATOM     31  O   UNL     1      -0.659  13.552  21.054  0.00  0.00    +0.000 OA
ATOM     32  C   UNL     1      -1.518  12.408  20.990  0.00  0.00    +0.000 C 
ATOM     33  C   UNL     1      -1.175  11.503  19.808  0.00  0.00    +0.000 C 
ENDBRANCH  25  28
ENDBRANCH  23  25
ENDBRANCH   2  19
BRANCH   1  34
ATOM     34  C   UNL     1       4.088   2.837  19.731  0.00  0.00    +0.000 C 
BRANCH  34  35
ATOM     35  C   UNL     1       3.208   1.738  19.108  0.00  0.00    +0.000 C 
BRANCH  35  37
ATOM     36  C   UNL     1       0.818   2.399  18.696  0.00  0.00    +0.000 C 
ATOM     37  C   UNL     1       1.778   1.692  19.647  0.00  0.00    +0.000 C 
ENDBRANCH  35  37
ENDBRANCH  34  35
ENDBRANCH   1  34
TORSDOF 10
ENDMDL
MODEL 2
REMARK VINA RESULT:      -8.0      2.022      4.446
REMARK  Name = 
REMARK  12 active torsions:
REMARK  status: ('A' for Active; 'I' for Inactive)
REMARK    1  A    between atoms: C_1  and  C_2
REMARK    2  A    between atoms: C_2  and  C_3
REMARK    3  A    between atoms: C_3  and  C_4
REMARK    4  A    between atoms: C_4  and  N_5
REMARK    5  A    between atoms: N_5  and  C_23
REMARK    6  A    between atoms: C_6  and  C_8
REMARK    7  A    between atoms: C_12  and  S_13
REMARK    8  A    between atoms: S_13  and  N_16
REMARK    9  A    between atoms: C_24  and  N_25
REMARK   10  A    between atoms: N_26  and  C_27
REMARK   11  A    between atoms: C_27  and  C_28
REMARK   12  A    between atoms: C_28  and  C_29
REMARK                            x       y       z     vdW  Elec       q    Type
REMARK                         _______ _______ _______ _____ _____    ______ ____
ROOT
ATOM      1  N   UNL     1       4.337   6.062  17.171  0.00  0.00    +0.000 N 
ATOM      2  C   UNL     1       3.465   7.176  17.300  0.00  0.00    +0.000 C 
ATOM      3  O   UNL     1       3.356   8.029  16.422  0.00  0.00    +0.000 OA
ENDROOT
BRANCH   1   4
ATOM      4  C   UNL     1       4.311   4.972  18.053  0.00  0.00    +0.000 A 
ATOM      5  C   UNL     1       3.346   4.013  18.047  0.00  0.00    +0.000 A 
ATOM      6  N   UNL     1       3.429   2.945  18.945  0.00  0.00    +0.000 N 
ATOM      7  C   UNL     1       4.555   2.717  19.732  0.00  0.00    +0.000 A 
ATOM      8  O   UNL     1       4.674   1.796  20.539  0.00  0.00    +0.000 OA
ATOM      9  N   UNL     1       5.577   3.604  19.594  0.00  0.00    +0.000 N 
ATOM     10  C   UNL     1       5.481   4.803  18.972  0.00  0.00    +0.000 A 
ATOM     11  O   UNL     1       6.326   5.677  19.143  0.00  0.00    +0.000 OA
ATOM     12  H   UNL     1       6.361   3.476  20.214  0.00  0.00    +0.000 HD
BRANCH   5  13
ATOM     13  N   UNL     1       2.348   4.028  17.093  0.00  0.00    +0.000 N 
ATOM     14  H   UNL     1       1.842   3.168  16.928  0.00  0.00    +0.000 HD
ATOM     15  H   UNL     1       2.452   4.638  16.295  0.00  0.00    +0.000 HD
ENDBRANCH   5  13
BRANCH   6  16
ATOM     16  C   UNL     1       2.319   1.986  19.087  0.00  0.00    +0.000 C 
BRANCH  16  17
ATOM     17  C   UNL     1       1.066   2.519  19.792  0.00  0.00    +0.000 C 
ATOM     18  C   UNL     1       1.315   2.808  21.253  0.00  0.00    +0.000 C 
ENDBRANCH  16  17
ENDBRANCH   6  16
ENDBRANCH   1   4
BRANCH   2  19
ATOM     19  C   UNL     1       2.665   7.393  18.559  0.00  0.00    +0.000 A 
ATOM     20  C   UNL     1       2.574   6.331  19.474  0.00  0.00    +0.000 A 
ATOM     21  C   UNL     1       1.887   6.489  20.685  0.00  0.00    +0.000 A 
ATOM     22  C   UNL     1       1.318   7.720  21.013  0.00  0.00    +0.000 A 
ATOM     23  C   UNL     1       1.385   8.778  20.102  0.00  0.00    +0.000 A 
ATOM     24  C   UNL     1       1.982   8.587  18.850  0.00  0.00    +0.000 A 
BRANCH  23  25
ATOM     25  S   UNL     1       0.555  10.319  20.463  0.00  0.00    +0.000 S 
ATOM     26  O   UNL     1      -0.851  10.022  20.612  0.00  0.00    +0.000 OA
ATOM     27  O   UNL     1       1.287  10.965  21.525  0.00  0.00    +0.000 OA
BRANCH  25  28
ATOM     28  N   UNL     1       0.721  11.278  19.052  0.00  0.00    +0.000 NA
ATOM     29  C   UNL     1       1.729  12.378  19.023  0.00  0.00    +0.000 C 
ATOM     30  C   UNL     1       1.240  13.613  19.785  0.00  0.00    +0.000 C 
ATOM     31  O   UNL     1       0.016  14.110  19.228  0.00  0.00    +0.000 OA
ATOM     32  C   UNL     1      -1.011  13.113  19.269  0.00  0.00    +0.000 C 
ATOM     33  C   UNL     1      -0.591  11.834  18.545  0.00  0.00    +0.000 C 
ENDBRANCH  25  28
ENDBRANCH  23  25
ENDBRANCH   2  19
BRANCH   1  34
ATOM     34  C   UNL     1       5.179   5.988  15.955  0.00  0.00    +0.000 C 
BRANCH  34  35
ATOM     35  C   UNL     1       5.442   4.589  15.371  0.00  0.00    +0.000 C 
BRANCH  35  37
ATOM     36  C   UNL     1       6.117   3.698  13.119  0.00  0.00    +0.000 C 
ATOM     37  C   UNL     1       6.546   4.543  14.314  0.00  0.00    +0.000 C 
ENDBRANCH  35  37
ENDBRANCH  34  35
ENDBRANCH   1  34
TORSDOF 10
ENDMDL
MODEL 3
REMARK VINA RESULT:      -8.0      2.007      4.698
REMARK  Name = 
REMARK  12 active torsions:
REMARK  status: ('A' for Active; 'I' for Inactive)
REMARK    1  A    between atoms: C_1  and  C_2
REMARK    2  A    between atoms: C_2  and  C_3
REMARK    3  A    between atoms: C_3  and  C_4
REMARK    4  A    between atoms: C_4  and  N_5
REMARK    5  A    between atoms: N_5  and  C_23
REMARK    6  A    between atoms: C_6  and  C_8
REMARK    7  A    between atoms: C_12  and  S_13
REMARK    8  A    between atoms: S_13  and  N_16
REMARK    9  A    between atoms: C_24  and  N_25
REMARK   10  A    between atoms: N_26  and  C_27
REMARK   11  A    between atoms: C_27  and  C_28
REMARK   12  A    between atoms: C_28  and  C_29
REMARK                            x       y       z     vdW  Elec       q    Type
REMARK                         _______ _______ _______ _____ _____    ______ ____
ROOT
ATOM      1  N   UNL     1       5.071   5.458  16.897  0.00  0.00    +0.000 N 
ATOM      2  C   UNL     1       4.343   6.667  16.750  0.00  0.00    +0.000 C 
ATOM      3  O   UNL     1       4.477   7.400  15.772  0.00  0.00    +0.000 OA
ENDROOT
BRANCH   1   4
ATOM      4  C   UNL     1       4.773   4.507  17.884  0.00  0.00    +0.000 A 
ATOM      5  C   UNL     1       3.725   3.642  17.812  0.00  0.00    +0.000 A 
ATOM      6  N   UNL     1       3.533   2.705  18.833  0.00  0.00    +0.000 N 
ATOM      7  C   UNL     1       4.473   2.495  19.839  0.00  0.00    +0.000 A 
ATOM      8  O   UNL     1       4.348   1.688  20.759  0.00  0.00    +0.000 OA
ATOM      9  N   UNL     1       5.593   3.264  19.789  0.00  0.00    +0.000 N 
ATOM     10  C   UNL     1       5.739   4.369  19.019  0.00  0.00    +0.000 A 
ATOM     11  O   UNL     1       6.631   5.183  19.239  0.00  0.00    +0.000 OA
ATOM     12  H   UNL     1       6.237   3.157  20.556  0.00  0.00    +0.000 HD
BRANCH   5  13
ATOM     13  N   UNL     1       2.918   3.609  16.694  0.00  0.00    +0.000 N 
ATOM     14  H   UNL     1       2.069   3.059  16.741  0.00  0.00    +0.000 HD
ATOM     15  H   UNL     1       3.351   3.673  15.783  0.00  0.00    +0.000 HD
ENDBRANCH   5  13
BRANCH   6  16
ATOM     16  C   UNL     1       2.317   1.874  18.879  0.00  0.00    +0.000 C 
BRANCH  16  17
ATOM     17  C   UNL     1       1.013   2.618  19.188  0.00  0.00    +0.000 C 
ATOM     18  C   UNL     1       1.044   3.281  20.545  0.00  0.00    +0.000 C 
ENDBRANCH  16  17
ENDBRANCH   6  16
ENDBRANCH   1   4
BRANCH   2  19
ATOM     19  C   UNL     1       3.398   7.140  17.826  0.00  0.00    +0.000 A 
ATOM     20  C   UNL     1       3.218   6.320  18.952  0.00  0.00    +0.000 A 
ATOM     21  C   UNL     1       2.393   6.729  20.009  0.00  0.00    +0.000 A 
ATOM     22  C   UNL     1       1.771   7.977  19.969  0.00  0.00    +0.000 A 
ATOM     23  C   UNL     1       1.926   8.792  18.845  0.00  0.00    +0.000 A 
ATOM     24  C   UNL     1       2.667   8.338  17.747  0.00  0.00    +0.000 A 
BRANCH  23  25
ATOM     25  S   UNL     1       1.035  10.338  18.735  0.00  0.00    +0.000 S 
ATOM     26  O   UNL     1       1.924  11.301  18.128  0.00  0.00    +0.000 OA
ATOM     27  O   UNL     1      -0.253  10.053  18.150  0.00  0.00    +0.000 OA
BRANCH  25  28
ATOM     28  N   UNL     1       0.775  10.840  20.354  0.00  0.00    +0.000 NA
ATOM     29  C   UNL     1      -0.593  10.753  20.942  0.00  0.00    +0.000 C 
ATOM     30  C   UNL     1      -1.490  11.897  20.460  0.00  0.00    +0.000 C 
ATOM     31  O   UNL     1      -0.931  13.171  20.808  0.00  0.00    +0.000 OA
ATOM     32  C   UNL     1       0.369  13.337  20.233  0.00  0.00    +0.000 C 
ATOM     33  C   UNL     1       1.323  12.218  20.650  0.00  0.00    +0.000 C 
ENDBRANCH  25  28
ENDBRANCH  23  25
ENDBRANCH   2  19
BRANCH   1  34
ATOM     34  C   UNL     1       6.069   5.127  15.853  0.00  0.00    +0.000 C 
BRANCH  34  35
ATOM     35  C   UNL     1       5.592   4.250  14.682  0.00  0.00    +0.000 C 
BRANCH  35  37
ATOM     36  C   UNL     1       6.000   3.488  12.321  0.00  0.00    +0.000 C 
ATOM     37  C   UNL     1       6.645   4.012  13.600  0.00  0.00    +0.000 C 
ENDBRANCH  35  37
ENDBRANCH  34  35
ENDBRANCH   1  34
TORSDOF 10
ENDMDL
MODEL 4
REMARK VINA RESULT:      -8.0      1.314      2.363
REMARK  Name = 
REMARK  12 active torsions:
REMARK  status: ('A' for Active; 'I' for Inactive)
REMARK    1  A    between atoms: C_1  and  C_2
REMARK    2  A    between atoms: C_2  and  C_3
REMARK    3  A    between atoms: C_3  and  C_4
REMARK    4  A    between atoms: C_4  and  N_5
REMARK    5  A    between atoms: N_5  and  C_23
REMARK    6  A    between atoms: C_6  and  C_8
REMARK    7  A    between atoms: C_12  and  S_13
REMARK    8  A    between atoms: S_13  and  N_16
REMARK    9  A    between atoms: C_24  and  N_25
REMARK   10  A    between atoms: N_26  and  C_27
REMARK   11  A    between atoms: C_27  and  C_28
REMARK   12  A    between atoms: C_28  and  C_29
REMARK                            x       y       z     vdW  Elec       q    Type
REMARK                         _______ _______ _______ _____ _____    ______ ____
ROOT
ATOM      1  N   UNL     1       3.952   4.162  19.394  0.00  0.00    +0.000 N 
ATOM      2  C   UNL     1       3.020   5.012  20.045  0.00  0.00    +0.000 C 
ATOM      3  O   UNL     1       2.374   4.649  21.026  0.00  0.00    +0.000 OA
ENDROOT
BRANCH   1   4
ATOM      4  C   UNL     1       4.852   4.625  18.423  0.00  0.00    +0.000 A 
ATOM      5  C   UNL     1       4.630   4.543  17.083  0.00  0.00    +0.000 A 
ATOM      6  N   UNL     1       5.574   5.066  16.194  0.00  0.00    +0.000 N 
ATOM      7  C   UNL     1       6.656   5.832  16.621  0.00  0.00    +0.000 A 
ATOM      8  O   UNL     1       7.515   6.309  15.880  0.00  0.00    +0.000 OA
ATOM      9  N   UNL     1       6.760   6.036  17.961  0.00  0.00    +0.000 N 
ATOM     10  C   UNL     1       6.069   5.351  18.903  0.00  0.00    +0.000 A 
ATOM     11  O   UNL     1       6.421   5.359  20.080  0.00  0.00    +0.000 OA
ATOM     12  H   UNL     1       7.581   6.532  18.271  0.00  0.00    +0.000 HD
BRANCH   5  13
ATOM     13  N   UNL     1       3.436   4.049  16.598  0.00  0.00    +0.000 N 
ATOM     14  H   UNL     1       3.205   4.239  15.632  0.00  0.00    +0.000 HD
ATOM     15  H   UNL     1       2.653   3.971  17.232  0.00  0.00    +0.000 HD
ENDBRANCH   5  13
BRANCH   6  16
ATOM     16  C   UNL     1       5.454   4.842  14.743  0.00  0.00    +0.000 C 
BRANCH  16  17
ATOM     17  C   UNL     1       6.268   3.671  14.180  0.00  0.00    +0.000 C 
ATOM     18  C   UNL     1       6.270   3.654  12.670  0.00  0.00    +0.000 C 
ENDBRANCH  16  17
ENDBRANCH   6  16
ENDBRANCH   1   4
BRANCH   2  19
ATOM     19  C   UNL     1       2.738   6.399  19.524  0.00  0.00    +0.000 A 
ATOM     20  C   UNL     1       3.229   6.736  18.252  0.00  0.00    +0.000 A 
ATOM     21  C   UNL     1       2.955   7.992  17.692  0.00  0.00    +0.000 A 
ATOM     22  C   UNL     1       2.159   8.907  18.379  0.00  0.00    +0.000 A 
ATOM     23  C   UNL     1       1.682   8.591  19.654  0.00  0.00    +0.000 A 
ATOM     24  C   UNL     1       2.041   7.377  20.253  0.00  0.00    +0.000 A 
BRANCH  23  25
ATOM     25  S   UNL     1       0.763   9.805  20.589  0.00  0.00    +0.000 S 
ATOM     26  O   UNL     1      -0.595   9.323  20.696  0.00  0.00    +0.000 OA
ATOM     27  O   UNL     1       1.531  10.110  21.772  0.00  0.00    +0.000 OA
BRANCH  25  28
ATOM     28  N   UNL     1       0.724  11.212  19.612  0.00  0.00    +0.000 NA
ATOM     29  C   UNL     1       1.090  12.532  20.204  0.00  0.00    +0.000 C 
ATOM     30  C   UNL     1      -0.048  13.108  21.051  0.00  0.00    +0.000 C 
ATOM     31  O   UNL     1      -1.236  13.282  20.266  0.00  0.00    +0.000 OA
ATOM     32  C   UNL     1      -1.668  12.038  19.705  0.00  0.00    +0.000 C 
ATOM     33  C   UNL     1      -0.576  11.385  18.858  0.00  0.00    +0.000 C 
ENDBRANCH  25  28
ENDBRANCH  23  25
ENDBRANCH   2  19
BRANCH   1  34
ATOM     34  C   UNL     1       4.080   2.774  19.895  0.00  0.00    +0.000 C 
BRANCH  34  35
ATOM     35  C   UNL     1       3.221   1.700  19.204  0.00  0.00    +0.000 C 
BRANCH  35  37
ATOM     36  C   UNL     1       0.902   2.445  18.583  0.00  0.00    +0.000 C 
ATOM     37  C   UNL     1       1.749   1.707  19.614  0.00  0.00    +0.000 C 
ENDBRANCH  35  37
ENDBRANCH  34  35
ENDBRANCH   1  34
TORSDOF 10
ENDMDL
MODEL 5
REMARK VINA RESULT:      -7.7      2.127      4.563
REMARK  Name = 
REMARK  12 active torsions:
REMARK  status: ('A' for Active; 'I' for Inactive)
REMARK    1  A    between atoms: C_1  and  C_2
REMARK    2  A    between atoms: C_2  and  C_3
REMARK    3  A    between atoms: C_3  and  C_4
REMARK    4  A    between atoms: C_4  and  N_5
REMARK    5  A    between atoms: N_5  and  C_23
REMARK    6  A    between atoms: C_6  and  C_8
REMARK    7  A    between atoms: C_12  and  S_13
REMARK    8  A    between atoms: S_13  and  N_16
REMARK    9  A    between atoms: C_24  and  N_25
REMARK   10  A    between atoms: N_26  and  C_27
REMARK   11  A    between atoms: C_27  and  C_28
REMARK   12  A    between atoms: C_28  and  C_29
REMARK                            x       y       z     vdW  Elec       q    Type
REMARK                         _______ _______ _______ _____ _____    ______ ____
ROOT
ATOM      1  N   UNL     1       4.432   5.969  17.061  0.00  0.00    +0.000 N 
ATOM      2  C   UNL     1       3.578   7.100  17.145  0.00  0.00    +0.000 C 
ATOM      3  O   UNL     1       3.490   7.924  16.237  0.00  0.00    +0.000 OA
ENDROOT
BRANCH   1   4
ATOM      4  C   UNL     1       4.381   4.909  17.979  0.00  0.00    +0.000 A 
ATOM      5  C   UNL     1       3.417   3.949  17.977  0.00  0.00    +0.000 A 
ATOM      6  N   UNL     1       3.474   2.912  18.913  0.00  0.00    +0.000 N 
ATOM      7  C   UNL     1       4.576   2.714  19.741  0.00  0.00    +0.000 A 
ATOM      8  O   UNL     1       4.671   1.822  20.582  0.00  0.00    +0.000 OA
ATOM      9  N   UNL     1       5.600   3.598  19.604  0.00  0.00    +0.000 N 
ATOM     10  C   UNL     1       5.522   4.774  18.937  0.00  0.00    +0.000 A 
ATOM     11  O   UNL     1       6.361   5.655  19.104  0.00  0.00    +0.000 OA
ATOM     12  H   UNL     1       6.365   3.492  20.251  0.00  0.00    +0.000 HD
BRANCH   5  13
ATOM     13  N   UNL     1       2.448   3.929  16.993  0.00  0.00    +0.000 N 
ATOM     14  H   UNL     1       1.663   4.559  17.092  0.00  0.00    +0.000 HD
ATOM     15  H   UNL     1       2.256   3.056  16.522  0.00  0.00    +0.000 HD
ENDBRANCH   5  13
BRANCH   6  16
ATOM     16  C   UNL     1       2.360   1.957  19.055  0.00  0.00    +0.000 C 
BRANCH  16  17
ATOM     17  C   UNL     1       1.089   2.510  19.710  0.00  0.00    +0.000 C 
ATOM     18  C   UNL     1       1.304   2.856  21.165  0.00  0.00    +0.000 C 
ENDBRANCH  16  17
ENDBRANCH   6  16
ENDBRANCH   1   4
BRANCH   2  19
ATOM     19  C   UNL     1       2.771   7.373  18.388  0.00  0.00    +0.000 A 
ATOM     20  C   UNL     1       2.535   6.304  19.268  0.00  0.00    +0.000 A 
ATOM     21  C   UNL     1       1.834   6.506  20.466  0.00  0.00    +0.000 A 
ATOM     22  C   UNL     1       1.397   7.784  20.814  0.00  0.00    +0.000 A 
ATOM     23  C   UNL     1       1.608   8.851  19.937  0.00  0.00    +0.000 A 
ATOM     24  C   UNL     1       2.217   8.627  18.696  0.00  0.00    +0.000 A 
BRANCH  23  25
ATOM     25  S   UNL     1       0.945  10.466  20.321  0.00  0.00    +0.000 S 
ATOM     26  O   UNL     1       1.194  10.707  21.723  0.00  0.00    +0.000 OA
ATOM     27  O   UNL     1       1.431  11.381  19.318  0.00  0.00    +0.000 OA
BRANCH  25  28
ATOM     28  N   UNL     1      -0.753  10.328  20.127  0.00  0.00    +0.000 NA
ATOM     29  C   UNL     1      -1.337  10.289  18.755  0.00  0.00    +0.000 C 
ATOM     30  C   UNL     1      -1.394  11.682  18.123  0.00  0.00    +0.000 C 
ATOM     31  O   UNL     1      -2.181  12.577  18.920  0.00  0.00    +0.000 OA
ATOM     32  C   UNL     1      -1.643  12.696  20.242  0.00  0.00    +0.000 C 
ATOM     33  C   UNL     1      -1.534  11.340  20.937  0.00  0.00    +0.000 C 
ENDBRANCH  25  28
ENDBRANCH  23  25
ENDBRANCH   2  19
BRANCH   1  34
ATOM     34  C   UNL     1       5.283   5.840  15.856  0.00  0.00    +0.000 C 
BRANCH  34  35
ATOM     35  C   UNL     1       5.425   4.434  15.246  0.00  0.00    +0.000 C 
BRANCH  35  37
ATOM     36  C   UNL     1       5.972   3.595  12.941  0.00  0.00    +0.000 C 
ATOM     37  C   UNL     1       6.507   4.316  14.173  0.00  0.00    +0.000 C 
ENDBRANCH  35  37
ENDBRANCH  34  35
ENDBRANCH   1  34
TORSDOF 10
ENDMDL
MODEL 6
REMARK VINA RESULT:      -7.7      1.752      2.816
REMARK  Name = 
REMARK  12 active torsions:
REMARK  status: ('A' for Active; 'I' for Inactive)
REMARK    1  A    between atoms: C_1  and  C_2
REMARK    2  A    between atoms: C_2  and  C_3
REMARK    3  A    between atoms: C_3  and  C_4
REMARK    4  A    between atoms: C_4  and  N_5
REMARK    5  A    between atoms: N_5  and  C_23
REMARK    6  A    between atoms: C_6  and  C_8
REMARK    7  A    between atoms: C_12  and  S_13
REMARK    8  A    between atoms: S_13  and  N_16
REMARK    9  A    between atoms: C_24  and  N_25
REMARK   10  A    between atoms: N_26  and  C_27
REMARK   11  A    between atoms: C_27  and  C_28
REMARK   12  A    between atoms: C_28  and  C_29
REMARK                            x       y       z     vdW  Elec       q    Type
REMARK                         _______ _______ _______ _____ _____    ______ ____
ROOT
ATOM      1  N   UNL     1       3.979   4.332  19.371  0.00  0.00    +0.000 N 
ATOM      2  C   UNL     1       3.073   5.261  19.945  0.00  0.00    +0.000 C 
ATOM      3  O   UNL     1       2.436   5.012  20.967  0.00  0.00    +0.000 OA
ENDROOT
BRANCH   1   4
ATOM      4  C   UNL     1       4.872   4.677  18.346  0.00  0.00    +0.000 A 
ATOM      5  C   UNL     1       4.592   4.545  17.021  0.00  0.00    +0.000 A 
ATOM      6  N   UNL     1       5.536   4.951  16.072  0.00  0.00    +0.000 N 
ATOM      7  C   UNL     1       6.687   5.654  16.419  0.00  0.00    +0.000 A 
ATOM      8  O   UNL     1       7.549   6.028  15.624  0.00  0.00    +0.000 OA
ATOM      9  N   UNL     1       6.859   5.916  17.743  0.00  0.00    +0.000 N 
ATOM     10  C   UNL     1       6.157   5.333  18.743  0.00  0.00    +0.000 A 
ATOM     11  O   UNL     1       6.554   5.373  19.905  0.00  0.00    +0.000 OA
ATOM     12  H   UNL     1       7.725   6.364  17.996  0.00  0.00    +0.000 HD
BRANCH   5  13
ATOM     13  N   UNL     1       3.347   4.119  16.605  0.00  0.00    +0.000 N 
ATOM     14  H   UNL     1       2.957   3.298  17.050  0.00  0.00    +0.000 HD
ATOM     15  H   UNL     1       3.083   4.264  15.641  0.00  0.00    +0.000 HD
ENDBRANCH   5  13
BRANCH   6  16
ATOM     16  C   UNL     1       5.343   4.665  14.640  0.00  0.00    +0.000 C 
BRANCH  16  17
ATOM     17  C   UNL     1       6.314   3.649  14.027  0.00  0.00    +0.000 C 
ATOM     18  C   UNL     1       6.039   3.413  12.561  0.00  0.00    +0.000 C 
ENDBRANCH  16  17
ENDBRANCH   6  16
ENDBRANCH   1   4
BRANCH   2  19
ATOM     19  C   UNL     1       2.807   6.593  19.290  0.00  0.00    +0.000 A 
ATOM     20  C   UNL     1       3.518   6.905  18.119  0.00  0.00    +0.000 A 
ATOM     21  C   UNL     1       3.277   8.105  17.436  0.00  0.00    +0.000 A 
ATOM     22  C   UNL     1       2.299   8.987  17.894  0.00  0.00    +0.000 A 
ATOM     23  C   UNL     1       1.601   8.698  19.069  0.00  0.00    +0.000 A 
ATOM     24  C   UNL     1       1.914   7.548  19.805  0.00  0.00    +0.000 A 
BRANCH  23  25
ATOM     25  S   UNL     1       0.433   9.881  19.726  0.00  0.00    +0.000 S 
ATOM     26  O   UNL     1       0.384  10.991  18.804  0.00  0.00    +0.000 OA
ATOM     27  O   UNL     1      -0.766   9.156  20.071  0.00  0.00    +0.000 OA
BRANCH  25  28
ATOM     28  N   UNL     1       1.130  10.463  21.180  0.00  0.00    +0.000 NA
ATOM     29  C   UNL     1       1.027   9.647  22.425  0.00  0.00    +0.000 C 
ATOM     30  C   UNL     1      -0.360   9.760  23.064  0.00  0.00    +0.000 C 
ATOM     31  O   UNL     1      -0.665  11.122  23.393  0.00  0.00    +0.000 OA
ATOM     32  C   UNL     1      -0.629  11.953  22.228  0.00  0.00    +0.000 C 
ATOM     33  C   UNL     1       0.722  11.880  21.517  0.00  0.00    +0.000 C 
ENDBRANCH  25  28
ENDBRANCH  23  25
ENDBRANCH   2  19
BRANCH   1  34
ATOM     34  C   UNL     1       4.090   2.999  20.008  0.00  0.00    +0.000 C 
BRANCH  34  35
ATOM     35  C   UNL     1       2.789   2.196  20.180  0.00  0.00    +0.000 C 
BRANCH  35  37
ATOM     36  C   UNL     1       0.732   2.592  18.790  0.00  0.00    +0.000 C 
ATOM     37  C   UNL     1       2.072   1.867  18.870  0.00  0.00    +0.000 C 
ENDBRANCH  35  37
ENDBRANCH  34  35
ENDBRANCH   1  34
TORSDOF 10
ENDMDL
MODEL 7
REMARK VINA RESULT:      -7.6      1.561      2.603
REMARK  Name = 
REMARK  12 active torsions:
REMARK  status: ('A' for Active; 'I' for Inactive)
REMARK    1  A    between atoms: C_1  and  C_2
REMARK    2  A    between atoms: C_2  and  C_3
REMARK    3  A    between atoms: C_3  and  C_4
REMARK    4  A    between atoms: C_4  and  N_5
REMARK    5  A    between atoms: N_5  and  C_23
REMARK    6  A    between atoms: C_6  and  C_8
REMARK    7  A    between atoms: C_12  and  S_13
REMARK    8  A    between atoms: S_13  and  N_16
REMARK    9  A    between atoms: C_24  and  N_25
REMARK   10  A    between atoms: N_26  and  C_27
REMARK   11  A    between atoms: C_27  and  C_28
REMARK   12  A    between atoms: C_28  and  C_29
REMARK                            x       y       z     vdW  Elec       q    Type
REMARK                         _______ _______ _______ _____ _____    ______ ____
ROOT
ATOM      1  N   UNL     1       3.788   4.316  19.401  0.00  0.00    +0.000 N 
ATOM      2  C   UNL     1       2.849   5.206  19.986  0.00  0.00    +0.000 C 
ATOM      3  O   UNL     1       2.166   4.892  20.959  0.00  0.00    +0.000 OA
ENDROOT
BRANCH   1   4
ATOM      4  C   UNL     1       4.726   4.725  18.441  0.00  0.00    +0.000 A 
ATOM      5  C   UNL     1       4.528   4.630  17.098  0.00  0.00    +0.000 A 
ATOM      6  N   UNL     1       5.510   5.099  16.221  0.00  0.00    +0.000 N 
ATOM      7  C   UNL     1       6.614   5.828  16.658  0.00  0.00    +0.000 A 
ATOM      8  O   UNL     1       7.506   6.257  15.928  0.00  0.00    +0.000 OA
ATOM      9  N   UNL     1       6.698   6.051  17.997  0.00  0.00    +0.000 N 
ATOM     10  C   UNL     1       5.961   5.410  18.935  0.00  0.00    +0.000 A 
ATOM     11  O   UNL     1       6.288   5.424  20.119  0.00  0.00    +0.000 OA
ATOM     12  H   UNL     1       7.532   6.518  18.316  0.00  0.00    +0.000 HD
BRANCH   5  13
ATOM     13  N   UNL     1       3.325   4.176  16.596  0.00  0.00    +0.000 N 
ATOM     14  H   UNL     1       2.645   4.866  16.305  0.00  0.00    +0.000 HD
ATOM     15  H   UNL     1       2.947   3.310  16.955  0.00  0.00    +0.000 HD
ENDBRANCH   5  13
BRANCH   6  16
ATOM     16  C   UNL     1       5.411   4.856  14.771  0.00  0.00    +0.000 C 
BRANCH  16  17
ATOM     17  C   UNL     1       6.244   3.686  14.235  0.00  0.00    +0.000 C 
ATOM     18  C   UNL     1       6.171   3.580  12.729  0.00  0.00    +0.000 C 
ENDBRANCH  16  17
ENDBRANCH   6  16
ENDBRANCH   1   4
BRANCH   2  19
ATOM     19  C   UNL     1       2.606   6.574  19.401  0.00  0.00    +0.000 A 
ATOM     20  C   UNL     1       2.936   6.781  18.051  0.00  0.00    +0.000 A 
ATOM     21  C   UNL     1       2.686   8.016  17.436  0.00  0.00    +0.000 A 
ATOM     22  C   UNL     1       2.070   9.042  18.152  0.00  0.00    +0.000 A 
ATOM     23  C   UNL     1       1.757   8.855  19.500  0.00  0.00    +0.000 A 
ATOM     24  C   UNL     1       2.100   7.657  20.139  0.00  0.00    +0.000 A 
BRANCH  23  25
ATOM     25  S   UNL     1       1.079  10.206  20.454  0.00  0.00    +0.000 S 
ATOM     26  O   UNL     1       1.332   9.916  21.846  0.00  0.00    +0.000 OA
ATOM     27  O   UNL     1       1.551  11.433  19.860  0.00  0.00    +0.000 OA
BRANCH  25  28
ATOM     28  N   UNL     1      -0.618  10.132  20.224  0.00  0.00    +0.000 NA
ATOM     29  C   UNL     1      -1.182  10.257  18.847  0.00  0.00    +0.000 C 
ATOM     30  C   UNL     1      -1.197  11.713  18.372  0.00  0.00    +0.000 C 
ATOM     31  O   UNL     1      -1.976  12.533  19.254  0.00  0.00    +0.000 OA
ATOM     32  C   UNL     1      -1.457  12.493  20.587  0.00  0.00    +0.000 C 
ATOM     33  C   UNL     1      -1.389  11.066  21.129  0.00  0.00    +0.000 C 
ENDBRANCH  25  28
ENDBRANCH  23  25
ENDBRANCH   2  19
BRANCH   1  34
ATOM     34  C   UNL     1       3.877   2.948  19.961  0.00  0.00    +0.000 C 
BRANCH  34  35
ATOM     35  C   UNL     1       3.107   1.838  19.222  0.00  0.00    +0.000 C 
BRANCH  35  37
ATOM     36  C   UNL     1       0.765   2.555  18.655  0.00  0.00    +0.000 C 
ATOM     37  C   UNL     1       1.631   1.731  19.603  0.00  0.00    +0.000 C 
ENDBRANCH  35  37
ENDBRANCH  34  35
ENDBRANCH   1  34
TORSDOF 10
ENDMDL
MODEL 8
REMARK VINA RESULT:      -7.6      2.132      3.430
REMARK  Name = 
REMARK  12 active torsions:
REMARK  status: ('A' for Active; 'I' for Inactive)
REMARK    1  A    between atoms: C_1  and  C_2
REMARK    2  A    between atoms: C_2  and  C_3
REMARK    3  A    between atoms: C_3  and  C_4
REMARK    4  A    between atoms: C_4  and  N_5
REMARK    5  A    between atoms: N_5  and  C_23
REMARK    6  A    between atoms: C_6  and  C_8
REMARK    7  A    between atoms: C_12  and  S_13
REMARK    8  A    between atoms: S_13  and  N_16
REMARK    9  A    between atoms: C_24  and  N_25
REMARK   10  A    between atoms: N_26  and  C_27
REMARK   11  A    between atoms: C_27  and  C_28
REMARK   12  A    between atoms: C_28  and  C_29
REMARK                            x       y       z     vdW  Elec       q    Type
REMARK                         _______ _______ _______ _____ _____    ______ ____
ROOT
ATOM      1  N   UNL     1       4.117   4.339  16.980  0.00  0.00    +0.000 N 
ATOM      2  C   UNL     1       2.788   4.572  17.422  0.00  0.00    +0.000 C 
ATOM      3  O   UNL     1       1.838   3.900  17.027  0.00  0.00    +0.000 OA
ENDROOT
BRANCH   1   4
ATOM      4  C   UNL     1       5.234   4.940  17.580  0.00  0.00    +0.000 A 
ATOM      5  C   UNL     1       5.835   6.065  17.107  0.00  0.00    +0.000 A 
ATOM      6  N   UNL     1       6.923   6.608  17.798  0.00  0.00    +0.000 N 
ATOM      7  C   UNL     1       7.312   6.151  19.055  0.00  0.00    +0.000 A 
ATOM      8  O   UNL     1       8.263   6.592  19.699  0.00  0.00    +0.000 OA
ATOM      9  N   UNL     1       6.583   5.129  19.577  0.00  0.00    +0.000 N 
ATOM     10  C   UNL     1       5.708   4.367  18.878  0.00  0.00    +0.000 A 
ATOM     11  O   UNL     1       5.320   3.286  19.312  0.00  0.00    +0.000 OA
ATOM     12  H   UNL     1       6.910   4.756  20.455  0.00  0.00    +0.000 HD
BRANCH   5  13
ATOM     13  N   UNL     1       5.316   6.734  16.017  0.00  0.00    +0.000 N 
ATOM     14  H   UNL     1       5.658   6.478  15.100  0.00  0.00    +0.000 HD
ATOM     15  H   UNL     1       5.037   7.698  16.130  0.00  0.00    +0.000 HD
ENDBRANCH   5  13
BRANCH   6  16
ATOM     16  C   UNL     1       7.707   7.717  17.226  0.00  0.00    +0.000 C 
BRANCH  16  17
ATOM     17  C   UNL     1       7.449   9.099  17.838  0.00  0.00    +0.000 C 
ATOM     18  C   UNL     1       8.729   9.781  18.260  0.00  0.00    +0.000 C 
ENDBRANCH  16  17
ENDBRANCH   6  16
ENDBRANCH   1   4
BRANCH   2  19
ATOM     19  C   UNL     1       2.472   5.702  18.369  0.00  0.00    +0.000 A 
ATOM     20  C   UNL     1       2.581   5.457  19.748  0.00  0.00    +0.000 A 
ATOM     21  C   UNL     1       2.350   6.482  20.676  0.00  0.00    +0.000 A 
ATOM     22  C   UNL     1       2.047   7.770  20.236  0.00  0.00    +0.000 A 
ATOM     23  C   UNL     1       1.916   8.021  18.868  0.00  0.00    +0.000 A 
ATOM     24  C   UNL     1       2.046   6.973  17.948  0.00  0.00    +0.000 A 
BRANCH  23  25
ATOM     25  S   UNL     1       1.409   9.639  18.303  0.00  0.00    +0.000 S 
ATOM     26  O   UNL     1       2.554  10.248  17.667  0.00  0.00    +0.000 OA
ATOM     27  O   UNL     1       0.168   9.477  17.586  0.00  0.00    +0.000 OA
BRANCH  25  28
ATOM     28  N   UNL     1       1.080  10.544  19.722  0.00  0.00    +0.000 NA
ATOM     29  C   UNL     1      -0.281  10.489  20.332  0.00  0.00    +0.000 C 
ATOM     30  C   UNL     1      -1.281  11.359  19.564  0.00  0.00    +0.000 C 
ATOM     31  O   UNL     1      -0.856  12.728  19.536  0.00  0.00    +0.000 OA
ATOM     32  C   UNL     1       0.429  12.856  18.917  0.00  0.00    +0.000 C 
ATOM     33  C   UNL     1       1.484  11.998  19.614  0.00  0.00    +0.000 C 
ENDBRANCH  25  28
ENDBRANCH  23  25
ENDBRANCH   2  19
BRANCH   1  34
ATOM     34  C   UNL     1       4.324   3.289  15.956  0.00  0.00    +0.000 C 
BRANCH  34  35
ATOM     35  C   UNL     1       5.695   3.255  15.257  0.00  0.00    +0.000 C 
BRANCH  35  37
ATOM     36  C   UNL     1       7.068   4.648  13.679  0.00  0.00    +0.000 C 
ATOM     37  C   UNL     1       5.729   3.951  13.897  0.00  0.00    +0.000 C 
ENDBRANCH  35  37
ENDBRANCH  34  35
ENDBRANCH   1  34
TORSDOF 10
ENDMDL
MODEL 9
REMARK VINA RESULT:      -7.5      1.979      4.537
REMARK  Name = 
REMARK  12 active torsions:
REMARK  status: ('A' for Active; 'I' for Inactive)
REMARK    1  A    between atoms: C_1  and  C_2
REMARK    2  A    between atoms: C_2  and  C_3
REMARK    3  A    between atoms: C_3  and  C_4
REMARK    4  A    between atoms: C_4  and  N_5
REMARK    5  A    between atoms: N_5  and  C_23
REMARK    6  A    between atoms: C_6  and  C_8
REMARK    7  A    between atoms: C_12  and  S_13
REMARK    8  A    between atoms: S_13  and  N_16
REMARK    9  A    between atoms: C_24  and  N_25
REMARK   10  A    between atoms: N_26  and  C_27
REMARK   11  A    between atoms: C_27  and  C_28
REMARK   12  A    between atoms: C_28  and  C_29
REMARK                            x       y       z     vdW  Elec       q    Type
REMARK                         _______ _______ _______ _____ _____    ______ ____
ROOT
ATOM      1  N   UNL     1       4.764   5.858  17.017  0.00  0.00    +0.000 N 
ATOM      2  C   UNL     1       3.928   7.005  17.004  0.00  0.00    +0.000 C 
ATOM      3  O   UNL     1       3.930   7.807  16.072  0.00  0.00    +0.000 OA
ENDROOT
BRANCH   1   4
ATOM      4  C   UNL     1       4.618   4.823  17.953  0.00  0.00    +0.000 A 
ATOM      5  C   UNL     1       3.621   3.899  17.913  0.00  0.00    +0.000 A 
ATOM      6  N   UNL     1       3.582   2.883  18.873  0.00  0.00    +0.000 N 
ATOM      7  C   UNL     1       4.625   2.665  19.770  0.00  0.00    +0.000 A 
ATOM      8  O   UNL     1       4.636   1.790  20.635  0.00  0.00    +0.000 OA
ATOM      9  N   UNL     1       5.688   3.507  19.677  0.00  0.00    +0.000 N 
ATOM     10  C   UNL     1       5.694   4.670  18.982  0.00  0.00    +0.000 A 
ATOM     11  O   UNL     1       6.554   5.524  19.181  0.00  0.00    +0.000 OA
ATOM     12  H   UNL     1       6.408   3.390  20.372  0.00  0.00    +0.000 HD
BRANCH   5  13
ATOM     13  N   UNL     1       2.713   3.890  16.873  0.00  0.00    +0.000 N 
ATOM     14  H   UNL     1       2.434   4.782  16.484  0.00  0.00    +0.000 HD
ATOM     15  H   UNL     1       2.016   3.160  16.847  0.00  0.00    +0.000 HD
ENDBRANCH   5  13
BRANCH   6  16
ATOM     16  C   UNL     1       2.427   1.973  18.968  0.00  0.00    +0.000 C 
BRANCH  16  17
ATOM     17  C   UNL     1       1.448   2.257  20.112  0.00  0.00    +0.000 C 
ATOM     18  C   UNL     1       0.739   3.580  19.938  0.00  0.00    +0.000 C 
ENDBRANCH  16  17
ENDBRANCH   6  16
ENDBRANCH   1   4
BRANCH   2  19
ATOM     19  C   UNL     1       3.026   7.323  18.170  0.00  0.00    +0.000 A 
ATOM     20  C   UNL     1       3.087   6.486  19.296  0.00  0.00    +0.000 A 
ATOM     21  C   UNL     1       2.311   6.760  20.431  0.00  0.00    +0.000 A 
ATOM     22  C   UNL     1       1.497   7.892  20.467  0.00  0.00    +0.000 A 
ATOM     23  C   UNL     1       1.413   8.720  19.345  0.00  0.00    +0.000 A 
ATOM     24  C   UNL     1       2.110   8.388  18.176  0.00  0.00    +0.000 A 
BRANCH  23  25
ATOM     25  S   UNL     1       0.281  10.103  19.340  0.00  0.00    +0.000 S 
ATOM     26  O   UNL     1      -0.266  10.204  18.007  0.00  0.00    +0.000 OA
ATOM     27  O   UNL     1      -0.587   9.954  20.482  0.00  0.00    +0.000 OA
BRANCH  25  28
ATOM     28  N   UNL     1       1.248  11.496  19.595  0.00  0.00    +0.000 NA
ATOM     29  C   UNL     1       1.111  12.266  20.866  0.00  0.00    +0.000 C 
ATOM     30  C   UNL     1      -0.137  13.153  20.858  0.00  0.00    +0.000 C 
ATOM     31  O   UNL     1      -0.098  14.086  19.769  0.00  0.00    +0.000 OA
ATOM     32  C   UNL     1      -0.013  13.406  18.512  0.00  0.00    +0.000 C 
ATOM     33  C   UNL     1       1.200  12.479  18.447  0.00  0.00    +0.000 C 
ENDBRANCH  25  28
ENDBRANCH  23  25
ENDBRANCH   2  19
BRANCH   1  34
ATOM     34  C   UNL     1       5.709   5.684  15.890  0.00  0.00    +0.000 C 
BRANCH  34  35
ATOM     35  C   UNL     1       5.253   4.785  14.728  0.00  0.00    +0.000 C 
BRANCH  35  37
ATOM     36  C   UNL     1       5.979   3.482  12.704  0.00  0.00    +0.000 C 
ATOM     37  C   UNL     1       6.366   3.942  14.106  0.00  0.00    +0.000 C 
ENDBRANCH  35  37
ENDBRANCH  34  35
ENDBRANCH   1  34
TORSDOF 10
ENDMDL
