MODEL 1
REMARK VINA RESULT:      -7.1      0.000      0.000
REMARK  Name = 
REMARK  8 active torsions:
REMARK  status: ('A' for Active; 'I' for Inactive)
REMARK    1  A    between atoms: C_1  and  C_2
REMARK    2  A    between atoms: C_10  and  C_11
REMARK    3  A    between atoms: C_11  and  C_12
REMARK    4  A    between atoms: C_12  and  N_13
REMARK    5  A    between atoms: N_13  and  C_14
REMARK    6  A    between atoms: C_14  and  C_15
REMARK    7  A    between atoms: C_15  and  O_16
REMARK    8  A    between atoms: C_15  and  C_17
REMARK                            x       y       z     vdW  Elec       q    Type
REMARK                         _______ _______ _______ _____ _____    ______ ____
ROOT
ATOM      1  C   UNL     1       4.732   2.864  19.517  0.00  0.00    +0.000 C 
ENDROOT
BRANCH   1   2
ATOM      2  N   UNL     1       3.499   2.519  20.244  0.00  0.00    +0.000 NA
ATOM      3  H   UNL     1       3.276   3.227  20.944  0.00  0.00    +0.000 HD
BRANCH   2   4
ATOM      4  C   UNL     1       2.361   2.374  19.327  0.00  0.00    +0.000 C 
BRANCH   4   5
ATOM      5  C   UNL     1       1.210   3.377  19.562  0.00  0.00    +0.000 C 
BRANCH   5   6
ATOM      6  C   UNL     1       1.611   4.831  19.338  0.00  0.00    +0.000 A 
ATOM      7  C   UNL     1       2.119   5.315  18.118  0.00  0.00    +0.000 A 
ATOM      8  C   UNL     1       2.463   6.657  17.960  0.00  0.00    +0.000 A 
ATOM      9  C   UNL     1       2.309   7.547  19.020  0.00  0.00    +0.000 A 
ATOM     10  C   UNL     1       1.808   7.085  20.236  0.00  0.00    +0.000 A 
ATOM     11 CL   UNL     1       1.619   8.183  21.546  0.00  0.00    +0.000 Cl
ATOM     12  C   UNL     1       1.462   5.743  20.399  0.00  0.00    +0.000 A 
ENDBRANCH   5   6
BRANCH   5  13
ATOM     13  O   UNL     1       0.757   3.233  20.918  0.00  0.00    +0.000 OA
ATOM     14  H   UNL     1      -0.176   2.961  20.879  0.00  0.00    +0.000 HD
ENDBRANCH   5  13
ENDBRANCH   4   5
ENDBRANCH   2   4
ENDBRANCH   1   2
BRANCH   1  15
ATOM     15  C   UNL     1       5.016   4.373  19.395  0.00  0.00    +0.000 C 
BRANCH  15  25
ATOM     16  C   UNL     1       7.972   5.692  19.734  0.00  0.00    +0.000 C 
ATOM     17  C   UNL     1       7.267   5.254  18.503  0.00  0.00    +0.000 A 
ATOM     18  N   UNL     1       7.838   5.380  17.262  0.00  0.00    +0.000 N 
ATOM     19  C   UNL     1       6.985   4.924  16.285  0.00  0.00    +0.000 A 
ATOM     20  C   UNL     1       7.144   4.877  14.894  0.00  0.00    +0.000 A 
ATOM     21  C   UNL     1       6.088   4.358  14.137  0.00  0.00    +0.000 A 
ATOM     22  C   UNL     1       4.922   3.905  14.747  0.00  0.00    +0.000 A 
ATOM     23  C   UNL     1       4.781   3.957  16.138  0.00  0.00    +0.000 A 
ATOM     24  C   UNL     1       5.832   4.479  16.925  0.00  0.00    +0.000 A 
ATOM     25  C   UNL     1       6.015   4.687  18.331  0.00  0.00    +0.000 A 
ATOM     26  H   UNL     1       8.753   5.763  17.078  0.00  0.00    +0.000 HD
ENDBRANCH  15  25
ENDBRANCH   1  15
TORSDOF 7
ENDMDL
MODEL 2
REMARK VINA RESULT:      -7.1      2.893      6.100
REMARK  Name = 
REMARK  8 active torsions:
REMARK  status: ('A' for Active; 'I' for Inactive)
REMARK    1  A    between atoms: C_1  and  C_2
REMARK    2  A    between atoms: C_10  and  C_11
REMARK    3  A    between atoms: C_11  and  C_12
REMARK    4  A    between atoms: C_12  and  N_13
REMARK    5  A    between atoms: N_13  and  C_14
REMARK    6  A    between atoms: C_14  and  C_15
REMARK    7  A    between atoms: C_15  and  O_16
REMARK    8  A    between atoms: C_15  and  C_17
REMARK                            x       y       z     vdW  Elec       q    Type
REMARK                         _______ _______ _______ _____ _____    ______ ____
ROOT
ATOM      1  C   UNL     1       1.987   4.694  19.556  0.00  0.00    +0.000 C 
ENDROOT
BRANCH   1   2
ATOM      2  N   UNL     1       1.768   4.558  18.106  0.00  0.00    +0.000 NA
ATOM      3  H   UNL     1       2.163   5.352  17.600  0.00  0.00    +0.000 HD
BRANCH   2   4
ATOM      4  C   UNL     1       2.360   3.318  17.591  0.00  0.00    +0.000 C 
BRANCH   4   5
ATOM      5  C   UNL     1       3.773   3.003  18.128  0.00  0.00    +0.000 C 
BRANCH   5   6
ATOM      6  C   UNL     1       4.871   3.851  17.494  0.00  0.00    +0.000 A 
ATOM      7  C   UNL     1       5.013   4.020  16.105  0.00  0.00    +0.000 A 
ATOM      8  C   UNL     1       6.030   4.814  15.575  0.00  0.00    +0.000 A 
ATOM      9  C   UNL     1       6.930   5.454  16.422  0.00  0.00    +0.000 A 
ATOM     10  C   UNL     1       6.805   5.296  17.801  0.00  0.00    +0.000 A 
ATOM     11 CL   UNL     1       7.918   6.085  18.849  0.00  0.00    +0.000 Cl
ATOM     12  C   UNL     1       5.790   4.504  18.337  0.00  0.00    +0.000 A 
ENDBRANCH   5   6
BRANCH   5  13
ATOM     13  O   UNL     1       4.057   1.619  17.867  0.00  0.00    +0.000 OA
ATOM     14  H   UNL     1       3.338   1.101  18.266  0.00  0.00    +0.000 HD
ENDBRANCH   5  13
ENDBRANCH   4   5
ENDBRANCH   2   4
ENDBRANCH   1   2
BRANCH   1  15
ATOM     15  C   UNL     1       2.883   5.875  19.972  0.00  0.00    +0.000 C 
BRANCH  15  25
ATOM     16  C   UNL     1       3.677   7.343  17.178  0.00  0.00    +0.000 C 
ATOM     17  C   UNL     1       2.753   7.789  18.252  0.00  0.00    +0.000 A 
ATOM     18  N   UNL     1       2.082   8.982  18.176  0.00  0.00    +0.000 N 
ATOM     19  C   UNL     1       1.307   9.178  19.295  0.00  0.00    +0.000 A 
ATOM     20  C   UNL     1       0.477  10.250  19.646  0.00  0.00    +0.000 A 
ATOM     21  C   UNL     1      -0.195  10.177  20.871  0.00  0.00    +0.000 A 
ATOM     22  C   UNL     1      -0.044   9.075  21.708  0.00  0.00    +0.000 A 
ATOM     23  C   UNL     1       0.787   8.012  21.340  0.00  0.00    +0.000 A 
ATOM     24  C   UNL     1       1.479   8.062  20.110  0.00  0.00    +0.000 A 
ATOM     25  C   UNL     1       2.394   7.183  19.445  0.00  0.00    +0.000 A 
ATOM     26  H   UNL     1       2.148   9.640  17.414  0.00  0.00    +0.000 HD
ENDBRANCH  15  25
ENDBRANCH   1  15
TORSDOF 7
ENDMDL
MODEL 3
REMARK VINA RESULT:      -7.1      1.102      1.478
REMARK  Name = 
REMARK  8 active torsions:
REMARK  status: ('A' for Active; 'I' for Inactive)
REMARK    1  A    between atoms: C_1  and  C_2
REMARK    2  A    between atoms: C_10  and  C_11
REMARK    3  A    between atoms: C_11  and  C_12
REMARK    4  A    between atoms: C_12  and  N_13
REMARK    5  A    between atoms: N_13  and  C_14
REMARK    6  A    between atoms: C_14  and  C_15
REMARK    7  A    between atoms: C_15  and  O_16
REMARK    8  A    between atoms: C_15  and  C_17
REMARK                            x       y       z     vdW  Elec       q    Type
REMARK                         _______ _______ _______ _____ _____    ______ ____
ROOT
ATOM      1  C   UNL     1       4.894   2.763  19.510  0.00  0.00    +0.000 C 
ENDROOT
BRANCH   1   2
ATOM      2  N   UNL     1       3.520   2.240  19.579  0.00  0.00    +0.000 NA
ATOM      3  H   UNL     1       2.962   2.759  20.258  0.00  0.00    +0.000 HD
BRANCH   2   4
ATOM      4  C   UNL     1       2.859   2.299  18.269  0.00  0.00    +0.000 C 
BRANCH   4   5
ATOM      5  C   UNL     1       1.574   3.155  18.232  0.00  0.00    +0.000 C 
BRANCH   5   6
ATOM      6  C   UNL     1       1.737   4.532  18.868  0.00  0.00    +0.000 A 
ATOM      7  C   UNL     1       1.444   4.801  20.218  0.00  0.00    +0.000 A 
ATOM      8  C   UNL     1       1.619   6.076  20.754  0.00  0.00    +0.000 A 
ATOM      9  C   UNL     1       2.089   7.113  19.952  0.00  0.00    +0.000 A 
ATOM     10  C   UNL     1       2.383   6.865  18.613  0.00  0.00    +0.000 A 
ATOM     11 CL   UNL     1       2.962   8.145  17.621  0.00  0.00    +0.000 Cl
ATOM     12  C   UNL     1       2.210   5.591  18.071  0.00  0.00    +0.000 A 
ENDBRANCH   5   6
BRANCH   5  13
ATOM     13  O   UNL     1       0.540   2.447  18.936  0.00  0.00    +0.000 OA
ATOM     14  H   UNL     1       0.972   1.729  19.428  0.00  0.00    +0.000 HD
ENDBRANCH   5  13
ENDBRANCH   4   5
ENDBRANCH   2   4
ENDBRANCH   1   2
BRANCH   1  15
ATOM     15  C   UNL     1       5.002   4.284  19.295  0.00  0.00    +0.000 C 
BRANCH  15  25
ATOM     16  C   UNL     1       7.918   5.666  19.721  0.00  0.00    +0.000 C 
ATOM     17  C   UNL     1       7.247   5.241  18.466  0.00  0.00    +0.000 A 
ATOM     18  N   UNL     1       7.836   5.412  17.240  0.00  0.00    +0.000 N 
ATOM     19  C   UNL     1       7.012   4.960  16.236  0.00  0.00    +0.000 A 
ATOM     20  C   UNL     1       7.197   4.951  14.848  0.00  0.00    +0.000 A 
ATOM     21  C   UNL     1       6.168   4.426  14.059  0.00  0.00    +0.000 A 
ATOM     22  C   UNL     1       5.002   3.928  14.636  0.00  0.00    +0.000 A 
ATOM     23  C   UNL     1       4.836   3.943  16.025  0.00  0.00    +0.000 A 
ATOM     24  C   UNL     1       5.859   4.471  16.844  0.00  0.00    +0.000 A 
ATOM     25  C   UNL     1       6.012   4.648  18.257  0.00  0.00    +0.000 A 
ATOM     26  H   UNL     1       8.744   5.822  17.082  0.00  0.00    +0.000 HD
ENDBRANCH  15  25
ENDBRANCH   1  15
TORSDOF 7
ENDMDL
MODEL 4
REMARK VINA RESULT:      -7.0      1.673      2.413
REMARK  Name = 
REMARK  8 active torsions:
REMARK  status: ('A' for Active; 'I' for Inactive)
REMARK    1  A    between atoms: C_1  and  C_2
REMARK    2  A    between atoms: C_10  and  C_11
REMARK    3  A    between atoms: C_11  and  C_12
REMARK    4  A    between atoms: C_12  and  N_13
REMARK    5  A    between atoms: N_13  and  C_14
REMARK    6  A    between atoms: C_14  and  C_15
REMARK    7  A    between atoms: C_15  and  O_16
REMARK    8  A    between atoms: C_15  and  C_17
REMARK                            x       y       z     vdW  Elec       q    Type
REMARK                         _______ _______ _______ _____ _____    ______ ____
ROOT
ATOM      1  C   UNL     1       5.012   3.628  17.838  0.00  0.00    +0.000 C 
ENDROOT
BRANCH   1   2
ATOM      2  N   UNL     1       4.141   2.527  18.280  0.00  0.00    +0.000 NA
ATOM      3  H   UNL     1       4.343   2.263  19.245  0.00  0.00    +0.000 HD
BRANCH   2   4
ATOM      4  C   UNL     1       2.723   2.890  18.169  0.00  0.00    +0.000 C 
BRANCH   4   5
ATOM      5  C   UNL     1       2.060   3.321  19.497  0.00  0.00    +0.000 C 
BRANCH   5   6
ATOM      6  C   UNL     1       2.006   4.833  19.691  0.00  0.00    +0.000 A 
ATOM      7  C   UNL     1       1.579   5.446  20.883  0.00  0.00    +0.000 A 
ATOM      8  C   UNL     1       1.556   6.834  21.013  0.00  0.00    +0.000 A 
ATOM      9  C   UNL     1       1.957   7.642  19.952  0.00  0.00    +0.000 A 
ATOM     10  C   UNL     1       2.382   7.052  18.763  0.00  0.00    +0.000 A 
ATOM     11 CL   UNL     1       2.876   8.049  17.452  0.00  0.00    +0.000 Cl
ATOM     12  C   UNL     1       2.407   5.664  18.628  0.00  0.00    +0.000 A 
ENDBRANCH   5   6
BRANCH   5  13
ATOM     13  O   UNL     1       2.810   2.749  20.581  0.00  0.00    +0.000 OA
ATOM     14  H   UNL     1       3.403   2.082  20.196  0.00  0.00    +0.000 HD
ENDBRANCH   5  13
ENDBRANCH   4   5
ENDBRANCH   2   4
ENDBRANCH   1   2
BRANCH   1  15
ATOM     15  C   UNL     1       4.605   4.286  16.506  0.00  0.00    +0.000 C 
BRANCH  15  25
ATOM     16  C   UNL     1       7.104   6.193  17.348  0.00  0.00    +0.000 C 
ATOM     17  C   UNL     1       6.832   5.505  16.061  0.00  0.00    +0.000 A 
ATOM     18  N   UNL     1       7.679   5.620  14.989  0.00  0.00    +0.000 N 
ATOM     19  C   UNL     1       7.201   4.910  13.912  0.00  0.00    +0.000 A 
ATOM     20  C   UNL     1       7.725   4.759  12.623  0.00  0.00    +0.000 A 
ATOM     21  C   UNL     1       7.007   3.969  11.718  0.00  0.00    +0.000 A 
ATOM     22  C   UNL     1       5.814   3.355  12.091  0.00  0.00    +0.000 A 
ATOM     23  C   UNL     1       5.307   3.514  13.384  0.00  0.00    +0.000 A 
ATOM     24  C   UNL     1       6.011   4.309  14.315  0.00  0.00    +0.000 A 
ATOM     25  C   UNL     1       5.782   4.687  15.679  0.00  0.00    +0.000 A 
ATOM     26  H   UNL     1       8.532   6.157  14.976  0.00  0.00    +0.000 HD
ENDBRANCH  15  25
ENDBRANCH   1  15
TORSDOF 7
ENDMDL
MODEL 5
REMARK VINA RESULT:      -7.0      4.082      5.571
REMARK  Name = 
REMARK  8 active torsions:
REMARK  status: ('A' for Active; 'I' for Inactive)
REMARK    1  A    between atoms: C_1  and  C_2
REMARK    2  A    between atoms: C_10  and  C_11
REMARK    3  A    between atoms: C_11  and  C_12
REMARK    4  A    between atoms: C_12  and  N_13
REMARK    5  A    between atoms: N_13  and  C_14
REMARK    6  A    between atoms: C_14  and  C_15
REMARK    7  A    between atoms: C_15  and  O_16
REMARK    8  A    between atoms: C_15  and  C_17
REMARK                            x       y       z     vdW  Elec       q    Type
REMARK                         _______ _______ _______ _____ _____    ______ ____
ROOT
ATOM      1  C   UNL     1       2.841   7.692  18.204  0.00  0.00    +0.000 C 
ENDROOT
BRANCH   1   2
ATOM      2  N   UNL     1       2.109   8.692  17.409  0.00  0.00    +0.000 NA
ATOM      3  H   UNL     1       1.242   8.302  17.038  0.00  0.00    +0.000 HD
BRANCH   2   4
ATOM      4  C   UNL     1       1.798   9.885  18.206  0.00  0.00    +0.000 C 
BRANCH   4   5
ATOM      5  C   UNL     1       0.615   9.717  19.185  0.00  0.00    +0.000 C 
BRANCH   5   6
ATOM      6  C   UNL     1      -0.690  10.323  18.677  0.00  0.00    +0.000 A 
ATOM      7  C   UNL     1      -1.419  11.296  19.385  0.00  0.00    +0.000 A 
ATOM      8  C   UNL     1      -2.603  11.825  18.871  0.00  0.00    +0.000 A 
ATOM      9  C   UNL     1      -3.087  11.392  17.640  0.00  0.00    +0.000 A 
ATOM     10  C   UNL     1      -2.377  10.427  16.926  0.00  0.00    +0.000 A 
ATOM     11 CL   UNL     1      -2.975   9.890  15.405  0.00  0.00    +0.000 Cl
ATOM     12  C   UNL     1      -1.192   9.895  17.434  0.00  0.00    +0.000 A 
ENDBRANCH   5   6
BRANCH   5  13
ATOM     13  O   UNL     1       0.961  10.356  20.425  0.00  0.00    +0.000 OA
ATOM     14  H   UNL     1       1.501   9.724  20.928  0.00  0.00    +0.000 HD
ENDBRANCH   5  13
ENDBRANCH   4   5
ENDBRANCH   2   4
ENDBRANCH   1   2
BRANCH   1  15
ATOM     15  C   UNL     1       4.032   7.032  17.486  0.00  0.00    +0.000 C 
BRANCH  15  25
ATOM     16  C   UNL     1       6.905   5.864  18.473  0.00  0.00    +0.000 C 
ATOM     17  C   UNL     1       5.579   5.198  18.427  0.00  0.00    +0.000 A 
ATOM     18  N   UNL     1       5.412   3.896  18.824  0.00  0.00    +0.000 N 
ATOM     19  C   UNL     1       4.104   3.503  18.668  0.00  0.00    +0.000 A 
ATOM     20  C   UNL     1       3.491   2.271  18.929  0.00  0.00    +0.000 A 
ATOM     21  C   UNL     1       2.121   2.158  18.664  0.00  0.00    +0.000 A 
ATOM     22  C   UNL     1       1.395   3.235  18.162  0.00  0.00    +0.000 A 
ATOM     23  C   UNL     1       2.023   4.460  17.911  0.00  0.00    +0.000 A 
ATOM     24  C   UNL     1       3.405   4.599  18.166  0.00  0.00    +0.000 A 
ATOM     25  C   UNL     1       4.343   5.672  18.017  0.00  0.00    +0.000 A 
ATOM     26  H   UNL     1       6.143   3.296  19.172  0.00  0.00    +0.000 HD
ENDBRANCH  15  25
ENDBRANCH   1  15
TORSDOF 7
ENDMDL
MODEL 6
REMARK VINA RESULT:      -7.0      2.212      3.583
REMARK  Name = 
REMARK  8 active torsions:
REMARK  status: ('A' for Active; 'I' for Inactive)
REMARK    1  A    between atoms: C_1  and  C_2
REMARK    2  A    between atoms: C_10  and  C_11
REMARK    3  A    between atoms: C_11  and  C_12
REMARK    4  A    between atoms: C_12  and  N_13
REMARK    5  A    between atoms: N_13  and  C_14
REMARK    6  A    between atoms: C_14  and  C_15
REMARK    7  A    between atoms: C_15  and  O_16
REMARK    8  A    between atoms: C_15  and  C_17
REMARK                            x       y       z     vdW  Elec       q    Type
REMARK                         _______ _______ _______ _____ _____    ______ ____
ROOT
ATOM      1  C   UNL     1       2.893   3.412  20.558  0.00  0.00    +0.000 C 
ENDROOT
BRANCH   1   2
ATOM      2  N   UNL     1       2.764   4.780  21.086  0.00  0.00    +0.000 NA
ATOM      3  H   UNL     1       3.665   5.258  21.091  0.00  0.00    +0.000 HD
BRANCH   2   4
ATOM      4  C   UNL     1       1.807   5.568  20.299  0.00  0.00    +0.000 C 
BRANCH   4   5
ATOM      5  C   UNL     1       2.394   6.847  19.660  0.00  0.00    +0.000 C 
BRANCH   5   6
ATOM      6  C   UNL     1       1.639   8.118  20.034  0.00  0.00    +0.000 A 
ATOM      7  C   UNL     1       1.377   9.159  19.124  0.00  0.00    +0.000 A 
ATOM      8  C   UNL     1       0.674  10.298  19.513  0.00  0.00    +0.000 A 
ATOM      9  C   UNL     1       0.218  10.425  20.822  0.00  0.00    +0.000 A 
ATOM     10  C   UNL     1       0.469   9.404  21.738  0.00  0.00    +0.000 A 
ATOM     11 CL   UNL     1      -0.092   9.561  23.356  0.00  0.00    +0.000 Cl
ATOM     12  C   UNL     1       1.172   8.262  21.354  0.00  0.00    +0.000 A 
ENDBRANCH   5   6
BRANCH   5  13
ATOM     13  O   UNL     1       2.355   6.696  18.232  0.00  0.00    +0.000 OA
ATOM     14  H   UNL     1       2.021   7.532  17.867  0.00  0.00    +0.000 HD
ENDBRANCH   5  13
ENDBRANCH   4   5
ENDBRANCH   2   4
ENDBRANCH   1   2
BRANCH   1  15
ATOM     15  C   UNL     1       4.252   3.089  19.911  0.00  0.00    +0.000 C 
BRANCH  15  25
ATOM     16  C   UNL     1       2.571   3.121  17.125  0.00  0.00    +0.000 C 
ATOM     17  C   UNL     1       3.782   3.889  17.507  0.00  0.00    +0.000 A 
ATOM     18  N   UNL     1       4.382   4.767  16.641  0.00  0.00    +0.000 N 
ATOM     19  C   UNL     1       5.493   5.337  17.216  0.00  0.00    +0.000 A 
ATOM     20  C   UNL     1       6.405   6.266  16.700  0.00  0.00    +0.000 A 
ATOM     21  C   UNL     1       7.461   6.668  17.525  0.00  0.00    +0.000 A 
ATOM     22  C   UNL     1       7.596   6.163  18.816  0.00  0.00    +0.000 A 
ATOM     23  C   UNL     1       6.673   5.238  19.317  0.00  0.00    +0.000 A 
ATOM     24  C   UNL     1       5.601   4.814  18.502  0.00  0.00    +0.000 A 
ATOM     25  C   UNL     1       4.513   3.898  18.683  0.00  0.00    +0.000 A 
ATOM     26  H   UNL     1       4.067   4.968  15.704  0.00  0.00    +0.000 HD
ENDBRANCH  15  25
ENDBRANCH   1  15
TORSDOF 7
ENDMDL
MODEL 7
REMARK VINA RESULT:      -6.9      2.025      3.108
REMARK  Name = 
REMARK  8 active torsions:
REMARK  status: ('A' for Active; 'I' for Inactive)
REMARK    1  A    between atoms: C_1  and  C_2
REMARK    2  A    between atoms: C_10  and  C_11
REMARK    3  A    between atoms: C_11  and  C_12
REMARK    4  A    between atoms: C_12  and  N_13
REMARK    5  A    between atoms: N_13  and  C_14
REMARK    6  A    between atoms: C_14  and  C_15
REMARK    7  A    between atoms: C_15  and  O_16
REMARK    8  A    between atoms: C_15  and  C_17
REMARK                            x       y       z     vdW  Elec       q    Type
REMARK                         _______ _______ _______ _____ _____    ______ ____
ROOT
ATOM      1  C   UNL     1       1.516   4.231  18.093  0.00  0.00    +0.000 C 
ENDROOT
BRANCH   1   2
ATOM      2  N   UNL     1       1.477   3.997  19.545  0.00  0.00    +0.000 NA
ATOM      3  H   UNL     1       2.412   3.816  19.913  0.00  0.00    +0.000 HD
BRANCH   2   4
ATOM      4  C   UNL     1       0.893   5.141  20.256  0.00  0.00    +0.000 C 
BRANCH   4   5
ATOM      5  C   UNL     1       1.906   6.234  20.662  0.00  0.00    +0.000 C 
BRANCH   5   6
ATOM      6  C   UNL     1       1.825   7.493  19.804  0.00  0.00    +0.000 A 
ATOM      7  C   UNL     1       2.398   7.594  18.522  0.00  0.00    +0.000 A 
ATOM      8  C   UNL     1       2.288   8.765  17.773  0.00  0.00    +0.000 A 
ATOM      9  C   UNL     1       1.605   9.863  18.289  0.00  0.00    +0.000 A 
ATOM     10  C   UNL     1       1.032   9.781  19.558  0.00  0.00    +0.000 A 
ATOM     11 CL   UNL     1       0.190  11.137  20.197  0.00  0.00    +0.000 Cl
ATOM     12  C   UNL     1       1.139   8.612  20.311  0.00  0.00    +0.000 A 
ENDBRANCH   5   6
BRANCH   5  13
ATOM     13  O   UNL     1       3.230   5.688  20.546  0.00  0.00    +0.000 OA
ATOM     14  H   UNL     1       3.784   6.145  21.201  0.00  0.00    +0.000 HD
ENDBRANCH   5  13
ENDBRANCH   4   5
ENDBRANCH   2   4
ENDBRANCH   1   2
BRANCH   1  15
ATOM     15  C   UNL     1       2.650   3.504  17.345  0.00  0.00    +0.000 C 
BRANCH  15  25
ATOM     16  C   UNL     1       4.252   1.944  19.710  0.00  0.00    +0.000 C 
ATOM     17  C   UNL     1       4.657   3.132  18.918  0.00  0.00    +0.000 A 
ATOM     18  N   UNL     1       5.858   3.762  19.127  0.00  0.00    +0.000 N 
ATOM     19  C   UNL     1       5.992   4.844  18.288  0.00  0.00    +0.000 A 
ATOM     20  C   UNL     1       7.035   5.771  18.166  0.00  0.00    +0.000 A 
ATOM     21  C   UNL     1       6.893   6.787  17.215  0.00  0.00    +0.000 A 
ATOM     22  C   UNL     1       5.755   6.870  16.417  0.00  0.00    +0.000 A 
ATOM     23  C   UNL     1       4.724   5.933  16.551  0.00  0.00    +0.000 A 
ATOM     24  C   UNL     1       4.842   4.899  17.506  0.00  0.00    +0.000 A 
ATOM     25  C   UNL     1       3.999   3.812  17.906  0.00  0.00    +0.000 A 
ATOM     26  H   UNL     1       6.549   3.486  19.807  0.00  0.00    +0.000 HD
ENDBRANCH  15  25
ENDBRANCH   1  15
TORSDOF 7
ENDMDL
MODEL 8
REMARK VINA RESULT:      -6.8      2.442      3.401
REMARK  Name = 
REMARK  8 active torsions:
REMARK  status: ('A' for Active; 'I' for Inactive)
REMARK    1  A    between atoms: C_1  and  C_2
REMARK    2  A    between atoms: C_10  and  C_11
REMARK    3  A    between atoms: C_11  and  C_12
REMARK    4  A    between atoms: C_12  and  N_13
REMARK    5  A    between atoms: N_13  and  C_14
REMARK    6  A    between atoms: C_14  and  C_15
REMARK    7  A    between atoms: C_15  and  O_16
REMARK    8  A    between atoms: C_15  and  C_17
REMARK                            x       y       z     vdW  Elec       q    Type
REMARK                         _______ _______ _______ _____ _____    ______ ____
ROOT
ATOM      1  C   UNL     1       4.611   6.078  17.730  0.00  0.00    +0.000 C 
ENDROOT
BRANCH   1   2
ATOM      2  N   UNL     1       3.749   7.225  17.403  0.00  0.00    +0.000 NA
ATOM      3  H   UNL     1       3.491   7.221  16.416  0.00  0.00    +0.000 HD
BRANCH   2   4
ATOM      4  C   UNL     1       2.528   7.226  18.219  0.00  0.00    +0.000 C 
BRANCH   4   5
ATOM      5  C   UNL     1       2.650   6.477  19.564  0.00  0.00    +0.000 C 
BRANCH   5   6
ATOM      6  C   UNL     1       2.028   5.084  19.548  0.00  0.00    +0.000 A 
ATOM      7  C   UNL     1       1.586   4.448  18.373  0.00  0.00    +0.000 A 
ATOM      8  C   UNL     1       1.033   3.168  18.411  0.00  0.00    +0.000 A 
ATOM      9  C   UNL     1       0.906   2.497  19.623  0.00  0.00    +0.000 A 
ATOM     10  C   UNL     1       1.337   3.113  20.797  0.00  0.00    +0.000 A 
ATOM     11 CL   UNL     1       1.179   2.285  22.296  0.00  0.00    +0.000 Cl
ATOM     12  C   UNL     1       1.892   4.392  20.765  0.00  0.00    +0.000 A 
ENDBRANCH   5   6
BRANCH   5  13
ATOM     13  O   UNL     1       1.992   7.258  20.576  0.00  0.00    +0.000 OA
ATOM     14  H   UNL     1       1.225   7.680  20.155  0.00  0.00    +0.000 HD
ENDBRANCH   5  13
ENDBRANCH   4   5
ENDBRANCH   2   4
ENDBRANCH   1   2
BRANCH   1  15
ATOM     15  C   UNL     1       4.643   4.963  16.667  0.00  0.00    +0.000 C 
BRANCH  15  25
ATOM     16  C   UNL     1       7.449   6.530  17.177  0.00  0.00    +0.000 C 
ATOM     17  C   UNL     1       7.003   5.751  15.995  0.00  0.00    +0.000 A 
ATOM     18  N   UNL     1       7.797   5.604  14.887  0.00  0.00    +0.000 N 
ATOM     19  C   UNL     1       7.157   4.861  13.923  0.00  0.00    +0.000 A 
ATOM     20  C   UNL     1       7.579   4.480  12.644  0.00  0.00    +0.000 A 
ATOM     21  C   UNL     1       6.699   3.716  11.869  0.00  0.00    +0.000 A 
ATOM     22  C   UNL     1       5.448   3.348  12.358  0.00  0.00    +0.000 A 
ATOM     23  C   UNL     1       5.043   3.735  13.640  0.00  0.00    +0.000 A 
ATOM     24  C   UNL     1       5.913   4.508  14.440  0.00  0.00    +0.000 A 
ATOM     25  C   UNL     1       5.820   5.072  15.754  0.00  0.00    +0.000 A 
ATOM     26  H   UNL     1       8.721   5.993  14.777  0.00  0.00    +0.000 HD
ENDBRANCH  15  25
ENDBRANCH   1  15
TORSDOF 7
ENDMDL
MODEL 9
REMARK VINA RESULT:      -6.8      3.135      6.419
REMARK  Name = 
REMARK  8 active torsions:
REMARK  status: ('A' for Active; 'I' for Inactive)
REMARK    1  A    between atoms: C_1  and  C_2
REMARK    2  A    between atoms: C_10  and  C_11
REMARK    3  A    between atoms: C_11  and  C_12
REMARK    4  A    between atoms: C_12  and  N_13
REMARK    5  A    between atoms: N_13  and  C_14
REMARK    6  A    between atoms: C_14  and  C_15
REMARK    7  A    between atoms: C_15  and  O_16
REMARK    8  A    between atoms: C_15  and  C_17
REMARK                            x       y       z     vdW  Elec       q    Type
REMARK                         _______ _______ _______ _____ _____    ______ ____
ROOT
ATOM      1  C   UNL     1       1.829   5.040  19.412  0.00  0.00    +0.000 C 
ENDROOT
BRANCH   1   2
ATOM      2  N   UNL     1       1.998   3.704  20.006  0.00  0.00    +0.000 NA
ATOM      3  H   UNL     1       1.113   3.197  20.025  0.00  0.00    +0.000 HD
BRANCH   2   4
ATOM      4  C   UNL     1       2.990   2.913  19.269  0.00  0.00    +0.000 C 
BRANCH   4   5
ATOM      5  C   UNL     1       4.459   3.193  19.658  0.00  0.00    +0.000 C 
BRANCH   5   6
ATOM      6  C   UNL     1       5.181   4.125  18.690  0.00  0.00    +0.000 A 
ATOM      7  C   UNL     1       6.019   5.175  19.107  0.00  0.00    +0.000 A 
ATOM      8  C   UNL     1       6.664   5.994  18.181  0.00  0.00    +0.000 A 
ATOM      9  C   UNL     1       6.484   5.784  16.816  0.00  0.00    +0.000 A 
ATOM     10  C   UNL     1       5.656   4.748  16.386  0.00  0.00    +0.000 A 
ATOM     11 CL   UNL     1       5.432   4.488  14.701  0.00  0.00    +0.000 Cl
ATOM     12  C   UNL     1       5.009   3.925  17.308  0.00  0.00    +0.000 A 
ENDBRANCH   5   6
BRANCH   5  13
ATOM     13  O   UNL     1       5.162   1.940  19.695  0.00  0.00    +0.000 OA
ATOM     14  H   UNL     1       4.702   1.337  19.087  0.00  0.00    +0.000 HD
ENDBRANCH   5  13
ENDBRANCH   4   5
ENDBRANCH   2   4
ENDBRANCH   1   2
BRANCH   1  15
ATOM     15  C   UNL     1       2.371   6.205  20.262  0.00  0.00    +0.000 C 
BRANCH  15  25
ATOM     16  C   UNL     1       3.267   7.546  17.435  0.00  0.00    +0.000 C 
ATOM     17  C   UNL     1       2.395   8.091  18.506  0.00  0.00    +0.000 A 
ATOM     18  N   UNL     1       1.831   9.338  18.413  0.00  0.00    +0.000 N 
ATOM     19  C   UNL     1       1.087   9.622  19.533  0.00  0.00    +0.000 A 
ATOM     20  C   UNL     1       0.358  10.769  19.870  0.00  0.00    +0.000 A 
ATOM     21  C   UNL     1      -0.307  10.779  21.101  0.00  0.00    +0.000 A 
ATOM     22  C   UNL     1      -0.247   9.683  21.958  0.00  0.00    +0.000 A 
ATOM     23  C   UNL     1       0.485   8.544  21.604  0.00  0.00    +0.000 A 
ATOM     24  C   UNL     1       1.167   8.511  20.369  0.00  0.00    +0.000 A 
ATOM     25  C   UNL     1       1.995   7.542  19.713  0.00  0.00    +0.000 A 
ATOM     26  H   UNL     1       1.949   9.973  17.638  0.00  0.00    +0.000 HD
ENDBRANCH  15  25
ENDBRANCH   1  15
TORSDOF 7
ENDMDL
