MODEL 1
REMARK VINA RESULT:      -8.2      0.000      0.000
REMARK  Name = 
REMARK  3 active torsions:
REMARK  status: ('A' for Active; 'I' for Inactive)
REMARK    1  A    between atoms: N_3  and  C_4
REMARK    2  A    between atoms: C_12  and  C_13
REMARK    3  A    between atoms: C_21  and  C_22
REMARK                            x       y       z     vdW  Elec       q    Type
REMARK                         _______ _______ _______ _____ _____    ______ ____
ROOT
ATOM      1  O   UNL     1       1.986   8.720  17.204  0.00  0.00    +0.000 OA
ATOM      2  C   UNL     1       1.562   8.720  18.352  0.00  0.00    +0.000 C 
ATOM      3  N   UNL     1       1.919   7.837  19.366  0.00  0.00    +0.000 N 
ATOM      4  N   UNL     1       0.553   9.640  18.753  0.00  0.00    +0.000 N 
ATOM      5  N   UNL     1      -0.511   9.909  17.960  0.00  0.00    +0.000 NA
ATOM      6  C   UNL     1      -1.245  10.751  18.699  0.00  0.00    +0.000 A 
ATOM      7  C   UNL     1      -0.518  11.051  19.914  0.00  0.00    +0.000 A 
ATOM      8  N   UNL     1       0.557  10.241  19.973  0.00  0.00    +0.000 NA
ATOM      9  H   UNL     1       1.388   7.861  20.233  0.00  0.00    +0.000 HD
ENDROOT
BRANCH   6  10
ATOM     10  C   UNL     1      -2.598  11.166  18.280  0.00  0.00    +0.000 A 
ATOM     11  C   UNL     1      -3.390  11.885  19.201  0.00  0.00    +0.000 A 
ATOM     12  C   UNL     1      -4.668  12.343  18.872  0.00  0.00    +0.000 A 
ATOM     13  C   UNL     1      -5.208  12.034  17.632  0.00  0.00    +0.000 A 
ATOM     14 CL   UNL     1      -6.792  12.574  17.235  0.00  0.00    +0.000 Cl
ATOM     15  C   UNL     1      -4.473  11.287  16.716  0.00  0.00    +0.000 A 
ATOM     16  C   UNL     1      -3.170  10.865  17.028  0.00  0.00    +0.000 A 
ATOM     17 CL   UNL     1      -2.337  10.015  15.771  0.00  0.00    +0.000 Cl
ENDBRANCH   6  10
BRANCH   7  18
ATOM     18  C   UNL     1      -0.840  12.026  20.975  0.00  0.00    +0.000 A 
ATOM     19  C   UNL     1      -1.315  11.546  22.219  0.00  0.00    +0.000 A 
ATOM     20  C   UNL     1      -1.504  12.392  23.316  0.00  0.00    +0.000 A 
ATOM     21  C   UNL     1      -1.285  13.757  23.166  0.00  0.00    +0.000 A 
ATOM     22 CL   UNL     1      -1.485  14.807  24.515  0.00  0.00    +0.000 Cl
ATOM     23  C   UNL     1      -0.888  14.274  21.938  0.00  0.00    +0.000 A 
ATOM     24  C   UNL     1      -0.656  13.417  20.847  0.00  0.00    +0.000 A 
ATOM     25 CL   UNL     1      -0.107  14.186  19.398  0.00  0.00    +0.000 Cl
ENDBRANCH   7  18
BRANCH   3  26
ATOM     26  C   UNL     1       2.916   6.794  19.136  0.00  0.00    +0.000 C 
ATOM     27  C   UNL     1       3.003   5.809  20.313  0.00  0.00    +0.000 C 
ATOM     28  C   UNL     1       1.877   4.775  20.332  0.00  0.00    +0.000 C 
ATOM     29  C   UNL     1       1.762   4.035  19.004  0.00  0.00    +0.000 C 
ATOM     30  C   UNL     1       1.597   5.006  17.844  0.00  0.00    +0.000 C 
ATOM     31  C   UNL     1       2.719   6.042  17.806  0.00  0.00    +0.000 C 
ENDBRANCH   3  26
TORSDOF 3
ENDMDL
MODEL 2
REMARK VINA RESULT:      -8.0      1.079      1.424
REMARK  Name = 
REMARK  3 active torsions:
REMARK  status: ('A' for Active; 'I' for Inactive)
REMARK    1  A    between atoms: N_3  and  C_4
REMARK    2  A    between atoms: C_12  and  C_13
REMARK    3  A    between atoms: C_21  and  C_22
REMARK                            x       y       z     vdW  Elec       q    Type
REMARK                         _______ _______ _______ _____ _____    ______ ____
ROOT
ATOM      1  O   UNL     1       2.264   8.527  17.078  0.00  0.00    +0.000 OA
ATOM      2  C   UNL     1       1.842   8.479  18.226  0.00  0.00    +0.000 C 
ATOM      3  N   UNL     1       2.188   7.544  19.197  0.00  0.00    +0.000 N 
ATOM      4  N   UNL     1       0.847   9.393  18.672  0.00  0.00    +0.000 N 
ATOM      5  N   UNL     1      -0.214   9.715  17.896  0.00  0.00    +0.000 NA
ATOM      6  C   UNL     1      -0.935  10.531  18.676  0.00  0.00    +0.000 A 
ATOM      7  C   UNL     1      -0.201  10.763  19.902  0.00  0.00    +0.000 A 
ATOM      8  N   UNL     1       0.863   9.936  19.920  0.00  0.00    +0.000 NA
ATOM      9  H   UNL     1       1.660   7.534  20.064  0.00  0.00    +0.000 HD
ENDROOT
BRANCH   6  10
ATOM     10  C   UNL     1      -2.283  10.985  18.281  0.00  0.00    +0.000 A 
ATOM     11  C   UNL     1      -3.009  11.785  19.189  0.00  0.00    +0.000 A 
ATOM     12  C   UNL     1      -4.277  12.282  18.878  0.00  0.00    +0.000 A 
ATOM     13  C   UNL     1      -4.874  11.935  17.675  0.00  0.00    +0.000 A 
ATOM     14 CL   UNL     1      -6.445  12.525  17.303  0.00  0.00    +0.000 Cl
ATOM     15  C   UNL     1      -4.204  11.111  16.776  0.00  0.00    +0.000 A 
ATOM     16  C   UNL     1      -2.910  10.647  17.065  0.00  0.00    +0.000 A 
ATOM     17 CL   UNL     1      -2.160   9.698  15.828  0.00  0.00    +0.000 Cl
ENDBRANCH   6  10
BRANCH   7  18
ATOM     18  C   UNL     1      -0.507  11.691  21.009  0.00  0.00    +0.000 A 
ATOM     19  C   UNL     1      -0.516  13.082  20.750  0.00  0.00    +0.000 A 
ATOM     20  C   UNL     1      -0.936  14.010  21.707  0.00  0.00    +0.000 A 
ATOM     21  C   UNL     1      -1.293  13.565  22.975  0.00  0.00    +0.000 A 
ATOM     22 CL   UNL     1      -1.840  14.694  24.153  0.00  0.00    +0.000 Cl
ATOM     23  C   UNL     1      -1.227  12.213  23.288  0.00  0.00    +0.000 A 
ATOM     24  C   UNL     1      -0.846  11.274  22.312  0.00  0.00    +0.000 A 
ATOM     25 CL   UNL     1      -0.866   9.620  22.820  0.00  0.00    +0.000 Cl
ENDBRANCH   7  18
BRANCH   3  26
ATOM     26  C   UNL     1       3.169   6.498  18.914  0.00  0.00    +0.000 C 
ATOM     27  C   UNL     1       3.399   5.581  20.126  0.00  0.00    +0.000 C 
ATOM     28  C   UNL     1       2.297   4.539  20.323  0.00  0.00    +0.000 C 
ATOM     29  C   UNL     1       2.050   3.726  19.057  0.00  0.00    +0.000 C 
ATOM     30  C   UNL     1       1.745   4.631  17.872  0.00  0.00    +0.000 C 
ATOM     31  C   UNL     1       2.841   5.673  17.656  0.00  0.00    +0.000 C 
ENDBRANCH   3  26
TORSDOF 3
ENDMDL
MODEL 3
REMARK VINA RESULT:      -7.9      1.677      4.733
REMARK  Name = 
REMARK  3 active torsions:
REMARK  status: ('A' for Active; 'I' for Inactive)
REMARK    1  A    between atoms: N_3  and  C_4
REMARK    2  A    between atoms: C_12  and  C_13
REMARK    3  A    between atoms: C_21  and  C_22
REMARK                            x       y       z     vdW  Elec       q    Type
REMARK                         _______ _______ _______ _____ _____    ______ ____
ROOT
ATOM      1  O   UNL     1       1.924   8.606  22.000  0.00  0.00    +0.000 OA
ATOM      2  C   UNL     1       1.440   8.663  20.876  0.00  0.00    +0.000 C 
ATOM      3  N   UNL     1       1.671   7.778  19.829  0.00  0.00    +0.000 N 
ATOM      4  N   UNL     1       0.597   9.748  20.505  0.00  0.00    +0.000 N 
ATOM      5  N   UNL     1       0.895  11.023  20.851  0.00  0.00    +0.000 NA
ATOM      6  C   UNL     1      -0.081  11.737  20.275  0.00  0.00    +0.000 A 
ATOM      7  C   UNL     1      -1.024  10.823  19.668  0.00  0.00    +0.000 A 
ATOM      8  N   UNL     1      -0.506   9.581  19.726  0.00  0.00    +0.000 NA
ATOM      9  H   UNL     1       1.316   8.020  18.909  0.00  0.00    +0.000 HD
ENDROOT
BRANCH   6  10
ATOM     10  C   UNL     1      -0.047  13.213  20.252  0.00  0.00    +0.000 A 
ATOM     11  C   UNL     1       0.380  13.852  19.068  0.00  0.00    +0.000 A 
ATOM     12  C   UNL     1       0.410  15.244  18.954  0.00  0.00    +0.000 A 
ATOM     13  C   UNL     1       0.075  16.028  20.048  0.00  0.00    +0.000 A 
ATOM     14 CL   UNL     1       0.137  17.742  19.917  0.00  0.00    +0.000 Cl
ATOM     15  C   UNL     1      -0.306  15.431  21.246  0.00  0.00    +0.000 A 
ATOM     16  C   UNL     1      -0.382  14.032  21.349  0.00  0.00    +0.000 A 
ATOM     17 CL   UNL     1      -0.946  13.422  22.867  0.00  0.00    +0.000 Cl
ENDBRANCH   6  10
BRANCH   7  18
ATOM     18  C   UNL     1      -2.328  11.113  19.037  0.00  0.00    +0.000 A 
ATOM     19  C   UNL     1      -3.264  11.907  19.741  0.00  0.00    +0.000 A 
ATOM     20  C   UNL     1      -4.455  12.343  19.155  0.00  0.00    +0.000 A 
ATOM     21  C   UNL     1      -4.768  11.930  17.864  0.00  0.00    +0.000 A 
ATOM     22 CL   UNL     1      -6.217  12.482  17.118  0.00  0.00    +0.000 Cl
ATOM     23  C   UNL     1      -3.906  11.091  17.168  0.00  0.00    +0.000 A 
ATOM     24  C   UNL     1      -2.687  10.687  17.743  0.00  0.00    +0.000 A 
ATOM     25 CL   UNL     1      -1.684   9.693  16.743  0.00  0.00    +0.000 Cl
ENDBRANCH   7  18
BRANCH   3  26
ATOM     26  C   UNL     1       2.542   6.618  20.006  0.00  0.00    +0.000 C 
ATOM     27  C   UNL     1       1.872   5.517  20.844  0.00  0.00    +0.000 C 
ATOM     28  C   UNL     1       0.862   4.679  20.059  0.00  0.00    +0.000 C 
ATOM     29  C   UNL     1       1.468   4.107  18.782  0.00  0.00    +0.000 C 
ATOM     30  C   UNL     1       2.063   5.206  17.914  0.00  0.00    +0.000 C 
ATOM     31  C   UNL     1       3.081   6.048  18.681  0.00  0.00    +0.000 C 
ENDBRANCH   3  26
TORSDOF 3
ENDMDL
MODEL 4
REMARK VINA RESULT:      -7.9      4.329      6.195
REMARK  Name = 
REMARK  3 active torsions:
REMARK  status: ('A' for Active; 'I' for Inactive)
REMARK    1  A    between atoms: N_3  and  C_4
REMARK    2  A    between atoms: C_12  and  C_13
REMARK    3  A    between atoms: C_21  and  C_22
REMARK                            x       y       z     vdW  Elec       q    Type
REMARK                         _______ _______ _______ _____ _____    ______ ____
ROOT
ATOM      1  O   UNL     1       4.092  15.043  19.812  0.00  0.00    +0.000 OA
ATOM      2  C   UNL     1       3.692  14.348  20.738  0.00  0.00    +0.000 C 
ATOM      3  N   UNL     1       4.422  13.961  21.857  0.00  0.00    +0.000 N 
ATOM      4  N   UNL     1       2.384  13.789  20.712  0.00  0.00    +0.000 N 
ATOM      5  N   UNL     1       1.874  13.241  19.584  0.00  0.00    +0.000 NA
ATOM      6  C   UNL     1       0.679  12.779  19.975  0.00  0.00    +0.000 A 
ATOM      7  C   UNL     1       0.461  13.174  21.351  0.00  0.00    +0.000 A 
ATOM      8  N   UNL     1       1.605  13.704  21.824  0.00  0.00    +0.000 NA
ATOM      9  H   UNL     1       4.014  13.270  22.480  0.00  0.00    +0.000 HD
ENDROOT
BRANCH   6  10
ATOM     10  C   UNL     1      -0.154  11.943  19.089  0.00  0.00    +0.000 A 
ATOM     11  C   UNL     1      -1.273  12.538  18.468  0.00  0.00    +0.000 A 
ATOM     12  C   UNL     1      -2.092  11.823  17.590  0.00  0.00    +0.000 A 
ATOM     13  C   UNL     1      -1.846  10.477  17.364  0.00  0.00    +0.000 A 
ATOM     14 CL   UNL     1      -2.868   9.591  16.304  0.00  0.00    +0.000 Cl
ATOM     15  C   UNL     1      -0.777   9.847  17.996  0.00  0.00    +0.000 A 
ATOM     16  C   UNL     1       0.076  10.574  18.843  0.00  0.00    +0.000 A 
ATOM     17 CL   UNL     1       1.411   9.691  19.499  0.00  0.00    +0.000 Cl
ENDBRANCH   6  10
BRANCH   7  18
ATOM     18  C   UNL     1      -0.752  13.026  22.181  0.00  0.00    +0.000 A 
ATOM     19  C   UNL     1      -1.559  14.163  22.417  0.00  0.00    +0.000 A 
ATOM     20  C   UNL     1      -2.792  14.074  23.069  0.00  0.00    +0.000 A 
ATOM     21  C   UNL     1      -3.213  12.844  23.561  0.00  0.00    +0.000 A 
ATOM     22 CL   UNL     1      -4.742  12.713  24.340  0.00  0.00    +0.000 Cl
ATOM     23  C   UNL     1      -2.412  11.717  23.412  0.00  0.00    +0.000 A 
ATOM     24  C   UNL     1      -1.191  11.799  22.718  0.00  0.00    +0.000 A 
ATOM     25 CL   UNL     1      -0.325  10.311  22.553  0.00  0.00    +0.000 Cl
ENDBRANCH   7  18
BRANCH   3  26
ATOM     26  C   UNL     1       5.801  14.405  22.043  0.00  0.00    +0.000 C 
ATOM     27  C   UNL     1       5.877  15.763  22.760  0.00  0.00    +0.000 C 
ATOM     28  C   UNL     1       5.668  15.670  24.272  0.00  0.00    +0.000 C 
ATOM     29  C   UNL     1       6.608  14.656  24.915  0.00  0.00    +0.000 C 
ATOM     30  C   UNL     1       6.477  13.290  24.257  0.00  0.00    +0.000 C 
ATOM     31  C   UNL     1       6.692  13.363  22.746  0.00  0.00    +0.000 C 
ENDBRANCH   3  26
TORSDOF 3
ENDMDL
MODEL 5
REMARK VINA RESULT:      -7.8      1.895      4.539
REMARK  Name = 
REMARK  3 active torsions:
REMARK  status: ('A' for Active; 'I' for Inactive)
REMARK    1  A    between atoms: N_3  and  C_4
REMARK    2  A    between atoms: C_12  and  C_13
REMARK    3  A    between atoms: C_21  and  C_22
REMARK                            x       y       z     vdW  Elec       q    Type
REMARK                         _______ _______ _______ _____ _____    ______ ____
ROOT
ATOM      1  O   UNL     1       1.996   8.639  21.850  0.00  0.00    +0.000 OA
ATOM      2  C   UNL     1       1.473   8.647  20.743  0.00  0.00    +0.000 C 
ATOM      3  N   UNL     1       1.650   7.703  19.737  0.00  0.00    +0.000 N 
ATOM      4  N   UNL     1       0.639   9.729  20.343  0.00  0.00    +0.000 N 
ATOM      5  N   UNL     1       0.974  11.013  20.609  0.00  0.00    +0.000 NA
ATOM      6  C   UNL     1      -0.008  11.717  20.030  0.00  0.00    +0.000 A 
ATOM      7  C   UNL     1      -0.990  10.792  19.506  0.00  0.00    +0.000 A 
ATOM      8  N   UNL     1      -0.494   9.544  19.612  0.00  0.00    +0.000 NA
ATOM      9  H   UNL     1       1.267   7.903  18.818  0.00  0.00    +0.000 HD
ENDROOT
BRANCH   6  10
ATOM     10  C   UNL     1       0.055  13.188  19.926  0.00  0.00    +0.000 A 
ATOM     11  C   UNL     1      -0.805  13.951  20.745  0.00  0.00    +0.000 A 
ATOM     12  C   UNL     1      -0.785  15.348  20.731  0.00  0.00    +0.000 A 
ATOM     13  C   UNL     1       0.052  16.012  19.848  0.00  0.00    +0.000 A 
ATOM     14 CL   UNL     1       0.059  17.731  19.812  0.00  0.00    +0.000 Cl
ATOM     15  C   UNL     1       0.881  15.291  18.994  0.00  0.00    +0.000 A 
ATOM     16  C   UNL     1       0.897  13.887  19.039  0.00  0.00    +0.000 A 
ATOM     17 CL   UNL     1       2.030  13.116  17.982  0.00  0.00    +0.000 Cl
ENDBRANCH   6  10
BRANCH   7  18
ATOM     18  C   UNL     1      -2.309  11.076  18.906  0.00  0.00    +0.000 A 
ATOM     19  C   UNL     1      -3.227  11.876  19.626  0.00  0.00    +0.000 A 
ATOM     20  C   UNL     1      -4.433  12.306  19.066  0.00  0.00    +0.000 A 
ATOM     21  C   UNL     1      -4.778  11.882  17.788  0.00  0.00    +0.000 A 
ATOM     22 CL   UNL     1      -6.246  12.427  17.074  0.00  0.00    +0.000 Cl
ATOM     23  C   UNL     1      -3.934  11.036  17.078  0.00  0.00    +0.000 A 
ATOM     24  C   UNL     1      -2.700  10.638  17.625  0.00  0.00    +0.000 A 
ATOM     25 CL   UNL     1      -1.722   9.636  16.609  0.00  0.00    +0.000 Cl
ENDBRANCH   7  18
BRANCH   3  26
ATOM     26  C   UNL     1       2.504   6.535  19.947  0.00  0.00    +0.000 C 
ATOM     27  C   UNL     1       1.822   5.472  20.823  0.00  0.00    +0.000 C 
ATOM     28  C   UNL     1       0.794   4.626  20.071  0.00  0.00    +0.000 C 
ATOM     29  C   UNL     1       1.383   4.004  18.810  0.00  0.00    +0.000 C 
ATOM     30  C   UNL     1       1.990   5.065  17.903  0.00  0.00    +0.000 C 
ATOM     31  C   UNL     1       3.026   5.915  18.637  0.00  0.00    +0.000 C 
ENDBRANCH   3  26
TORSDOF 3
ENDMDL
MODEL 6
REMARK VINA RESULT:      -7.7      4.700      8.149
REMARK  Name = 
REMARK  3 active torsions:
REMARK  status: ('A' for Active; 'I' for Inactive)
REMARK    1  A    between atoms: N_3  and  C_4
REMARK    2  A    between atoms: C_12  and  C_13
REMARK    3  A    between atoms: C_21  and  C_22
REMARK                            x       y       z     vdW  Elec       q    Type
REMARK                         _______ _______ _______ _____ _____    ______ ____
ROOT
ATOM      1  O   UNL     1      -6.185  12.250  22.494  0.00  0.00    +0.000 OA
ATOM      2  C   UNL     1      -5.433  13.136  22.109  0.00  0.00    +0.000 C 
ATOM      3  N   UNL     1      -5.516  14.488  22.425  0.00  0.00    +0.000 N 
ATOM      4  N   UNL     1      -4.383  12.848  21.192  0.00  0.00    +0.000 N 
ATOM      5  N   UNL     1      -4.579  12.034  20.128  0.00  0.00    +0.000 NA
ATOM      6  C   UNL     1      -3.402  12.067  19.490  0.00  0.00    +0.000 A 
ATOM      7  C   UNL     1      -2.472  12.847  20.279  0.00  0.00    +0.000 A 
ATOM      8  N   UNL     1      -3.155  13.427  21.286  0.00  0.00    +0.000 NA
ATOM      9  H   UNL     1      -4.912  15.136  21.927  0.00  0.00    +0.000 HD
ENDROOT
BRANCH   6  10
ATOM     10  C   UNL     1      -3.226  11.446  18.163  0.00  0.00    +0.000 A 
ATOM     11  C   UNL     1      -4.128  11.800  17.137  0.00  0.00    +0.000 A 
ATOM     12  C   UNL     1      -4.010  11.283  15.844  0.00  0.00    +0.000 A 
ATOM     13  C   UNL     1      -3.025  10.347  15.568  0.00  0.00    +0.000 A 
ATOM     14 CL   UNL     1      -2.895   9.690  13.984  0.00  0.00    +0.000 Cl
ATOM     15  C   UNL     1      -2.146   9.941  16.568  0.00  0.00    +0.000 A 
ATOM     16  C   UNL     1      -2.233  10.495  17.856  0.00  0.00    +0.000 A 
ATOM     17 CL   UNL     1      -1.031   9.963  18.982  0.00  0.00    +0.000 Cl
ENDBRANCH   6  10
BRANCH   7  18
ATOM     18  C   UNL     1      -1.025  13.060  20.072  0.00  0.00    +0.000 A 
ATOM     19  C   UNL     1      -0.603  13.860  18.984  0.00  0.00    +0.000 A 
ATOM     20  C   UNL     1       0.735  14.223  18.808  0.00  0.00    +0.000 A 
ATOM     21  C   UNL     1       1.694  13.732  19.687  0.00  0.00    +0.000 A 
ATOM     22 CL   UNL     1       3.341  14.194  19.500  0.00  0.00    +0.000 Cl
ATOM     23  C   UNL     1       1.326  12.884  20.725  0.00  0.00    +0.000 A 
ATOM     24  C   UNL     1      -0.026  12.553  20.928  0.00  0.00    +0.000 A 
ATOM     25 CL   UNL     1      -0.350  11.540  22.292  0.00  0.00    +0.000 Cl
ENDBRANCH   7  18
BRANCH   3  26
ATOM     26  C   UNL     1      -6.554  14.985  23.326  0.00  0.00    +0.000 C 
ATOM     27  C   UNL     1      -6.049  16.137  24.209  0.00  0.00    +0.000 C 
ATOM     28  C   UNL     1      -5.987  17.482  23.485  0.00  0.00    +0.000 C 
ATOM     29  C   UNL     1      -7.316  17.837  22.828  0.00  0.00    +0.000 C 
ATOM     30  C   UNL     1      -7.780  16.730  21.892  0.00  0.00    +0.000 C 
ATOM     31  C   UNL     1      -7.856  15.379  22.601  0.00  0.00    +0.000 C 
ENDBRANCH   3  26
TORSDOF 3
ENDMDL
MODEL 7
REMARK VINA RESULT:      -7.6      1.868      4.707
REMARK  Name = 
REMARK  3 active torsions:
REMARK  status: ('A' for Active; 'I' for Inactive)
REMARK    1  A    between atoms: N_3  and  C_4
REMARK    2  A    between atoms: C_12  and  C_13
REMARK    3  A    between atoms: C_21  and  C_22
REMARK                            x       y       z     vdW  Elec       q    Type
REMARK                         _______ _______ _______ _____ _____    ______ ____
ROOT
ATOM      1  O   UNL     1       1.994   8.287  22.139  0.00  0.00    +0.000 OA
ATOM      2  C   UNL     1       1.604   8.488  20.996  0.00  0.00    +0.000 C 
ATOM      3  N   UNL     1       1.879   7.706  19.879  0.00  0.00    +0.000 N 
ATOM      4  N   UNL     1       0.842   9.648  20.682  0.00  0.00    +0.000 N 
ATOM      5  N   UNL     1       1.168  10.862  21.185  0.00  0.00    +0.000 NA
ATOM      6  C   UNL     1       0.273  11.683  20.619  0.00  0.00    +0.000 A 
ATOM      7  C   UNL     1      -0.658  10.888  19.848  0.00  0.00    +0.000 A 
ATOM      8  N   UNL     1      -0.201   9.622  19.809  0.00  0.00    +0.000 NA
ATOM      9  H   UNL     1       1.609   8.061  18.966  0.00  0.00    +0.000 HD
ENDROOT
BRANCH   6  10
ATOM     10  C   UNL     1       0.375  13.149  20.759  0.00  0.00    +0.000 A 
ATOM     11  C   UNL     1       0.025  13.726  21.999  0.00  0.00    +0.000 A 
ATOM     12  C   UNL     1       0.124  15.102  22.223  0.00  0.00    +0.000 A 
ATOM     13  C   UNL     1       0.515  15.939  21.189  0.00  0.00    +0.000 A 
ATOM     14 CL   UNL     1       0.612  17.634  21.456  0.00  0.00    +0.000 Cl
ATOM     15  C   UNL     1       0.824  15.408  19.940  0.00  0.00    +0.000 A 
ATOM     16  C   UNL     1       0.769  14.021  19.725  0.00  0.00    +0.000 A 
ATOM     17 CL   UNL     1       1.255  13.487  18.152  0.00  0.00    +0.000 Cl
ENDBRANCH   6  10
BRANCH   7  18
ATOM     18  C   UNL     1      -1.894  11.311  19.158  0.00  0.00    +0.000 A 
ATOM     19  C   UNL     1      -2.030  11.037  17.776  0.00  0.00    +0.000 A 
ATOM     20  C   UNL     1      -3.223  11.275  17.088  0.00  0.00    +0.000 A 
ATOM     21  C   UNL     1      -4.289  11.862  17.761  0.00  0.00    +0.000 A 
ATOM     22 CL   UNL     1      -5.774  12.134  16.935  0.00  0.00    +0.000 Cl
ATOM     23  C   UNL     1      -4.167  12.211  19.100  0.00  0.00    +0.000 A 
ATOM     24  C   UNL     1      -2.981  11.932  19.803  0.00  0.00    +0.000 A 
ATOM     25 CL   UNL     1      -2.987  12.364  21.479  0.00  0.00    +0.000 Cl
ENDBRANCH   7  18
BRANCH   3  26
ATOM     26  C   UNL     1       2.680   6.489  19.994  0.00  0.00    +0.000 C 
ATOM     27  C   UNL     1       1.969   5.406  20.821  0.00  0.00    +0.000 C 
ATOM     28  C   UNL     1       0.885   4.658  20.046  0.00  0.00    +0.000 C 
ATOM     29  C   UNL     1       1.413   4.088  18.734  0.00  0.00    +0.000 C 
ATOM     30  C   UNL     1       2.048   5.175  17.878  0.00  0.00    +0.000 C 
ATOM     31  C   UNL     1       3.141   5.928  18.635  0.00  0.00    +0.000 C 
ENDBRANCH   3  26
TORSDOF 3
ENDMDL
MODEL 8
REMARK VINA RESULT:      -7.6      1.892      4.862
REMARK  Name = 
REMARK  3 active torsions:
REMARK  status: ('A' for Active; 'I' for Inactive)
REMARK    1  A    between atoms: N_3  and  C_4
REMARK    2  A    between atoms: C_12  and  C_13
REMARK    3  A    between atoms: C_21  and  C_22
REMARK                            x       y       z     vdW  Elec       q    Type
REMARK                         _______ _______ _______ _____ _____    ______ ____
ROOT
ATOM      1  O   UNL     1       1.960   8.605  22.143  0.00  0.00    +0.000 OA
ATOM      2  C   UNL     1       1.517   8.691  21.005  0.00  0.00    +0.000 C 
ATOM      3  N   UNL     1       1.741   7.800  19.961  0.00  0.00    +0.000 N 
ATOM      4  N   UNL     1       0.741   9.817  20.611  0.00  0.00    +0.000 N 
ATOM      5  N   UNL     1       1.088  11.074  20.974  0.00  0.00    +0.000 NA
ATOM      6  C   UNL     1       0.168  11.837  20.370  0.00  0.00    +0.000 A 
ATOM      7  C   UNL     1      -0.797  10.972  19.726  0.00  0.00    +0.000 A 
ATOM      8  N   UNL     1      -0.342   9.706  19.794  0.00  0.00    +0.000 NA
ATOM      9  H   UNL     1       1.429   8.062  19.030  0.00  0.00    +0.000 HD
ENDROOT
BRANCH   6  10
ATOM     10  C   UNL     1       0.275  13.310  20.357  0.00  0.00    +0.000 A 
ATOM     11  C   UNL     1       0.715  13.936  19.171  0.00  0.00    +0.000 A 
ATOM     12  C   UNL     1       0.812  15.326  19.067  0.00  0.00    +0.000 A 
ATOM     13  C   UNL     1       0.532  16.117  20.171  0.00  0.00    +0.000 A 
ATOM     14 CL   UNL     1       0.676  17.827  20.051  0.00  0.00    +0.000 Cl
ATOM     15  C   UNL     1       0.139  15.530  21.370  0.00  0.00    +0.000 A 
ATOM     16  C   UNL     1      -0.004  14.136  21.464  0.00  0.00    +0.000 A 
ATOM     17 CL   UNL     1      -0.575  13.543  22.986  0.00  0.00    +0.000 Cl
ENDBRANCH   6  10
BRANCH   7  18
ATOM     18  C   UNL     1      -2.063  11.328  19.054  0.00  0.00    +0.000 A 
ATOM     19  C   UNL     1      -2.234  10.979  17.693  0.00  0.00    +0.000 A 
ATOM     20  C   UNL     1      -3.453  11.152  17.032  0.00  0.00    +0.000 A 
ATOM     21  C   UNL     1      -4.513  11.747  17.706  0.00  0.00    +0.000 A 
ATOM     22 CL   UNL     1      -6.029  11.940  16.914  0.00  0.00    +0.000 Cl
ATOM     23  C   UNL     1      -4.360  12.169  19.021  0.00  0.00    +0.000 A 
ATOM     24  C   UNL     1      -3.147  11.956  19.700  0.00  0.00    +0.000 A 
ATOM     25 CL   UNL     1      -3.113  12.475  21.350  0.00  0.00    +0.000 Cl
ENDBRANCH   7  18
BRANCH   3  26
ATOM     26  C   UNL     1       2.548   6.598  20.161  0.00  0.00    +0.000 C 
ATOM     27  C   UNL     1       1.759   5.485  20.868  0.00  0.00    +0.000 C 
ATOM     28  C   UNL     1       0.803   4.729  19.945  0.00  0.00    +0.000 C 
ATOM     29  C   UNL     1       1.513   4.196  18.705  0.00  0.00    +0.000 C 
ATOM     30  C   UNL     1       2.230   5.312  17.959  0.00  0.00    +0.000 C 
ATOM     31  C   UNL     1       3.196   6.072  18.866  0.00  0.00    +0.000 C 
ENDBRANCH   3  26
TORSDOF 3
ENDMDL
MODEL 9
REMARK VINA RESULT:      -7.5      3.872      7.891
REMARK  Name = 
REMARK  3 active torsions:
REMARK  status: ('A' for Active; 'I' for Inactive)
REMARK    1  A    between atoms: N_3  and  C_4
REMARK    2  A    between atoms: C_12  and  C_13
REMARK    3  A    between atoms: C_21  and  C_22
REMARK                            x       y       z     vdW  Elec       q    Type
REMARK                         _______ _______ _______ _____ _____    ______ ____
ROOT
ATOM      1  O   UNL     1      -3.416  11.884  23.820  0.00  0.00    +0.000 OA
ATOM      2  C   UNL     1      -3.187  12.583  22.841  0.00  0.00    +0.000 C 
ATOM      3  N   UNL     1      -4.039  13.530  22.282  0.00  0.00    +0.000 N 
ATOM      4  N   UNL     1      -1.979  12.426  22.105  0.00  0.00    +0.000 N 
ATOM      5  N   UNL     1      -1.483  11.200  21.815  0.00  0.00    +0.000 NA
ATOM      6  C   UNL     1      -0.400  11.469  21.075  0.00  0.00    +0.000 A 
ATOM      7  C   UNL     1      -0.217  12.905  21.032  0.00  0.00    +0.000 A 
ATOM      8  N   UNL     1      -1.297  13.485  21.590  0.00  0.00    +0.000 NA
ATOM      9  H   UNL     1      -3.782  13.940  21.389  0.00  0.00    +0.000 HD
ENDROOT
BRANCH   6  10
ATOM     10  C   UNL     1       0.354  10.400  20.392  0.00  0.00    +0.000 A 
ATOM     11  C   UNL     1       0.422  10.427  18.983  0.00  0.00    +0.000 A 
ATOM     12  C   UNL     1       1.143   9.471  18.263  0.00  0.00    +0.000 A 
ATOM     13  C   UNL     1       1.757   8.425  18.937  0.00  0.00    +0.000 A 
ATOM     14 CL   UNL     1       2.622   7.233  18.050  0.00  0.00    +0.000 Cl
ATOM     15  C   UNL     1       1.671   8.342  20.323  0.00  0.00    +0.000 A 
ATOM     16  C   UNL     1       0.987   9.328  21.053  0.00  0.00    +0.000 A 
ATOM     17 CL   UNL     1       1.025   9.148  22.774  0.00  0.00    +0.000 Cl
ENDBRANCH   6  10
BRANCH   7  18
ATOM     18  C   UNL     1       0.902  13.684  20.464  0.00  0.00    +0.000 A 
ATOM     19  C   UNL     1       2.005  13.997  21.294  0.00  0.00    +0.000 A 
ATOM     20  C   UNL     1       3.160  14.603  20.793  0.00  0.00    +0.000 A 
ATOM     21  C   UNL     1       3.207  14.973  19.454  0.00  0.00    +0.000 A 
ATOM     22 CL   UNL     1       4.634  15.693  18.816  0.00  0.00    +0.000 Cl
ATOM     23  C   UNL     1       2.115  14.746  18.625  0.00  0.00    +0.000 A 
ATOM     24  C   UNL     1       0.969  14.098  19.119  0.00  0.00    +0.000 A 
ATOM     25 CL   UNL     1      -0.291  13.825  17.965  0.00  0.00    +0.000 Cl
ENDBRANCH   7  18
BRANCH   3  26
ATOM     26  C   UNL     1      -5.345  13.806  22.877  0.00  0.00    +0.000 C 
ATOM     27  C   UNL     1      -5.834  15.228  22.557  0.00  0.00    +0.000 C 
ATOM     28  C   UNL     1      -6.408  15.376  21.148  0.00  0.00    +0.000 C 
ATOM     29  C   UNL     1      -7.494  14.345  20.864  0.00  0.00    +0.000 C 
ATOM     30  C   UNL     1      -6.987  12.930  21.105  0.00  0.00    +0.000 C 
ATOM     31  C   UNL     1      -6.417  12.762  22.512  0.00  0.00    +0.000 C 
ENDBRANCH   3  26
TORSDOF 3
ENDMDL
