MODEL 1
REMARK VINA RESULT:      -8.4      0.000      0.000
REMARK  Name = 
REMARK  2 active torsions:
REMARK  status: ('A' for Active; 'I' for Inactive)
REMARK    1  A    between atoms: C_2  and  C_22
REMARK    2  A    between atoms: N_3  and  N_4
REMARK                            x       y       z     vdW  Elec       q    Type
REMARK                         _______ _______ _______ _____ _____    ______ ____
ROOT
ATOM      1  N   UNL     1       3.304   7.702  17.393  0.00  0.00    +0.000 NA
ATOM      2  C   UNL     1       3.754   6.492  17.476  0.00  0.00    +0.000 C 
ATOM      3  C   UNL     1       4.756   5.937  16.523  0.00  0.00    +0.000 A 
ATOM      4  C   UNL     1       5.370   6.527  15.435  0.00  0.00    +0.000 A 
ATOM      5  C   UNL     1       6.281   5.748  14.714  0.00  0.00    +0.000 A 
ATOM      6  C   UNL     1       6.555   4.416  15.090  0.00  0.00    +0.000 A 
ATOM      7  C   UNL     1       5.921   3.838  16.195  0.00  0.00    +0.000 A 
ATOM      8  C   UNL     1       5.020   4.611  16.907  0.00  0.00    +0.000 A 
ATOM      9  C   UNL     1       4.226   4.307  18.063  0.00  0.00    +0.000 A 
ATOM     10  N   UNL     1       4.197   3.144  18.725  0.00  0.00    +0.000 NA
ATOM     11  C   UNL     1       3.356   3.133  19.782  0.00  0.00    +0.000 A 
ATOM     12  C   UNL     1       3.254   1.972  20.532  0.00  0.00    +0.000 A 
ATOM     13  C   UNL     1       2.404   1.894  21.635  0.00  0.00    +0.000 A 
ATOM     14  C   UNL     1       1.643   2.998  21.996  0.00  0.00    +0.000 A 
ATOM     15  C   UNL     1       1.728   4.178  21.254  0.00  0.00    +0.000 A 
ATOM     16  C   UNL     1       2.566   4.281  20.152  0.00  0.00    +0.000 A 
ATOM     17  N   UNL     1       2.610   5.449  19.468  0.00  0.00    +0.000 NA
ATOM     18  C   UNL     1       3.461   5.406  18.428  0.00  0.00    +0.000 A 
ENDROOT
BRANCH   1  21
ATOM     19  O   UNL     1       2.220  10.219  17.308  0.00  0.00    +0.000 OA
ATOM     20  C   UNL     1       1.892   9.428  18.192  0.00  0.00    +0.000 C 
ATOM     21  N   UNL     1       2.382   8.131  18.310  0.00  0.00    +0.000 N 
ATOM     22  H   UNL     1       2.026   7.470  18.997  0.00  0.00    +0.000 HD
BRANCH  20  23
ATOM     23  C   UNL     1       0.895   9.884  19.198  0.00  0.00    +0.000 A 
ATOM     24  C   UNL     1       0.048  10.948  18.840  0.00  0.00    +0.000 A 
ATOM     25  C   UNL     1      -0.828  11.507  19.773  0.00  0.00    +0.000 A 
ATOM     26  C   UNL     1      -0.862  11.009  21.073  0.00  0.00    +0.000 A 
ATOM     27  C   UNL     1      -0.035   9.945  21.433  0.00  0.00    +0.000 A 
ATOM     28  C   UNL     1       0.844   9.377  20.501  0.00  0.00    +0.000 A 
ENDBRANCH  20  23
ENDBRANCH   1  21
TORSDOF 2
ENDMDL
MODEL 2
REMARK VINA RESULT:      -8.4      3.680      9.542
REMARK  Name = 
REMARK  2 active torsions:
REMARK  status: ('A' for Active; 'I' for Inactive)
REMARK    1  A    between atoms: C_2  and  C_22
REMARK    2  A    between atoms: N_3  and  N_4
REMARK                            x       y       z     vdW  Elec       q    Type
REMARK                         _______ _______ _______ _____ _____    ______ ____
ROOT
ATOM      1  N   UNL     1       0.347  11.309  21.681  0.00  0.00    +0.000 NA
ATOM      2  C   UNL     1      -0.786  11.784  21.279  0.00  0.00    +0.000 C 
ATOM      3  C   UNL     1      -1.586  12.751  22.083  0.00  0.00    +0.000 A 
ATOM      4  C   UNL     1      -1.328  13.304  23.323  0.00  0.00    +0.000 A 
ATOM      5  C   UNL     1      -2.275  14.196  23.836  0.00  0.00    +0.000 A 
ATOM      6  C   UNL     1      -3.444  14.510  23.111  0.00  0.00    +0.000 A 
ATOM      7  C   UNL     1      -3.686  13.938  21.858  0.00  0.00    +0.000 A 
ATOM      8  C   UNL     1      -2.746  13.057  21.351  0.00  0.00    +0.000 A 
ATOM      9  C   UNL     1      -2.711  12.322  20.119  0.00  0.00    +0.000 A 
ATOM     10  N   UNL     1      -3.638  12.345  19.153  0.00  0.00    +0.000 NA
ATOM     11  C   UNL     1      -3.352  11.553  18.097  0.00  0.00    +0.000 A 
ATOM     12  C   UNL     1      -4.251  11.506  17.044  0.00  0.00    +0.000 A 
ATOM     13  C   UNL     1      -4.016  10.710  15.923  0.00  0.00    +0.000 A 
ATOM     14  C   UNL     1      -2.858   9.946  15.854  0.00  0.00    +0.000 A 
ATOM     15  C   UNL     1      -1.938   9.976  16.904  0.00  0.00    +0.000 A 
ATOM     16  C   UNL     1      -2.149  10.760  18.030  0.00  0.00    +0.000 A 
ATOM     17  N   UNL     1      -1.224  10.752  19.020  0.00  0.00    +0.000 NA
ATOM     18  C   UNL     1      -1.557  11.555  20.045  0.00  0.00    +0.000 A 
ENDROOT
BRANCH   1  21
ATOM     19  O   UNL     1       0.111   8.595  21.993  0.00  0.00    +0.000 OA
ATOM     20  C   UNL     1       0.839   9.062  21.117  0.00  0.00    +0.000 C 
ATOM     21  N   UNL     1       1.015  10.421  20.880  0.00  0.00    +0.000 N 
ATOM     22  H   UNL     1       1.554  10.776  20.093  0.00  0.00    +0.000 HD
BRANCH  20  23
ATOM     23  C   UNL     1       1.576   8.107  20.244  0.00  0.00    +0.000 A 
ATOM     24  C   UNL     1       1.918   8.538  18.951  0.00  0.00    +0.000 A 
ATOM     25  C   UNL     1       2.501   7.658  18.036  0.00  0.00    +0.000 A 
ATOM     26  C   UNL     1       2.744   6.338  18.407  0.00  0.00    +0.000 A 
ATOM     27  C   UNL     1       2.419   5.905  19.694  0.00  0.00    +0.000 A 
ATOM     28  C   UNL     1       1.837   6.784  20.617  0.00  0.00    +0.000 A 
ENDBRANCH  20  23
ENDBRANCH   1  21
TORSDOF 2
ENDMDL
MODEL 3
REMARK VINA RESULT:      -8.2      3.322      9.366
REMARK  Name = 
REMARK  2 active torsions:
REMARK  status: ('A' for Active; 'I' for Inactive)
REMARK    1  A    between atoms: C_2  and  C_22
REMARK    2  A    between atoms: N_3  and  N_4
REMARK                            x       y       z     vdW  Elec       q    Type
REMARK                         _______ _______ _______ _____ _____    ______ ____
ROOT
ATOM      1  N   UNL     1       0.504  10.693  20.985  0.00  0.00    +0.000 NA
ATOM      2  C   UNL     1      -0.619  11.251  20.668  0.00  0.00    +0.000 C 
ATOM      3  C   UNL     1      -1.330  12.202  21.568  0.00  0.00    +0.000 A 
ATOM      4  C   UNL     1      -0.989  12.658  22.826  0.00  0.00    +0.000 A 
ATOM      5  C   UNL     1      -1.864  13.561  23.438  0.00  0.00    +0.000 A 
ATOM      6  C   UNL     1      -3.044  13.982  22.790  0.00  0.00    +0.000 A 
ATOM      7  C   UNL     1      -3.370  13.507  21.516  0.00  0.00    +0.000 A 
ATOM      8  C   UNL     1      -2.503  12.614  20.912  0.00  0.00    +0.000 A 
ATOM      9  C   UNL     1      -2.561  11.960  19.635  0.00  0.00    +0.000 A 
ATOM     10  N   UNL     1      -3.526  12.094  18.717  0.00  0.00    +0.000 NA
ATOM     11  C   UNL     1      -3.328  11.360  17.600  0.00  0.00    +0.000 A 
ATOM     12  C   UNL     1      -4.273  11.429  16.589  0.00  0.00    +0.000 A 
ATOM     13  C   UNL     1      -4.131  10.696  15.411  0.00  0.00    +0.000 A 
ATOM     14  C   UNL     1      -3.020   9.880  15.240  0.00  0.00    +0.000 A 
ATOM     15  C   UNL     1      -2.055   9.795  16.245  0.00  0.00    +0.000 A 
ATOM     16  C   UNL     1      -2.174  10.513  17.427  0.00  0.00    +0.000 A 
ATOM     17  N   UNL     1      -1.209  10.392  18.370  0.00  0.00    +0.000 NA
ATOM     18  C   UNL     1      -1.454  11.142  19.458  0.00  0.00    +0.000 A 
ENDROOT
BRANCH   1  21
ATOM     19  O   UNL     1       1.189   8.130  21.681  0.00  0.00    +0.000 OA
ATOM     20  C   UNL     1       1.407   8.548  20.544  0.00  0.00    +0.000 C 
ATOM     21  N   UNL     1       1.088   9.827  20.099  0.00  0.00    +0.000 N 
ATOM     22  H   UNL     1       1.199  10.114  19.129  0.00  0.00    +0.000 HD
BRANCH  20  23
ATOM     23  C   UNL     1       2.047   7.618  19.574  0.00  0.00    +0.000 A 
ATOM     24  C   UNL     1       2.229   6.283  19.974  0.00  0.00    +0.000 A 
ATOM     25  C   UNL     1       2.929   5.385  19.165  0.00  0.00    +0.000 A 
ATOM     26  C   UNL     1       3.456   5.816  17.950  0.00  0.00    +0.000 A 
ATOM     27  C   UNL     1       3.268   7.136  17.540  0.00  0.00    +0.000 A 
ATOM     28  C   UNL     1       2.564   8.041  18.345  0.00  0.00    +0.000 A 
ENDBRANCH  20  23
ENDBRANCH   1  21
TORSDOF 2
ENDMDL
MODEL 4
REMARK VINA RESULT:      -7.5      4.687     10.714
REMARK  Name = 
REMARK  2 active torsions:
REMARK  status: ('A' for Active; 'I' for Inactive)
REMARK    1  A    between atoms: C_2  and  C_22
REMARK    2  A    between atoms: N_3  and  N_4
REMARK                            x       y       z     vdW  Elec       q    Type
REMARK                         _______ _______ _______ _____ _____    ______ ____
ROOT
ATOM      1  N   UNL     1      -0.175  12.661  22.033  0.00  0.00    +0.000 NA
ATOM      2  C   UNL     1      -1.399  13.076  22.025  0.00  0.00    +0.000 C 
ATOM      3  C   UNL     1      -1.961  13.950  23.093  0.00  0.00    +0.000 A 
ATOM      4  C   UNL     1      -1.363  14.464  24.228  0.00  0.00    +0.000 A 
ATOM      5  C   UNL     1      -2.151  15.266  25.059  0.00  0.00    +0.000 A 
ATOM      6  C   UNL     1      -3.500  15.534  24.744  0.00  0.00    +0.000 A 
ATOM      7  C   UNL     1      -4.086  15.003  23.591  0.00  0.00    +0.000 A 
ATOM      8  C   UNL     1      -3.304  14.210  22.768  0.00  0.00    +0.000 A 
ATOM      9  C   UNL     1      -3.612  13.535  21.540  0.00  0.00    +0.000 A 
ATOM     10  N   UNL     1      -4.790  13.539  20.904  0.00  0.00    +0.000 NA
ATOM     11  C   UNL     1      -4.802  12.816  19.764  0.00  0.00    +0.000 A 
ATOM     12  C   UNL     1      -5.978  12.756  19.032  0.00  0.00    +0.000 A 
ATOM     13  C   UNL     1      -6.058  12.027  17.846  0.00  0.00    +0.000 A 
ATOM     14  C   UNL     1      -4.940  11.346  17.381  0.00  0.00    +0.000 A 
ATOM     15  C   UNL     1      -3.745  11.391  18.101  0.00  0.00    +0.000 A 
ATOM     16  C   UNL     1      -3.640  12.108  19.285  0.00  0.00    +0.000 A 
ATOM     17  N   UNL     1      -2.457  12.118  19.944  0.00  0.00    +0.000 NA
ATOM     18  C   UNL     1      -2.500  12.851  21.071  0.00  0.00    +0.000 A 
ENDROOT
BRANCH   1  21
ATOM     19  O   UNL     1       0.501  10.033  22.430  0.00  0.00    +0.000 OA
ATOM     20  C   UNL     1       0.586  10.537  21.310  0.00  0.00    +0.000 C 
ATOM     21  N   UNL     1       0.259  11.856  21.012  0.00  0.00    +0.000 N 
ATOM     22  H   UNL     1       0.255  12.220  20.062  0.00  0.00    +0.000 HD
BRANCH  20  23
ATOM     23  C   UNL     1       1.062   9.675  20.194  0.00  0.00    +0.000 A 
ATOM     24  C   UNL     1       1.539   8.393  20.519  0.00  0.00    +0.000 A 
ATOM     25  C   UNL     1       2.112   7.576  19.542  0.00  0.00    +0.000 A 
ATOM     26  C   UNL     1       2.216   8.035  18.232  0.00  0.00    +0.000 A 
ATOM     27  C   UNL     1       1.733   9.301  17.898  0.00  0.00    +0.000 A 
ATOM     28  C   UNL     1       1.154  10.125  18.873  0.00  0.00    +0.000 A 
ENDBRANCH  20  23
ENDBRANCH   1  21
TORSDOF 2
ENDMDL
MODEL 5
REMARK VINA RESULT:      -7.1      3.727      9.920
REMARK  Name = 
REMARK  2 active torsions:
REMARK  status: ('A' for Active; 'I' for Inactive)
REMARK    1  A    between atoms: C_2  and  C_22
REMARK    2  A    between atoms: N_3  and  N_4
REMARK                            x       y       z     vdW  Elec       q    Type
REMARK                         _______ _______ _______ _____ _____    ______ ____
ROOT
ATOM      1  N   UNL     1      -0.809  10.377  21.176  0.00  0.00    +0.000 NA
ATOM      2  C   UNL     1      -0.608  11.638  21.383  0.00  0.00    +0.000 C 
ATOM      3  C   UNL     1      -1.383  12.425  22.382  0.00  0.00    +0.000 A 
ATOM      4  C   UNL     1      -2.398  12.029  23.233  0.00  0.00    +0.000 A 
ATOM      5  C   UNL     1      -2.945  13.003  24.073  0.00  0.00    +0.000 A 
ATOM      6  C   UNL     1      -2.475  14.333  24.046  0.00  0.00    +0.000 A 
ATOM      7  C   UNL     1      -1.447  14.712  23.178  0.00  0.00    +0.000 A 
ATOM      8  C   UNL     1      -0.906  13.746  22.347  0.00  0.00    +0.000 A 
ATOM      9  C   UNL     1       0.138  13.825  21.365  0.00  0.00    +0.000 A 
ATOM     10  N   UNL     1       0.840  14.917  21.037  0.00  0.00    +0.000 NA
ATOM     11  C   UNL     1       1.766  14.707  20.076  0.00  0.00    +0.000 A 
ATOM     12  C   UNL     1       2.545  15.776  19.665  0.00  0.00    +0.000 A 
ATOM     13  C   UNL     1       3.518  15.628  18.677  0.00  0.00    +0.000 A 
ATOM     14  C   UNL     1       3.717  14.385  18.090  0.00  0.00    +0.000 A 
ATOM     15  C   UNL     1       2.943  13.293  18.487  0.00  0.00    +0.000 A 
ATOM     16  C   UNL     1       1.968  13.415  19.467  0.00  0.00    +0.000 A 
ATOM     17  N   UNL     1       1.245  12.323  19.814  0.00  0.00    +0.000 NA
ATOM     18  C   UNL     1       0.340  12.587  20.773  0.00  0.00    +0.000 A 
ENDROOT
BRANCH   1  21
ATOM     19  O   UNL     1       1.121   8.549  21.853  0.00  0.00    +0.000 OA
ATOM     20  C   UNL     1       0.908   8.825  20.672  0.00  0.00    +0.000 C 
ATOM     21  N   UNL     1      -0.052   9.731  20.234  0.00  0.00    +0.000 N 
ATOM     22  H   UNL     1      -0.266   9.872  19.250  0.00  0.00    +0.000 HD
BRANCH  20  23
ATOM     23  C   UNL     1       1.728   8.134  19.640  0.00  0.00    +0.000 A 
ATOM     24  C   UNL     1       2.265   6.877  19.968  0.00  0.00    +0.000 A 
ATOM     25  C   UNL     1       3.141   6.226  19.097  0.00  0.00    +0.000 A 
ATOM     26  C   UNL     1       3.490   6.828  17.891  0.00  0.00    +0.000 A 
ATOM     27  C   UNL     1       2.951   8.070  17.551  0.00  0.00    +0.000 A 
ATOM     28  C   UNL     1       2.069   8.727  18.419  0.00  0.00    +0.000 A 
ENDBRANCH  20  23
ENDBRANCH   1  21
TORSDOF 2
ENDMDL
MODEL 6
REMARK VINA RESULT:      -7.1      5.261     11.175
REMARK  Name = 
REMARK  2 active torsions:
REMARK  status: ('A' for Active; 'I' for Inactive)
REMARK    1  A    between atoms: C_2  and  C_22
REMARK    2  A    between atoms: N_3  and  N_4
REMARK                            x       y       z     vdW  Elec       q    Type
REMARK                         _______ _______ _______ _____ _____    ______ ____
ROOT
ATOM      1  N   UNL     1      -1.031  13.016  22.592  0.00  0.00    +0.000 NA
ATOM      2  C   UNL     1      -2.231  13.418  22.325  0.00  0.00    +0.000 C 
ATOM      3  C   UNL     1      -2.986  14.347  23.213  0.00  0.00    +0.000 A 
ATOM      4  C   UNL     1      -2.617  14.930  24.410  0.00  0.00    +0.000 A 
ATOM      5  C   UNL     1      -3.549  15.771  25.027  0.00  0.00    +0.000 A 
ATOM      6  C   UNL     1      -4.812  16.007  24.444  0.00  0.00    +0.000 A 
ATOM      7  C   UNL     1      -5.165  15.406  23.232  0.00  0.00    +0.000 A 
ATOM      8  C   UNL     1      -4.241  14.575  22.622  0.00  0.00    +0.000 A 
ATOM      9  C   UNL     1      -4.308  13.827  21.399  0.00  0.00    +0.000 A 
ATOM     10  N   UNL     1      -5.343  13.784  20.549  0.00  0.00    +0.000 NA
ATOM     11  C   UNL     1      -5.136  12.997  19.471  0.00  0.00    +0.000 A 
ATOM     12  C   UNL     1      -6.149  12.884  18.533  0.00  0.00    +0.000 A 
ATOM     13  C   UNL     1      -6.001  12.088  17.397  0.00  0.00    +0.000 A 
ATOM     14  C   UNL     1      -4.816  11.392  17.195  0.00  0.00    +0.000 A 
ATOM     15  C   UNL     1      -3.781  11.490  18.128  0.00  0.00    +0.000 A 
ATOM     16  C   UNL     1      -3.905  12.274  19.267  0.00  0.00    +0.000 A 
ATOM     17  N   UNL     1      -2.870  12.333  20.139  0.00  0.00    +0.000 NA
ATOM     18  C   UNL     1      -3.128  13.128  21.192  0.00  0.00    +0.000 A 
ENDROOT
BRANCH   1  21
ATOM     19  O   UNL     1      -0.220  10.506  23.343  0.00  0.00    +0.000 OA
ATOM     20  C   UNL     1      -0.028  10.907  22.195  0.00  0.00    +0.000 C 
ATOM     21  N   UNL     1      -0.411  12.158  21.722  0.00  0.00    +0.000 N 
ATOM     22  H   UNL     1      -0.319  12.429  20.746  0.00  0.00    +0.000 HD
BRANCH  20  23
ATOM     23  C   UNL     1       0.652   9.987  21.242  0.00  0.00    +0.000 A 
ATOM     24  C   UNL     1       0.713  10.376  19.893  0.00  0.00    +0.000 A 
ATOM     25  C   UNL     1       1.227   9.512  18.923  0.00  0.00    +0.000 A 
ATOM     26  C   UNL     1       1.680   8.249  19.296  0.00  0.00    +0.000 A 
ATOM     27  C   UNL     1       1.635   7.860  20.635  0.00  0.00    +0.000 A 
ATOM     28  C   UNL     1       1.124   8.724  21.613  0.00  0.00    +0.000 A 
ENDBRANCH  20  23
ENDBRANCH   1  21
TORSDOF 2
ENDMDL
MODEL 7
REMARK VINA RESULT:      -7.0      4.547     10.526
REMARK  Name = 
REMARK  2 active torsions:
REMARK  status: ('A' for Active; 'I' for Inactive)
REMARK    1  A    between atoms: C_2  and  C_22
REMARK    2  A    between atoms: N_3  and  N_4
REMARK                            x       y       z     vdW  Elec       q    Type
REMARK                         _______ _______ _______ _____ _____    ______ ____
ROOT
ATOM      1  N   UNL     1      -1.417  11.295  21.622  0.00  0.00    +0.000 NA
ATOM      2  C   UNL     1      -1.125  12.447  22.132  0.00  0.00    +0.000 C 
ATOM      3  C   UNL     1      -2.002  13.138  23.118  0.00  0.00    +0.000 A 
ATOM      4  C   UNL     1      -3.213  12.748  23.658  0.00  0.00    +0.000 A 
ATOM      5  C   UNL     1      -3.815  13.615  24.574  0.00  0.00    +0.000 A 
ATOM      6  C   UNL     1      -3.204  14.837  24.927  0.00  0.00    +0.000 A 
ATOM      7  C   UNL     1      -1.978  15.213  24.369  0.00  0.00    +0.000 A 
ATOM      8  C   UNL     1      -1.384  14.352  23.462  0.00  0.00    +0.000 A 
ATOM      9  C   UNL     1      -0.152  14.456  22.732  0.00  0.00    +0.000 A 
ATOM     10  N   UNL     1       0.722  15.468  22.788  0.00  0.00    +0.000 NA
ATOM     11  C   UNL     1       1.802  15.306  21.993  0.00  0.00    +0.000 A 
ATOM     12  C   UNL     1       2.766  16.302  21.978  0.00  0.00    +0.000 A 
ATOM     13  C   UNL     1       3.905  16.197  21.181  0.00  0.00    +0.000 A 
ATOM     14  C   UNL     1       4.084  15.075  20.383  0.00  0.00    +0.000 A 
ATOM     15  C   UNL     1       3.126  14.059  20.380  0.00  0.00    +0.000 A 
ATOM     16  C   UNL     1       1.984  14.140  21.165  0.00  0.00    +0.000 A 
ATOM     17  N   UNL     1       1.086  13.126  21.124  0.00  0.00    +0.000 NA
ATOM     18  C   UNL     1       0.032  13.338  21.932  0.00  0.00    +0.000 A 
ENDROOT
BRANCH   1  21
ATOM     19  O   UNL     1      -0.022   8.998  22.168  0.00  0.00    +0.000 OA
ATOM     20  C   UNL     1       0.116   9.571  21.087  0.00  0.00    +0.000 C 
ATOM     21  N   UNL     1      -0.554  10.733  20.718  0.00  0.00    +0.000 N 
ATOM     22  H   UNL     1      -0.487  11.133  19.785  0.00  0.00    +0.000 HD
BRANCH  20  23
ATOM     23  C   UNL     1       1.056   8.972  20.099  0.00  0.00    +0.000 A 
ATOM     24  C   UNL     1       1.189   9.614  18.856  0.00  0.00    +0.000 A 
ATOM     25  C   UNL     1       1.959   9.046  17.838  0.00  0.00    +0.000 A 
ATOM     26  C   UNL     1       2.599   7.828  18.055  0.00  0.00    +0.000 A 
ATOM     27  C   UNL     1       2.482   7.191  19.291  0.00  0.00    +0.000 A 
ATOM     28  C   UNL     1       1.714   7.758  20.317  0.00  0.00    +0.000 A 
ENDBRANCH  20  23
ENDBRANCH   1  21
TORSDOF 2
ENDMDL
MODEL 8
REMARK VINA RESULT:      -7.0      4.485     10.573
REMARK  Name = 
REMARK  2 active torsions:
REMARK  status: ('A' for Active; 'I' for Inactive)
REMARK    1  A    between atoms: C_2  and  C_22
REMARK    2  A    between atoms: N_3  and  N_4
REMARK                            x       y       z     vdW  Elec       q    Type
REMARK                         _______ _______ _______ _____ _____    ______ ____
ROOT
ATOM      1  N   UNL     1       0.074  11.723  21.862  0.00  0.00    +0.000 NA
ATOM      2  C   UNL     1       0.085  13.010  21.733  0.00  0.00    +0.000 C 
ATOM      3  C   UNL     1      -0.704  13.916  22.614  0.00  0.00    +0.000 A 
ATOM      4  C   UNL     1      -1.549  13.619  23.666  0.00  0.00    +0.000 A 
ATOM      5  C   UNL     1      -2.161  14.693  24.318  0.00  0.00    +0.000 A 
ATOM      6  C   UNL     1      -1.920  16.023  23.911  0.00  0.00    +0.000 A 
ATOM      7  C   UNL     1      -1.061  16.301  22.844  0.00  0.00    +0.000 A 
ATOM      8  C   UNL     1      -0.455  15.236  22.200  0.00  0.00    +0.000 A 
ATOM      9  C   UNL     1       0.457  15.199  21.093  0.00  0.00    +0.000 A 
ATOM     10  N   UNL     1       0.936  16.254  20.421  0.00  0.00    +0.000 NA
ATOM     11  C   UNL     1       1.781  15.931  19.419  0.00  0.00    +0.000 A 
ATOM     12  C   UNL     1       2.330  16.953  18.662  0.00  0.00    +0.000 A 
ATOM     13  C   UNL     1       3.210  16.689  17.613  0.00  0.00    +0.000 A 
ATOM     14  C   UNL     1       3.549  15.375  17.316  0.00  0.00    +0.000 A 
ATOM     15  C   UNL     1       3.008  14.328  18.064  0.00  0.00    +0.000 A 
ATOM     16  C   UNL     1       2.130  14.565  19.113  0.00  0.00    +0.000 A 
ATOM     17  N   UNL     1       1.634  13.512  19.806  0.00  0.00    +0.000 NA
ATOM     18  C   UNL     1       0.799  13.889  20.790  0.00  0.00    +0.000 A 
ENDROOT
BRANCH   1  21
ATOM     19  O   UNL     1      -0.337   9.030  21.550  0.00  0.00    +0.000 OA
ATOM     20  C   UNL     1       0.551   9.603  20.919  0.00  0.00    +0.000 C 
ATOM     21  N   UNL     1       0.827  10.964  21.005  0.00  0.00    +0.000 N 
ATOM     22  H   UNL     1       1.507  11.426  20.406  0.00  0.00    +0.000 HD
BRANCH  20  23
ATOM     23  C   UNL     1       1.380   8.788  19.989  0.00  0.00    +0.000 A 
ATOM     24  C   UNL     1       1.573   9.279  18.687  0.00  0.00    +0.000 A 
ATOM     25  C   UNL     1       2.237   8.513  17.726  0.00  0.00    +0.000 A 
ATOM     26  C   UNL     1       2.711   7.247  18.059  0.00  0.00    +0.000 A 
ATOM     27  C   UNL     1       2.535   6.757  19.354  0.00  0.00    +0.000 A 
ATOM     28  C   UNL     1       1.873   7.522  20.324  0.00  0.00    +0.000 A 
ENDBRANCH  20  23
ENDBRANCH   1  21
TORSDOF 2
ENDMDL
MODEL 9
REMARK VINA RESULT:      -7.0      5.523     11.539
REMARK  Name = 
REMARK  2 active torsions:
REMARK  status: ('A' for Active; 'I' for Inactive)
REMARK    1  A    between atoms: C_2  and  C_22
REMARK    2  A    between atoms: N_3  and  N_4
REMARK                            x       y       z     vdW  Elec       q    Type
REMARK                         _______ _______ _______ _____ _____    ______ ____
ROOT
ATOM      1  N   UNL     1      -1.371  13.344  22.545  0.00  0.00    +0.000 NA
ATOM      2  C   UNL     1      -2.593  13.721  22.351  0.00  0.00    +0.000 C 
ATOM      3  C   UNL     1      -3.288  14.694  23.240  0.00  0.00    +0.000 A 
ATOM      4  C   UNL     1      -2.833  15.348  24.369  0.00  0.00    +0.000 A 
ATOM      5  C   UNL     1      -3.724  16.216  25.008  0.00  0.00    +0.000 A 
ATOM      6  C   UNL     1      -5.031  16.409  24.514  0.00  0.00    +0.000 A 
ATOM      7  C   UNL     1      -5.471  15.736  23.370  0.00  0.00    +0.000 A 
ATOM      8  C   UNL     1      -4.587  14.877  22.738  0.00  0.00    +0.000 A 
ATOM      9  C   UNL     1      -4.741  14.060  21.569  0.00  0.00    +0.000 A 
ATOM     10  N   UNL     1      -5.838  13.959  20.807  0.00  0.00    +0.000 NA
ATOM     11  C   UNL     1      -5.707  13.112  19.763  0.00  0.00    +0.000 A 
ATOM     12  C   UNL     1      -6.788  12.938  18.915  0.00  0.00    +0.000 A 
ATOM     13  C   UNL     1      -6.720  12.078  17.819  0.00  0.00    +0.000 A 
ATOM     14  C   UNL     1      -5.546  11.381  17.565  0.00  0.00    +0.000 A 
ATOM     15  C   UNL     1      -4.443  11.540  18.406  0.00  0.00    +0.000 A 
ATOM     16  C   UNL     1      -4.486  12.389  19.504  0.00  0.00    +0.000 A 
ATOM     17  N   UNL     1      -3.387  12.506  20.288  0.00  0.00    +0.000 NA
ATOM     18  C   UNL     1      -3.572  13.359  21.310  0.00  0.00    +0.000 A 
ENDROOT
BRANCH   1  21
ATOM     19  O   UNL     1      -0.574  10.846  23.350  0.00  0.00    +0.000 OA
ATOM     20  C   UNL     1      -0.430  11.201  22.180  0.00  0.00    +0.000 C 
ATOM     21  N   UNL     1      -0.810  12.442  21.679  0.00  0.00    +0.000 N 
ATOM     22  H   UNL     1      -0.760  12.674  20.690  0.00  0.00    +0.000 HD
BRANCH  20  23
ATOM     23  C   UNL     1       0.185  10.232  21.231  0.00  0.00    +0.000 A 
ATOM     24  C   UNL     1       0.705   9.040  21.764  0.00  0.00    +0.000 A 
ATOM     25  C   UNL     1       1.401   8.140  20.953  0.00  0.00    +0.000 A 
ATOM     26  C   UNL     1       1.586   8.428  19.604  0.00  0.00    +0.000 A 
ATOM     27  C   UNL     1       1.062   9.604  19.064  0.00  0.00    +0.000 A 
ATOM     28  C   UNL     1       0.359  10.508  19.871  0.00  0.00    +0.000 A 
ENDBRANCH  20  23
ENDBRANCH   1  21
TORSDOF 2
ENDMDL
