MODEL 1
REMARK VINA RESULT:      -8.1      0.000      0.000
REMARK  Name = 
REMARK  5 active torsions:
REMARK  status: ('A' for Active; 'I' for Inactive)
REMARK    1  A    between atoms: C_1  and  C_2
REMARK    2  A    between atoms: C_2  and  C_3
REMARK    3  A    between atoms: C_2  and  C_4
REMARK    4  A    between atoms: C_2  and  C_5
REMARK    5  A    between atoms: C_8  and  C_9
REMARK                            x       y       z     vdW  Elec       q    Type
REMARK                         _______ _______ _______ _____ _____    ______ ____
ROOT
ATOM      1  C   UNL     1       3.378   5.464  19.218  0.00  0.00    +0.000 A 
ATOM      2  C   UNL     1       4.767   5.185  19.343  0.00  0.00    +0.000 A 
ATOM      3  N   UNL     1       5.052   3.880  19.269  0.00  0.00    +0.000 NA
ATOM      4  N   UNL     1       3.846   3.303  19.088  0.00  0.00    +0.000 N 
ATOM      5  C   UNL     1       3.632   1.926  18.956  0.00  0.00    +0.000 A 
ATOM      6  O   UNL     1       4.542   1.112  19.000  0.00  0.00    +0.000 OA
ATOM      7  N   UNL     1       2.296   1.620  18.772  0.00  0.00    +0.000 N 
ATOM      8  C   UNL     1       1.226   2.465  18.653  0.00  0.00    +0.000 A 
ATOM      9  O   UNL     1       0.071   2.145  18.455  0.00  0.00    +0.000 OA
ATOM     10  N   UNL     1       1.531   3.843  18.775  0.00  0.00    +0.000 N 
ATOM     11  C   UNL     1       2.831   4.218  19.022  0.00  0.00    +0.000 A 
ATOM     12  H   UNL     1       2.087   0.637  18.674  0.00  0.00    +0.000 HD
ATOM     13  H   UNL     1       0.784   4.519  18.657  0.00  0.00    +0.000 HD
ENDROOT
BRANCH   1  17
ATOM     14  C   UNL     1       1.267   9.207  19.188  0.00  0.00    +0.000 A 
ATOM     15  C   UNL     1       1.947   8.732  18.055  0.00  0.00    +0.000 A 
ATOM     16  C   UNL     1       2.636   7.514  18.073  0.00  0.00    +0.000 A 
ATOM     17  C   UNL     1       2.676   6.732  19.229  0.00  0.00    +0.000 A 
ATOM     18  C   UNL     1       2.042   7.215  20.379  0.00  0.00    +0.000 A 
ATOM     19  C   UNL     1       1.334   8.423  20.351  0.00  0.00    +0.000 A 
BRANCH  14  21
ATOM     20  C   UNL     1       1.324  11.742  18.732  0.00  0.00    +0.000 C 
ATOM     21  C   UNL     1       0.479  10.530  19.184  0.00  0.00    +0.000 C 
ATOM     22  C   UNL     1      -0.047  10.839  20.602  0.00  0.00    +0.000 C 
ATOM     23  C   UNL     1      -0.721  10.422  18.217  0.00  0.00    +0.000 C 
ENDBRANCH  14  21
ENDBRANCH   1  17
TORSDOF 2
ENDMDL
MODEL 2
REMARK VINA RESULT:      -8.1      0.099      1.051
REMARK  Name = 
REMARK  5 active torsions:
REMARK  status: ('A' for Active; 'I' for Inactive)
REMARK    1  A    between atoms: C_1  and  C_2
REMARK    2  A    between atoms: C_2  and  C_3
REMARK    3  A    between atoms: C_2  and  C_4
REMARK    4  A    between atoms: C_2  and  C_5
REMARK    5  A    between atoms: C_8  and  C_9
REMARK                            x       y       z     vdW  Elec       q    Type
REMARK                         _______ _______ _______ _____ _____    ______ ____
ROOT
ATOM      1  C   UNL     1       3.354   5.519  19.218  0.00  0.00    +0.000 A 
ATOM      2  C   UNL     1       4.744   5.256  19.360  0.00  0.00    +0.000 A 
ATOM      3  N   UNL     1       5.043   3.953  19.308  0.00  0.00    +0.000 NA
ATOM      4  N   UNL     1       3.845   3.361  19.123  0.00  0.00    +0.000 N 
ATOM      5  C   UNL     1       3.646   1.981  19.008  0.00  0.00    +0.000 A 
ATOM      6  O   UNL     1       4.563   1.177  19.073  0.00  0.00    +0.000 OA
ATOM      7  N   UNL     1       2.314   1.659  18.816  0.00  0.00    +0.000 N 
ATOM      8  C   UNL     1       1.238   2.490  18.675  0.00  0.00    +0.000 A 
ATOM      9  O   UNL     1       0.088   2.156  18.470  0.00  0.00    +0.000 OA
ATOM     10  N   UNL     1       1.527   3.873  18.781  0.00  0.00    +0.000 N 
ATOM     11  C   UNL     1       2.821   4.265  19.034  0.00  0.00    +0.000 A 
ATOM     12  H   UNL     1       2.116   0.672  18.729  0.00  0.00    +0.000 HD
ATOM     13  H   UNL     1       0.775   4.539  18.645  0.00  0.00    +0.000 HD
ENDROOT
BRANCH   1  17
ATOM     14  C   UNL     1       1.263   9.274  19.240  0.00  0.00    +0.000 A 
ATOM     15  C   UNL     1       1.318   8.451  20.376  0.00  0.00    +0.000 A 
ATOM     16  C   UNL     1       1.997   7.227  20.361  0.00  0.00    +0.000 A 
ATOM     17  C   UNL     1       2.639   6.780  19.204  0.00  0.00    +0.000 A 
ATOM     18  C   UNL     1       2.553   7.568  18.051  0.00  0.00    +0.000 A 
ATOM     19  C   UNL     1       1.893   8.802  18.076  0.00  0.00    +0.000 A 
BRANCH  14  21
ATOM     20  C   UNL     1       1.432  11.792  18.721  0.00  0.00    +0.000 C 
ATOM     21  C   UNL     1       0.546  10.637  19.241  0.00  0.00    +0.000 C 
ATOM     22  C   UNL     1       0.105  11.004  20.674  0.00  0.00    +0.000 C 
ATOM     23  C   UNL     1      -0.702  10.572  18.333  0.00  0.00    +0.000 C 
ENDBRANCH  14  21
ENDBRANCH   1  17
TORSDOF 2
ENDMDL
MODEL 3
REMARK VINA RESULT:      -8.0      2.890      3.959
REMARK  Name = 
REMARK  5 active torsions:
REMARK  status: ('A' for Active; 'I' for Inactive)
REMARK    1  A    between atoms: C_1  and  C_2
REMARK    2  A    between atoms: C_2  and  C_3
REMARK    3  A    between atoms: C_2  and  C_4
REMARK    4  A    between atoms: C_2  and  C_5
REMARK    5  A    between atoms: C_8  and  C_9
REMARK                            x       y       z     vdW  Elec       q    Type
REMARK                         _______ _______ _______ _____ _____    ______ ____
ROOT
ATOM      1  C   UNL     1       3.530   6.098  17.826  0.00  0.00    +0.000 A 
ATOM      2  C   UNL     1       3.195   4.764  17.464  0.00  0.00    +0.000 A 
ATOM      3  N   UNL     1       4.196   4.113  16.859  0.00  0.00    +0.000 NA
ATOM      4  N   UNL     1       5.192   5.023  16.833  0.00  0.00    +0.000 N 
ATOM      5  C   UNL     1       6.461   4.800  16.287  0.00  0.00    +0.000 A 
ATOM      6  O   UNL     1       6.778   3.739  15.770  0.00  0.00    +0.000 OA
ATOM      7  N   UNL     1       7.284   5.905  16.407  0.00  0.00    +0.000 N 
ATOM      8  C   UNL     1       7.034   7.104  17.017  0.00  0.00    +0.000 A 
ATOM      9  O   UNL     1       7.807   8.034  17.128  0.00  0.00    +0.000 OA
ATOM     10  N   UNL     1       5.735   7.241  17.565  0.00  0.00    +0.000 N 
ATOM     11  C   UNL     1       4.841   6.204  17.428  0.00  0.00    +0.000 A 
ATOM     12  H   UNL     1       8.213   5.797  16.025  0.00  0.00    +0.000 HD
ATOM     13  H   UNL     1       5.504   8.093  18.064  0.00  0.00    +0.000 HD
ENDROOT
BRANCH   1  17
ATOM     14  C   UNL     1       1.144   9.098  19.770  0.00  0.00    +0.000 A 
ATOM     15  C   UNL     1       1.562   9.234  18.437  0.00  0.00    +0.000 A 
ATOM     16  C   UNL     1       2.342   8.255  17.811  0.00  0.00    +0.000 A 
ATOM     17  C   UNL     1       2.739   7.108  18.501  0.00  0.00    +0.000 A 
ATOM     18  C   UNL     1       2.370   6.981  19.845  0.00  0.00    +0.000 A 
ATOM     19  C   UNL     1       1.570   7.950  20.461  0.00  0.00    +0.000 A 
BRANCH  14  21
ATOM     20  C   UNL     1       1.013  11.461  20.788  0.00  0.00    +0.000 C 
ATOM     21  C   UNL     1       0.263  10.147  20.471  0.00  0.00    +0.000 C 
ATOM     22  C   UNL     1      -0.269   9.587  21.808  0.00  0.00    +0.000 C 
ATOM     23  C   UNL     1      -0.937  10.511  19.569  0.00  0.00    +0.000 C 
ENDBRANCH  14  21
ENDBRANCH   1  17
TORSDOF 2
ENDMDL
MODEL 4
REMARK VINA RESULT:      -7.9      1.490      1.772
REMARK  Name = 
REMARK  5 active torsions:
REMARK  status: ('A' for Active; 'I' for Inactive)
REMARK    1  A    between atoms: C_1  and  C_2
REMARK    2  A    between atoms: C_2  and  C_3
REMARK    3  A    between atoms: C_2  and  C_4
REMARK    4  A    between atoms: C_2  and  C_5
REMARK    5  A    between atoms: C_8  and  C_9
REMARK                            x       y       z     vdW  Elec       q    Type
REMARK                         _______ _______ _______ _____ _____    ______ ____
ROOT
ATOM      1  C   UNL     1       3.315   5.887  19.290  0.00  0.00    +0.000 A 
ATOM      2  C   UNL     1       4.485   5.571  18.546  0.00  0.00    +0.000 A 
ATOM      3  N   UNL     1       4.953   4.342  18.793  0.00  0.00    +0.000 NA
ATOM      4  N   UNL     1       4.080   3.848  19.696  0.00  0.00    +0.000 N 
ATOM      5  C   UNL     1       4.157   2.572  20.266  0.00  0.00    +0.000 A 
ATOM      6  O   UNL     1       5.047   1.782  19.989  0.00  0.00    +0.000 OA
ATOM      7  N   UNL     1       3.124   2.332  21.154  0.00  0.00    +0.000 N 
ATOM      8  C   UNL     1       2.063   3.132  21.478  0.00  0.00    +0.000 A 
ATOM      9  O   UNL     1       1.158   2.857  22.240  0.00  0.00    +0.000 OA
ATOM     10  N   UNL     1       2.046   4.397  20.841  0.00  0.00    +0.000 N 
ATOM     11  C   UNL     1       3.075   4.729  19.992  0.00  0.00    +0.000 A 
ATOM     12  H   UNL     1       3.136   1.424  21.595  0.00  0.00    +0.000 HD
ATOM     13  H   UNL     1       1.262   5.017  21.012  0.00  0.00    +0.000 HD
ENDROOT
BRANCH   1  17
ATOM     14  C   UNL     1       0.894   9.437  19.244  0.00  0.00    +0.000 A 
ATOM     15  C   UNL     1       1.552   8.975  18.093  0.00  0.00    +0.000 A 
ATOM     16  C   UNL     1       2.342   7.820  18.116  0.00  0.00    +0.000 A 
ATOM     17  C   UNL     1       2.509   7.092  19.295  0.00  0.00    +0.000 A 
ATOM     18  C   UNL     1       1.897   7.566  20.461  0.00  0.00    +0.000 A 
ATOM     19  C   UNL     1       1.089   8.708  20.429  0.00  0.00    +0.000 A 
BRANCH  14  21
ATOM     20  C   UNL     1      -0.665  10.972  20.605  0.00  0.00    +0.000 C 
ATOM     21  C   UNL     1      -0.003  10.689  19.237  0.00  0.00    +0.000 C 
ATOM     22  C   UNL     1      -1.137  10.524  18.202  0.00  0.00    +0.000 C 
ATOM     23  C   UNL     1       0.835  11.932  18.868  0.00  0.00    +0.000 C 
ENDBRANCH  14  21
ENDBRANCH   1  17
TORSDOF 2
ENDMDL
MODEL 5
REMARK VINA RESULT:      -7.9      2.913      4.106
REMARK  Name = 
REMARK  5 active torsions:
REMARK  status: ('A' for Active; 'I' for Inactive)
REMARK    1  A    between atoms: C_1  and  C_2
REMARK    2  A    between atoms: C_2  and  C_3
REMARK    3  A    between atoms: C_2  and  C_4
REMARK    4  A    between atoms: C_2  and  C_5
REMARK    5  A    between atoms: C_8  and  C_9
REMARK                            x       y       z     vdW  Elec       q    Type
REMARK                         _______ _______ _______ _____ _____    ______ ____
ROOT
ATOM      1  C   UNL     1       3.531   6.158  17.807  0.00  0.00    +0.000 A 
ATOM      2  C   UNL     1       3.222   4.819  17.442  0.00  0.00    +0.000 A 
ATOM      3  N   UNL     1       4.246   4.179  16.865  0.00  0.00    +0.000 NA
ATOM      4  N   UNL     1       5.231   5.101  16.859  0.00  0.00    +0.000 N 
ATOM      5  C   UNL     1       6.516   4.893  16.344  0.00  0.00    +0.000 A 
ATOM      6  O   UNL     1       6.858   3.834  15.840  0.00  0.00    +0.000 OA
ATOM      7  N   UNL     1       7.321   6.009  16.480  0.00  0.00    +0.000 N 
ATOM      8  C   UNL     1       7.040   7.207  17.078  0.00  0.00    +0.000 A 
ATOM      9  O   UNL     1       7.799   8.147  17.203  0.00  0.00    +0.000 OA
ATOM     10  N   UNL     1       5.726   7.329  17.594  0.00  0.00    +0.000 N 
ATOM     11  C   UNL     1       4.850   6.280  17.439  0.00  0.00    +0.000 A 
ATOM     12  H   UNL     1       8.260   5.912  16.120  0.00  0.00    +0.000 HD
ATOM     13  H   UNL     1       5.473   8.180  18.083  0.00  0.00    +0.000 HD
ENDROOT
BRANCH   1  17
ATOM     14  C   UNL     1       1.144   9.128  19.795  0.00  0.00    +0.000 A 
ATOM     15  C   UNL     1       1.559   7.955  20.446  0.00  0.00    +0.000 A 
ATOM     16  C   UNL     1       2.334   6.990  19.791  0.00  0.00    +0.000 A 
ATOM     17  C   UNL     1       2.711   7.161  18.458  0.00  0.00    +0.000 A 
ATOM     18  C   UNL     1       2.265   8.303  17.782  0.00  0.00    +0.000 A 
ATOM     19  C   UNL     1       1.511   9.277  18.447  0.00  0.00    +0.000 A 
BRANCH  14  21
ATOM     20  C   UNL     1       1.094  11.536  20.709  0.00  0.00    +0.000 C 
ATOM     21  C   UNL     1       0.316  10.216  20.502  0.00  0.00    +0.000 C 
ATOM     22  C   UNL     1      -0.131   9.723  21.895  0.00  0.00    +0.000 C 
ATOM     23  C   UNL     1      -0.937  10.550  19.663  0.00  0.00    +0.000 C 
ENDBRANCH  14  21
ENDBRANCH   1  17
TORSDOF 2
ENDMDL
MODEL 6
REMARK VINA RESULT:      -7.9      4.812      6.474
REMARK  Name = 
REMARK  5 active torsions:
REMARK  status: ('A' for Active; 'I' for Inactive)
REMARK    1  A    between atoms: C_1  and  C_2
REMARK    2  A    between atoms: C_2  and  C_3
REMARK    3  A    between atoms: C_2  and  C_4
REMARK    4  A    between atoms: C_2  and  C_5
REMARK    5  A    between atoms: C_8  and  C_9
REMARK                            x       y       z     vdW  Elec       q    Type
REMARK                         _______ _______ _______ _____ _____    ______ ____
ROOT
ATOM      1  C   UNL     1       5.818   5.006  16.337  0.00  0.00    +0.000 A 
ATOM      2  C   UNL     1       6.879   5.905  16.632  0.00  0.00    +0.000 A 
ATOM      3  N   UNL     1       7.716   6.091  15.605  0.00  0.00    +0.000 NA
ATOM      4  N   UNL     1       7.197   5.315  14.631  0.00  0.00    +0.000 N 
ATOM      5  C   UNL     1       7.737   5.176  13.347  0.00  0.00    +0.000 A 
ATOM      6  O   UNL     1       8.753   5.757  12.996  0.00  0.00    +0.000 OA
ATOM      7  N   UNL     1       6.991   4.323  12.555  0.00  0.00    +0.000 N 
ATOM      8  C   UNL     1       5.819   3.680  12.845  0.00  0.00    +0.000 A 
ATOM      9  O   UNL     1       5.182   2.967  12.097  0.00  0.00    +0.000 OA
ATOM     10  N   UNL     1       5.326   3.891  14.157  0.00  0.00    +0.000 N 
ATOM     11  C   UNL     1       6.050   4.679  15.022  0.00  0.00    +0.000 A 
ATOM     12  H   UNL     1       7.341   4.187  11.617  0.00  0.00    +0.000 HD
ATOM     13  H   UNL     1       4.441   3.472  14.417  0.00  0.00    +0.000 HD
ENDROOT
BRANCH   1  17
ATOM     14  C   UNL     1       2.590   3.653  18.830  0.00  0.00    +0.000 A 
ATOM     15  C   UNL     1       3.609   2.786  18.405  0.00  0.00    +0.000 A 
ATOM     16  C   UNL     1       4.656   3.233  17.589  0.00  0.00    +0.000 A 
ATOM     17  C   UNL     1       4.714   4.561  17.164  0.00  0.00    +0.000 A 
ATOM     18  C   UNL     1       3.679   5.425  17.541  0.00  0.00    +0.000 A 
ATOM     19  C   UNL     1       2.647   4.981  18.376  0.00  0.00    +0.000 A 
BRANCH  14  21
ATOM     20  C   UNL     1       1.926   2.339  20.944  0.00  0.00    +0.000 C 
ATOM     21  C   UNL     1       1.444   3.192  19.750  0.00  0.00    +0.000 C 
ATOM     22  C   UNL     1       0.433   2.339  18.953  0.00  0.00    +0.000 C 
ATOM     23  C   UNL     1       0.712   4.422  20.331  0.00  0.00    +0.000 C 
ENDBRANCH  14  21
ENDBRANCH   1  17
TORSDOF 2
ENDMDL
MODEL 7
REMARK VINA RESULT:      -7.9      1.459      1.795
REMARK  Name = 
REMARK  5 active torsions:
REMARK  status: ('A' for Active; 'I' for Inactive)
REMARK    1  A    between atoms: C_1  and  C_2
REMARK    2  A    between atoms: C_2  and  C_3
REMARK    3  A    between atoms: C_2  and  C_4
REMARK    4  A    between atoms: C_2  and  C_5
REMARK    5  A    between atoms: C_8  and  C_9
REMARK                            x       y       z     vdW  Elec       q    Type
REMARK                         _______ _______ _______ _____ _____    ______ ____
ROOT
ATOM      1  C   UNL     1       3.374   5.827  19.274  0.00  0.00    +0.000 A 
ATOM      2  C   UNL     1       4.564   5.511  18.563  0.00  0.00    +0.000 A 
ATOM      3  N   UNL     1       5.031   4.286  18.832  0.00  0.00    +0.000 NA
ATOM      4  N   UNL     1       4.138   3.795  19.716  0.00  0.00    +0.000 N 
ATOM      5  C   UNL     1       4.206   2.524  20.298  0.00  0.00    +0.000 A 
ATOM      6  O   UNL     1       5.106   1.735  20.050  0.00  0.00    +0.000 OA
ATOM      7  N   UNL     1       3.152   2.286  21.161  0.00  0.00    +0.000 N 
ATOM      8  C   UNL     1       2.079   3.083  21.451  0.00  0.00    +0.000 A 
ATOM      9  O   UNL     1       1.157   2.810  22.192  0.00  0.00    +0.000 OA
ATOM     10  N   UNL     1       2.072   4.344  20.804  0.00  0.00    +0.000 N 
ATOM     11  C   UNL     1       3.122   4.674  19.979  0.00  0.00    +0.000 A 
ATOM     12  H   UNL     1       3.156   1.381  21.609  0.00  0.00    +0.000 HD
ATOM     13  H   UNL     1       1.282   4.961  20.950  0.00  0.00    +0.000 HD
ENDROOT
BRANCH   1  17
ATOM     14  C   UNL     1       0.999   9.408  19.261  0.00  0.00    +0.000 A 
ATOM     15  C   UNL     1       1.159   8.631  20.419  0.00  0.00    +0.000 A 
ATOM     16  C   UNL     1       1.932   7.464  20.415  0.00  0.00    +0.000 A 
ATOM     17  C   UNL     1       2.563   7.028  19.249  0.00  0.00    +0.000 A 
ATOM     18  C   UNL     1       2.373   7.767  18.075  0.00  0.00    +0.000 A 
ATOM     19  C   UNL     1       1.620   8.946  18.088  0.00  0.00    +0.000 A 
BRANCH  14  21
ATOM     20  C   UNL     1       0.996  11.942  18.796  0.00  0.00    +0.000 C 
ATOM     21  C   UNL     1       0.178  10.711  19.247  0.00  0.00    +0.000 C 
ATOM     22  C   UNL     1      -0.365  11.012  20.660  0.00  0.00    +0.000 C 
ATOM     23  C   UNL     1      -1.012  10.570  18.272  0.00  0.00    +0.000 C 
ENDBRANCH  14  21
ENDBRANCH   1  17
TORSDOF 2
ENDMDL
MODEL 8
REMARK VINA RESULT:      -7.7      4.750      6.354
REMARK  Name = 
REMARK  5 active torsions:
REMARK  status: ('A' for Active; 'I' for Inactive)
REMARK    1  A    between atoms: C_1  and  C_2
REMARK    2  A    between atoms: C_2  and  C_3
REMARK    3  A    between atoms: C_2  and  C_4
REMARK    4  A    between atoms: C_2  and  C_5
REMARK    5  A    between atoms: C_8  and  C_9
REMARK                            x       y       z     vdW  Elec       q    Type
REMARK                         _______ _______ _______ _____ _____    ______ ____
ROOT
ATOM      1  C   UNL     1       5.895   5.098  16.583  0.00  0.00    +0.000 A 
ATOM      2  C   UNL     1       6.953   6.012  16.842  0.00  0.00    +0.000 A 
ATOM      3  N   UNL     1       7.762   6.196  15.792  0.00  0.00    +0.000 NA
ATOM      4  N   UNL     1       7.227   5.406  14.839  0.00  0.00    +0.000 N 
ATOM      5  C   UNL     1       7.736   5.260  13.543  0.00  0.00    +0.000 A 
ATOM      6  O   UNL     1       8.736   5.849  13.161  0.00  0.00    +0.000 OA
ATOM      7  N   UNL     1       6.980   4.391  12.778  0.00  0.00    +0.000 N 
ATOM      8  C   UNL     1       5.823   3.739  13.105  0.00  0.00    +0.000 A 
ATOM      9  O   UNL     1       5.175   3.011  12.380  0.00  0.00    +0.000 OA
ATOM     10  N   UNL     1       5.361   3.956  14.426  0.00  0.00    +0.000 N 
ATOM     11  C   UNL     1       6.097   4.761  15.265  0.00  0.00    +0.000 A 
ATOM     12  H   UNL     1       7.308   4.250  11.833  0.00  0.00    +0.000 HD
ATOM     13  H   UNL     1       4.488   3.530  14.713  0.00  0.00    +0.000 HD
ENDROOT
BRANCH   1  17
ATOM     14  C   UNL     1       2.654   3.775  19.074  0.00  0.00    +0.000 A 
ATOM     15  C   UNL     1       2.537   4.902  18.245  0.00  0.00    +0.000 A 
ATOM     16  C   UNL     1       3.598   5.330  17.438  0.00  0.00    +0.000 A 
ATOM     17  C   UNL     1       4.817   4.649  17.441  0.00  0.00    +0.000 A 
ATOM     18  C   UNL     1       4.964   3.552  18.298  0.00  0.00    +0.000 A 
ATOM     19  C   UNL     1       3.893   3.113  19.085  0.00  0.00    +0.000 A 
BRANCH  14  21
ATOM     20  C   UNL     1       1.962   2.476  21.189  0.00  0.00    +0.000 C 
ATOM     21  C   UNL     1       1.492   3.269  19.948  0.00  0.00    +0.000 C 
ATOM     22  C   UNL     1       0.576   2.337  19.127  0.00  0.00    +0.000 C 
ATOM     23  C   UNL     1       0.660   4.466  20.458  0.00  0.00    +0.000 C 
ENDBRANCH  14  21
ENDBRANCH   1  17
TORSDOF 2
ENDMDL
MODEL 9
REMARK VINA RESULT:      -7.7      3.023      4.309
REMARK  Name = 
REMARK  5 active torsions:
REMARK  status: ('A' for Active; 'I' for Inactive)
REMARK    1  A    between atoms: C_1  and  C_2
REMARK    2  A    between atoms: C_2  and  C_3
REMARK    3  A    between atoms: C_2  and  C_4
REMARK    4  A    between atoms: C_2  and  C_5
REMARK    5  A    between atoms: C_8  and  C_9
REMARK                            x       y       z     vdW  Elec       q    Type
REMARK                         _______ _______ _______ _____ _____    ______ ____
ROOT
ATOM      1  C   UNL     1       3.658   5.641  17.739  0.00  0.00    +0.000 A 
ATOM      2  C   UNL     1       3.336   4.367  17.195  0.00  0.00    +0.000 A 
ATOM      3  N   UNL     1       4.310   3.855  16.435  0.00  0.00    +0.000 NA
ATOM      4  N   UNL     1       5.278   4.794  16.488  0.00  0.00    +0.000 N 
ATOM      5  C   UNL     1       6.512   4.706  15.834  0.00  0.00    +0.000 A 
ATOM      6  O   UNL     1       6.822   3.749  15.140  0.00  0.00    +0.000 OA
ATOM      7  N   UNL     1       7.310   5.810  16.073  0.00  0.00    +0.000 N 
ATOM      8  C   UNL     1       7.069   6.890  16.876  0.00  0.00    +0.000 A 
ATOM      9  O   UNL     1       7.823   7.820  17.081  0.00  0.00    +0.000 OA
ATOM     10  N   UNL     1       5.807   6.893  17.520  0.00  0.00    +0.000 N 
ATOM     11  C   UNL     1       4.936   5.856  17.279  0.00  0.00    +0.000 A 
ATOM     12  H   UNL     1       8.213   5.797  15.620  0.00  0.00    +0.000 HD
ATOM     13  H   UNL     1       5.588   7.648  18.158  0.00  0.00    +0.000 HD
ENDROOT
BRANCH   1  17
ATOM     14  C   UNL     1       1.418   8.186  20.380  0.00  0.00    +0.000 A 
ATOM     15  C   UNL     1       1.797   6.885  20.750  0.00  0.00    +0.000 A 
ATOM     16  C   UNL     1       2.523   6.060  19.883  0.00  0.00    +0.000 A 
ATOM     17  C   UNL     1       2.888   6.505  18.611  0.00  0.00    +0.000 A 
ATOM     18  C   UNL     1       2.477   7.782  18.211  0.00  0.00    +0.000 A 
ATOM     19  C   UNL     1       1.772   8.613  19.089  0.00  0.00    +0.000 A 
BRANCH  14  21
ATOM     20  C   UNL     1       1.409   9.438  22.631  0.00  0.00    +0.000 C 
ATOM     21  C   UNL     1       0.644   9.122  21.326  0.00  0.00    +0.000 C 
ATOM     22  C   UNL     1      -0.701   8.479  21.725  0.00  0.00    +0.000 C 
ATOM     23  C   UNL     1       0.367  10.467  20.620  0.00  0.00    +0.000 C 
ENDBRANCH  14  21
ENDBRANCH   1  17
TORSDOF 2
ENDMDL
