MODEL 1
REMARK VINA RESULT:      -8.3      0.000      0.000
REMARK  Name = 
REMARK  10 active torsions:
REMARK  status: ('A' for Active; 'I' for Inactive)
REMARK    1  A    between atoms: C_1  and  O_2
REMARK    2  A    between atoms: O_2  and  C_3
REMARK    3  A    between atoms: C_6  and  C_7
REMARK    4  A    between atoms: C_8  and  C_9
REMARK    5  A    between atoms: C_12  and  N_13
REMARK    6  A    between atoms: N_13  and  C_14
REMARK    7  A    between atoms: C_14  and  C_15
REMARK    8  A    between atoms: C_22  and  C_23
REMARK    9  A    between atoms: C_27  and  O_28
REMARK   10  A    between atoms: O_28  and  C_29
REMARK                            x       y       z     vdW  Elec       q    Type
REMARK                         _______ _______ _______ _____ _____    ______ ____
ROOT
ATOM      1  C   UNL     1       1.805   7.990  19.524  0.00  0.00    +0.000 A 
ATOM      2  C   UNL     1       2.385   8.338  18.266  0.00  0.00    +0.000 A 
ATOM      3  C   UNL     1       2.444   9.660  17.582  0.00  0.00    +0.000 C 
ATOM      4  N   UNL     1       2.964   7.287  17.663  0.00  0.00    +0.000 NA
ATOM      5  N   UNL     1       2.802   6.254  18.535  0.00  0.00    +0.000 N 
ATOM      6  C   UNL     1       3.264   4.918  18.379  0.00  0.00    +0.000 A 
ATOM      7  C   UNL     1       3.038   4.043  19.373  0.00  0.00    +0.000 A 
ATOM      8  C   UNL     1       2.299   4.552  20.562  0.00  0.00    +0.000 A 
ATOM      9  C   UNL     1       2.025   3.578  21.679  0.00  0.00    +0.000 C 
ATOM     10  N   UNL     1       1.865   5.768  20.706  0.00  0.00    +0.000 NA
ATOM     11  C   UNL     1       2.116   6.649  19.686  0.00  0.00    +0.000 A 
ENDROOT
BRANCH   1  15
ATOM     12  C   UNL     1      -0.169  10.522  22.378  0.00  0.00    +0.000 A 
ATOM     13  C   UNL     1       0.590   9.425  22.798  0.00  0.00    +0.000 A 
ATOM     14  C   UNL     1       1.240   8.599  21.879  0.00  0.00    +0.000 A 
ATOM     15  C   UNL     1       1.076   8.796  20.500  0.00  0.00    +0.000 A 
ATOM     16  C   UNL     1       0.199   9.804  20.096  0.00  0.00    +0.000 A 
ATOM     17  C   UNL     1      -0.405  10.689  21.007  0.00  0.00    +0.000 A 
BRANCH  12  19
ATOM     18  C   UNL     1      -2.127  11.471  23.307  0.00  0.00    +0.000 C 
ATOM     19  O   UNL     1      -0.699  11.402  23.280  0.00  0.00    +0.000 OA
ENDBRANCH  12  19
BRANCH  17  20
ATOM     20  O   UNL     1      -1.149  11.644  20.363  0.00  0.00    +0.000 OA
ATOM     21  C   UNL     1      -1.684  11.358  19.083  0.00  0.00    +0.000 C 
ENDBRANCH  17  20
ENDBRANCH   1  15
BRANCH   6  22
ATOM     22  N   UNL     1       3.907   4.536  17.187  0.00  0.00    +0.000 N 
ATOM     23  H   UNL     1       3.884   5.345  16.554  0.00  0.00    +0.000 HD
BRANCH  22  24
ATOM     24  C   UNL     1       5.305   4.087  17.234  0.00  0.00    +0.000 C 
BRANCH  24  25
ATOM     25  C   UNL     1       6.249   5.223  17.514  0.00  0.00    +0.000 A 
ATOM     26  C   UNL     1       7.097   5.260  18.628  0.00  0.00    +0.000 A 
ATOM     27  C   UNL     1       7.913   6.366  18.849  0.00  0.00    +0.000 A 
ATOM     28  C   UNL     1       7.843   7.422  17.954  0.00  0.00    +0.000 A 
ATOM     29  N   UNL     1       7.020   7.443  16.885  0.00  0.00    +0.000 NA
ATOM     30  C   UNL     1       6.243   6.352  16.696  0.00  0.00    +0.000 A 
ENDBRANCH  24  25
ENDBRANCH  22  24
ENDBRANCH   6  22
TORSDOF 6
ENDMDL
MODEL 2
REMARK VINA RESULT:      -8.0      1.365      1.889
REMARK  Name = 
REMARK  10 active torsions:
REMARK  status: ('A' for Active; 'I' for Inactive)
REMARK    1  A    between atoms: C_1  and  O_2
REMARK    2  A    between atoms: O_2  and  C_3
REMARK    3  A    between atoms: C_6  and  C_7
REMARK    4  A    between atoms: C_8  and  C_9
REMARK    5  A    between atoms: C_12  and  N_13
REMARK    6  A    between atoms: N_13  and  C_14
REMARK    7  A    between atoms: C_14  and  C_15
REMARK    8  A    between atoms: C_22  and  C_23
REMARK    9  A    between atoms: C_27  and  O_28
REMARK   10  A    between atoms: O_28  and  C_29
REMARK                            x       y       z     vdW  Elec       q    Type
REMARK                         _______ _______ _______ _____ _____    ______ ____
ROOT
ATOM      1  C   UNL     1       1.616   8.210  19.621  0.00  0.00    +0.000 A 
ATOM      2  C   UNL     1       2.176   8.593  18.363  0.00  0.00    +0.000 A 
ATOM      3  C   UNL     1       2.188   9.925  17.697  0.00  0.00    +0.000 C 
ATOM      4  N   UNL     1       2.783   7.569  17.743  0.00  0.00    +0.000 NA
ATOM      5  N   UNL     1       2.660   6.520  18.602  0.00  0.00    +0.000 N 
ATOM      6  C   UNL     1       3.162   5.201  18.425  0.00  0.00    +0.000 A 
ATOM      7  C   UNL     1       2.971   4.307  19.409  0.00  0.00    +0.000 A 
ATOM      8  C   UNL     1       2.225   4.776  20.610  0.00  0.00    +0.000 A 
ATOM      9  C   UNL     1       1.990   3.780  21.716  0.00  0.00    +0.000 C 
ATOM     10  N   UNL     1       1.754   5.977  20.773  0.00  0.00    +0.000 NA
ATOM     11  C   UNL     1       1.970   6.878  19.764  0.00  0.00    +0.000 A 
ENDROOT
BRANCH   1  15
ATOM     12  C   UNL     1      -0.412  10.639  22.525  0.00  0.00    +0.000 A 
ATOM     13  C   UNL     1       0.363   9.546  22.922  0.00  0.00    +0.000 A 
ATOM     14  C   UNL     1       1.030   8.753  21.988  0.00  0.00    +0.000 A 
ATOM     15  C   UNL     1       0.869   8.980  20.613  0.00  0.00    +0.000 A 
ATOM     16  C   UNL     1      -0.023   9.983  20.229  0.00  0.00    +0.000 A 
ATOM     17  C   UNL     1      -0.645  10.836  21.157  0.00  0.00    +0.000 A 
BRANCH  12  19
ATOM     18  C   UNL     1      -2.386  11.600  23.408  0.00  0.00    +0.000 C 
ATOM     19  O   UNL     1      -0.962  11.489  23.445  0.00  0.00    +0.000 OA
ENDBRANCH  12  19
BRANCH  17  20
ATOM     20  O   UNL     1      -1.402  11.793  20.534  0.00  0.00    +0.000 OA
ATOM     21  C   UNL     1      -0.839  13.070  20.288  0.00  0.00    +0.000 C 
ENDBRANCH  17  20
ENDBRANCH   1  15
BRANCH   6  22
ATOM     22  N   UNL     1       3.808   4.855  17.224  0.00  0.00    +0.000 N 
ATOM     23  H   UNL     1       3.822   5.694  16.631  0.00  0.00    +0.000 HD
BRANCH  22  24
ATOM     24  C   UNL     1       5.189   4.354  17.266  0.00  0.00    +0.000 C 
BRANCH  24  25
ATOM     25  C   UNL     1       5.878   4.504  15.938  0.00  0.00    +0.000 A 
ATOM     26  C   UNL     1       5.503   3.790  14.793  0.00  0.00    +0.000 A 
ATOM     27  C   UNL     1       6.215   3.947  13.608  0.00  0.00    +0.000 A 
ATOM     28  C   UNL     1       7.304   4.804  13.604  0.00  0.00    +0.000 A 
ATOM     29  N   UNL     1       7.719   5.489  14.690  0.00  0.00    +0.000 NA
ATOM     30  C   UNL     1       7.004   5.318  15.825  0.00  0.00    +0.000 A 
ENDBRANCH  24  25
ENDBRANCH  22  24
ENDBRANCH   6  22
TORSDOF 6
ENDMDL
MODEL 3
REMARK VINA RESULT:      -7.6      3.552      8.617
REMARK  Name = 
REMARK  10 active torsions:
REMARK  status: ('A' for Active; 'I' for Inactive)
REMARK    1  A    between atoms: C_1  and  O_2
REMARK    2  A    between atoms: O_2  and  C_3
REMARK    3  A    between atoms: C_6  and  C_7
REMARK    4  A    between atoms: C_8  and  C_9
REMARK    5  A    between atoms: C_12  and  N_13
REMARK    6  A    between atoms: N_13  and  C_14
REMARK    7  A    between atoms: C_14  and  C_15
REMARK    8  A    between atoms: C_22  and  C_23
REMARK    9  A    between atoms: C_27  and  O_28
REMARK   10  A    between atoms: O_28  and  C_29
REMARK                            x       y       z     vdW  Elec       q    Type
REMARK                         _______ _______ _______ _____ _____    ______ ____
ROOT
ATOM      1  C   UNL     1       2.688   5.895  19.496  0.00  0.00    +0.000 A 
ATOM      2  C   UNL     1       2.062   5.406  20.684  0.00  0.00    +0.000 A 
ATOM      3  C   UNL     1       2.214   4.089  21.362  0.00  0.00    +0.000 C 
ATOM      4  N   UNL     1       1.243   6.314  21.239  0.00  0.00    +0.000 NA
ATOM      5  N   UNL     1       1.353   7.413  20.443  0.00  0.00    +0.000 N 
ATOM      6  C   UNL     1       0.703   8.666  20.616  0.00  0.00    +0.000 A 
ATOM      7  C   UNL     1       0.969   9.651  19.742  0.00  0.00    +0.000 A 
ATOM      8  C   UNL     1       1.924   9.335  18.642  0.00  0.00    +0.000 A 
ATOM      9  C   UNL     1       2.221  10.424  17.644  0.00  0.00    +0.000 C 
ATOM     10  N   UNL     1       2.513   8.188  18.472  0.00  0.00    +0.000 NA
ATOM     11  C   UNL     1       2.237   7.201  19.383  0.00  0.00    +0.000 A 
ENDROOT
BRANCH   1  15
ATOM     12  C   UNL     1       5.421   4.208  16.644  0.00  0.00    +0.000 A 
ATOM     13  C   UNL     1       4.105   3.746  16.734  0.00  0.00    +0.000 A 
ATOM     14  C   UNL     1       3.207   4.291  17.653  0.00  0.00    +0.000 A 
ATOM     15  C   UNL     1       3.628   5.260  18.576  0.00  0.00    +0.000 A 
ATOM     16  C   UNL     1       4.981   5.605  18.570  0.00  0.00    +0.000 A 
ATOM     17  C   UNL     1       5.880   5.120  17.604  0.00  0.00    +0.000 A 
BRANCH  12  19
ATOM     18  C   UNL     1       6.121   4.407  14.392  0.00  0.00    +0.000 C 
ATOM     19  O   UNL     1       6.261   3.763  15.661  0.00  0.00    +0.000 OA
ENDBRANCH  12  19
BRANCH  17  20
ATOM     20  O   UNL     1       7.126   5.671  17.753  0.00  0.00    +0.000 OA
ATOM     21  C   UNL     1       7.738   5.664  19.031  0.00  0.00    +0.000 C 
ENDBRANCH  17  20
ENDBRANCH   1  15
BRANCH   6  22
ATOM     22  N   UNL     1      -0.220   8.836  21.664  0.00  0.00    +0.000 N 
ATOM     23  H   UNL     1      -0.378   7.912  22.085  0.00  0.00    +0.000 HD
BRANCH  22  24
ATOM     24  C   UNL     1       0.102   9.747  22.771  0.00  0.00    +0.000 C 
BRANCH  24  25
ATOM     25  C   UNL     1      -0.689  11.022  22.693  0.00  0.00    +0.000 A 
ATOM     26  C   UNL     1      -1.945  11.184  23.292  0.00  0.00    +0.000 A 
ATOM     27  C   UNL     1      -2.642  12.379  23.141  0.00  0.00    +0.000 A 
ATOM     28  C   UNL     1      -2.070  13.381  22.374  0.00  0.00    +0.000 A 
ATOM     29  N   UNL     1      -0.877  13.259  21.754  0.00  0.00    +0.000 NA
ATOM     30  C   UNL     1      -0.223  12.087  21.923  0.00  0.00    +0.000 A 
ENDBRANCH  24  25
ENDBRANCH  22  24
ENDBRANCH   6  22
TORSDOF 6
ENDMDL
MODEL 4
REMARK VINA RESULT:      -7.4      2.758      4.871
REMARK  Name = 
REMARK  10 active torsions:
REMARK  status: ('A' for Active; 'I' for Inactive)
REMARK    1  A    between atoms: C_1  and  O_2
REMARK    2  A    between atoms: O_2  and  C_3
REMARK    3  A    between atoms: C_6  and  C_7
REMARK    4  A    between atoms: C_8  and  C_9
REMARK    5  A    between atoms: C_12  and  N_13
REMARK    6  A    between atoms: N_13  and  C_14
REMARK    7  A    between atoms: C_14  and  C_15
REMARK    8  A    between atoms: C_22  and  C_23
REMARK    9  A    between atoms: C_27  and  O_28
REMARK   10  A    between atoms: O_28  and  C_29
REMARK                            x       y       z     vdW  Elec       q    Type
REMARK                         _______ _______ _______ _____ _____    ______ ____
ROOT
ATOM      1  C   UNL     1       0.785   9.776  20.271  0.00  0.00    +0.000 A 
ATOM      2  C   UNL     1       0.323   9.184  21.487  0.00  0.00    +0.000 A 
ATOM      3  C   UNL     1      -0.587   9.740  22.526  0.00  0.00    +0.000 C 
ATOM      4  N   UNL     1       0.793   7.938  21.657  0.00  0.00    +0.000 NA
ATOM      5  N   UNL     1       1.534   7.690  20.542  0.00  0.00    +0.000 N 
ATOM      6  C   UNL     1       2.227   6.491  20.221  0.00  0.00    +0.000 A 
ATOM      7  C   UNL     1       2.877   6.422  19.047  0.00  0.00    +0.000 A 
ATOM      8  C   UNL     1       2.827   7.632  18.178  0.00  0.00    +0.000 A 
ATOM      9  C   UNL     1       3.563   7.576  16.865  0.00  0.00    +0.000 C 
ATOM     10  N   UNL     1       2.204   8.735  18.471  0.00  0.00    +0.000 NA
ATOM     11  C   UNL     1       1.537   8.780  19.668  0.00  0.00    +0.000 A 
ENDROOT
BRANCH   1  15
ATOM     12  C   UNL     1       0.012  13.732  18.788  0.00  0.00    +0.000 A 
ATOM     13  C   UNL     1      -0.940  12.718  18.652  0.00  0.00    +0.000 A 
ATOM     14  C   UNL     1      -0.701  11.430  19.135  0.00  0.00    +0.000 A 
ATOM     15  C   UNL     1       0.541  11.096  19.693  0.00  0.00    +0.000 A 
ATOM     16  C   UNL     1       1.532  12.079  19.690  0.00  0.00    +0.000 A 
ATOM     17  C   UNL     1       1.284  13.399  19.274  0.00  0.00    +0.000 A 
BRANCH  12  19
ATOM     18  C   UNL     1      -0.591  15.905  19.507  0.00  0.00    +0.000 C 
ATOM     19  O   UNL     1      -0.271  15.021  18.430  0.00  0.00    +0.000 OA
ENDBRANCH  12  19
BRANCH  17  20
ATOM     20  O   UNL     1       2.384  14.197  19.447  0.00  0.00    +0.000 OA
ATOM     21  C   UNL     1       3.230  14.460  18.341  0.00  0.00    +0.000 C 
ENDBRANCH  17  20
ENDBRANCH   1  15
BRANCH   6  22
ATOM     22  N   UNL     1       2.248   5.428  21.142  0.00  0.00    +0.000 N 
ATOM     23  H   UNL     1       1.897   5.791  22.037  0.00  0.00    +0.000 HD
BRANCH  22  24
ATOM     24  C   UNL     1       1.477   4.210  20.857  0.00  0.00    +0.000 C 
BRANCH  24  25
ATOM     25  C   UNL     1       2.187   3.315  19.880  0.00  0.00    +0.000 A 
ATOM     26  C   UNL     1       1.634   2.927  18.653  0.00  0.00    +0.000 A 
ATOM     27  C   UNL     1       2.331   2.059  17.816  0.00  0.00    +0.000 A 
ATOM     28  C   UNL     1       3.562   1.584  18.240  0.00  0.00    +0.000 A 
ATOM     29  N   UNL     1       4.119   1.908  19.426  0.00  0.00    +0.000 NA
ATOM     30  C   UNL     1       3.419   2.755  20.215  0.00  0.00    +0.000 A 
ENDBRANCH  24  25
ENDBRANCH  22  24
ENDBRANCH   6  22
TORSDOF 6
ENDMDL
MODEL 5
REMARK VINA RESULT:      -7.4      3.566      8.619
REMARK  Name = 
REMARK  10 active torsions:
REMARK  status: ('A' for Active; 'I' for Inactive)
REMARK    1  A    between atoms: C_1  and  O_2
REMARK    2  A    between atoms: O_2  and  C_3
REMARK    3  A    between atoms: C_6  and  C_7
REMARK    4  A    between atoms: C_8  and  C_9
REMARK    5  A    between atoms: C_12  and  N_13
REMARK    6  A    between atoms: N_13  and  C_14
REMARK    7  A    between atoms: C_14  and  C_15
REMARK    8  A    between atoms: C_22  and  C_23
REMARK    9  A    between atoms: C_27  and  O_28
REMARK   10  A    between atoms: O_28  and  C_29
REMARK                            x       y       z     vdW  Elec       q    Type
REMARK                         _______ _______ _______ _____ _____    ______ ____
ROOT
ATOM      1  C   UNL     1       2.893   6.333  19.056  0.00  0.00    +0.000 A 
ATOM      2  C   UNL     1       2.296   5.705  20.193  0.00  0.00    +0.000 A 
ATOM      3  C   UNL     1       2.522   4.343  20.751  0.00  0.00    +0.000 C 
ATOM      4  N   UNL     1       1.428   6.512  20.823  0.00  0.00    +0.000 NA
ATOM      5  N   UNL     1       1.476   7.683  20.130  0.00  0.00    +0.000 N 
ATOM      6  C   UNL     1       0.757   8.877  20.411  0.00  0.00    +0.000 A 
ATOM      7  C   UNL     1       0.967   9.950  19.630  0.00  0.00    +0.000 A 
ATOM      8  C   UNL     1       1.938   9.787  18.511  0.00  0.00    +0.000 A 
ATOM      9  C   UNL     1       2.173  10.977  17.616  0.00  0.00    +0.000 C 
ATOM     10  N   UNL     1       2.590   8.695  18.242  0.00  0.00    +0.000 NA
ATOM     11  C   UNL     1       2.371   7.616  19.059  0.00  0.00    +0.000 A 
ENDROOT
BRANCH   1  15
ATOM     12  C   UNL     1       5.653   5.004  16.045  0.00  0.00    +0.000 A 
ATOM     13  C   UNL     1       4.572   4.205  16.428  0.00  0.00    +0.000 A 
ATOM     14  C   UNL     1       3.666   4.629  17.402  0.00  0.00    +0.000 A 
ATOM     15  C   UNL     1       3.868   5.836  18.088  0.00  0.00    +0.000 A 
ATOM     16  C   UNL     1       5.030   6.553  17.797  0.00  0.00    +0.000 A 
ATOM     17  C   UNL     1       5.912   6.176  16.769  0.00  0.00    +0.000 A 
BRANCH  12  19
ATOM     18  C   UNL     1       5.811   4.013  13.902  0.00  0.00    +0.000 C 
ATOM     19  O   UNL     1       6.465   4.645  15.005  0.00  0.00    +0.000 OA
ENDBRANCH  12  19
BRANCH  17  20
ATOM     20  O   UNL     1       6.928   7.084  16.618  0.00  0.00    +0.000 OA
ATOM     21  C   UNL     1       7.695   7.459  17.749  0.00  0.00    +0.000 C 
ENDBRANCH  17  20
ENDBRANCH   1  15
BRANCH   6  22
ATOM     22  N   UNL     1      -0.175   8.900  21.465  0.00  0.00    +0.000 N 
ATOM     23  H   UNL     1      -0.270   7.937  21.811  0.00  0.00    +0.000 HD
BRANCH  22  24
ATOM     24  C   UNL     1       0.088   9.739  22.643  0.00  0.00    +0.000 C 
BRANCH  24  25
ATOM     25  C   UNL     1      -0.694  11.022  22.600  0.00  0.00    +0.000 A 
ATOM     26  C   UNL     1      -0.234  12.181  21.962  0.00  0.00    +0.000 A 
ATOM     27  C   UNL     1      -0.992  13.348  22.001  0.00  0.00    +0.000 A 
ATOM     28  C   UNL     1      -2.189  13.330  22.699  0.00  0.00    +0.000 A 
ATOM     29  N   UNL     1      -2.657  12.247  23.353  0.00  0.00    +0.000 NA
ATOM     30  C   UNL     1      -1.899  11.128  23.293  0.00  0.00    +0.000 A 
ENDBRANCH  24  25
ENDBRANCH  22  24
ENDBRANCH   6  22
TORSDOF 6
ENDMDL
MODEL 6
REMARK VINA RESULT:      -7.4      0.932      1.142
REMARK  Name = 
REMARK  10 active torsions:
REMARK  status: ('A' for Active; 'I' for Inactive)
REMARK    1  A    between atoms: C_1  and  O_2
REMARK    2  A    between atoms: O_2  and  C_3
REMARK    3  A    between atoms: C_6  and  C_7
REMARK    4  A    between atoms: C_8  and  C_9
REMARK    5  A    between atoms: C_12  and  N_13
REMARK    6  A    between atoms: N_13  and  C_14
REMARK    7  A    between atoms: C_14  and  C_15
REMARK    8  A    between atoms: C_22  and  C_23
REMARK    9  A    between atoms: C_27  and  O_28
REMARK   10  A    between atoms: O_28  and  C_29
REMARK                            x       y       z     vdW  Elec       q    Type
REMARK                         _______ _______ _______ _____ _____    ______ ____
ROOT
ATOM      1  C   UNL     1       1.613   8.288  19.531  0.00  0.00    +0.000 A 
ATOM      2  C   UNL     1       2.184   8.707  18.290  0.00  0.00    +0.000 A 
ATOM      3  C   UNL     1       2.191  10.055  17.658  0.00  0.00    +0.000 C 
ATOM      4  N   UNL     1       2.809   7.705  17.652  0.00  0.00    +0.000 NA
ATOM      5  N   UNL     1       2.686   6.633  18.483  0.00  0.00    +0.000 N 
ATOM      6  C   UNL     1       3.203   5.325  18.280  0.00  0.00    +0.000 A 
ATOM      7  C   UNL     1       3.009   4.404  19.238  0.00  0.00    +0.000 A 
ATOM      8  C   UNL     1       2.244   4.836  20.442  0.00  0.00    +0.000 A 
ATOM      9  C   UNL     1       2.006   3.810  21.520  0.00  0.00    +0.000 C 
ATOM     10  N   UNL     1       1.760   6.027  20.629  0.00  0.00    +0.000 NA
ATOM     11  C   UNL     1       1.979   6.956  19.645  0.00  0.00    +0.000 A 
ENDROOT
BRANCH   1  15
ATOM     12  C   UNL     1      -0.492  10.638  22.446  0.00  0.00    +0.000 A 
ATOM     13  C   UNL     1       0.421   9.656  22.842  0.00  0.00    +0.000 A 
ATOM     14  C   UNL     1       1.114   8.890  21.903  0.00  0.00    +0.000 A 
ATOM     15  C   UNL     1       0.847   9.026  20.533  0.00  0.00    +0.000 A 
ATOM     16  C   UNL     1      -0.171   9.906  20.162  0.00  0.00    +0.000 A 
ATOM     17  C   UNL     1      -0.826  10.736  21.088  0.00  0.00    +0.000 A 
BRANCH  12  19
ATOM     18  C   UNL     1      -0.979  12.868  23.069  0.00  0.00    +0.000 C 
ATOM     19  O   UNL     1      -1.075  11.472  23.360  0.00  0.00    +0.000 OA
ENDBRANCH  12  19
BRANCH  17  20
ATOM     20  O   UNL     1      -1.720  11.572  20.472  0.00  0.00    +0.000 OA
ATOM     21  C   UNL     1      -1.289  12.356  19.373  0.00  0.00    +0.000 C 
ENDBRANCH  17  20
ENDBRANCH   1  15
BRANCH   6  22
ATOM     22  N   UNL     1       3.867   5.015  17.078  0.00  0.00    +0.000 N 
ATOM     23  H   UNL     1       3.152   4.940  16.344  0.00  0.00    +0.000 HD
BRANCH  22  24
ATOM     24  C   UNL     1       4.894   5.931  16.565  0.00  0.00    +0.000 C 
BRANCH  24  25
ATOM     25  C   UNL     1       6.070   6.031  17.496  0.00  0.00    +0.000 A 
ATOM     26  C   UNL     1       6.923   7.141  17.539  0.00  0.00    +0.000 A 
ATOM     27  C   UNL     1       8.020   7.146  18.396  0.00  0.00    +0.000 A 
ATOM     28  C   UNL     1       8.247   6.026  19.179  0.00  0.00    +0.000 A 
ATOM     29  N   UNL     1       7.469   4.923  19.149  0.00  0.00    +0.000 NA
ATOM     30  C   UNL     1       6.410   4.951  18.309  0.00  0.00    +0.000 A 
ENDBRANCH  24  25
ENDBRANCH  22  24
ENDBRANCH   6  22
TORSDOF 6
ENDMDL
MODEL 7
REMARK VINA RESULT:      -7.3      3.112      5.041
REMARK  Name = 
REMARK  10 active torsions:
REMARK  status: ('A' for Active; 'I' for Inactive)
REMARK    1  A    between atoms: C_1  and  O_2
REMARK    2  A    between atoms: O_2  and  C_3
REMARK    3  A    between atoms: C_6  and  C_7
REMARK    4  A    between atoms: C_8  and  C_9
REMARK    5  A    between atoms: C_12  and  N_13
REMARK    6  A    between atoms: N_13  and  C_14
REMARK    7  A    between atoms: C_14  and  C_15
REMARK    8  A    between atoms: C_22  and  C_23
REMARK    9  A    between atoms: C_27  and  O_28
REMARK   10  A    between atoms: O_28  and  C_29
REMARK                            x       y       z     vdW  Elec       q    Type
REMARK                         _______ _______ _______ _____ _____    ______ ____
ROOT
ATOM      1  C   UNL     1       3.362   5.613  18.039  0.00  0.00    +0.000 A 
ATOM      2  C   UNL     1       3.006   4.423  17.332  0.00  0.00    +0.000 A 
ATOM      3  C   UNL     1       1.733   3.651  17.356  0.00  0.00    +0.000 C 
ATOM      4  N   UNL     1       3.993   3.991  16.531  0.00  0.00    +0.000 NA
ATOM      5  N   UNL     1       4.986   4.912  16.677  0.00  0.00    +0.000 N 
ATOM      6  C   UNL     1       6.246   4.928  16.018  0.00  0.00    +0.000 A 
ATOM      7  C   UNL     1       7.084   5.947  16.264  0.00  0.00    +0.000 A 
ATOM      8  C   UNL     1       6.622   6.980  17.234  0.00  0.00    +0.000 A 
ATOM      9  C   UNL     1       7.557   8.122  17.533  0.00  0.00    +0.000 C 
ATOM     10  N   UNL     1       5.476   6.965  17.849  0.00  0.00    +0.000 NA
ATOM     11  C   UNL     1       4.630   5.923  17.573  0.00  0.00    +0.000 A 
ENDROOT
BRANCH   1  15
ATOM     12  C   UNL     1       1.373   8.056  20.959  0.00  0.00    +0.000 A 
ATOM     13  C   UNL     1       1.632   6.706  21.212  0.00  0.00    +0.000 A 
ATOM     14  C   UNL     1       2.282   5.904  20.272  0.00  0.00    +0.000 A 
ATOM     15  C   UNL     1       2.616   6.412  19.008  0.00  0.00    +0.000 A 
ATOM     16  C   UNL     1       2.220   7.719  18.717  0.00  0.00    +0.000 A 
ATOM     17  C   UNL     1       1.630   8.560  19.677  0.00  0.00    +0.000 A 
BRANCH  12  19
ATOM     18  C   UNL     1      -0.576   8.901  22.001  0.00  0.00    +0.000 C 
ATOM     19  O   UNL     1       0.851   8.870  21.926  0.00  0.00    +0.000 OA
ENDBRANCH  12  19
BRANCH  17  20
ATOM     20  O   UNL     1       1.415   9.819  19.179  0.00  0.00    +0.000 OA
ATOM     21  C   UNL     1       0.423  10.011  18.186  0.00  0.00    +0.000 C 
ENDBRANCH  17  20
ENDBRANCH   1  15
BRANCH   6  22
ATOM     22  N   UNL     1       6.598   3.870  15.159  0.00  0.00    +0.000 N 
ATOM     23  H   UNL     1       5.776   3.260  15.071  0.00  0.00    +0.000 HD
BRANCH  22  24
ATOM     24  C   UNL     1       7.041   4.169  13.790  0.00  0.00    +0.000 C 
BRANCH  24  25
ATOM     25  C   UNL     1       6.142   3.541  12.762  0.00  0.00    +0.000 A 
ATOM     26  C   UNL     1       4.864   4.028  12.459  0.00  0.00    +0.000 A 
ATOM     27  C   UNL     1       4.067   3.369  11.527  0.00  0.00    +0.000 A 
ATOM     28  C   UNL     1       4.566   2.221  10.933  0.00  0.00    +0.000 A 
ATOM     29  N   UNL     1       5.777   1.698  11.216  0.00  0.00    +0.000 NA
ATOM     30  C   UNL     1       6.528   2.364  12.123  0.00  0.00    +0.000 A 
ENDBRANCH  24  25
ENDBRANCH  22  24
ENDBRANCH   6  22
TORSDOF 6
ENDMDL
MODEL 8
REMARK VINA RESULT:      -7.3      4.621      9.684
REMARK  Name = 
REMARK  10 active torsions:
REMARK  status: ('A' for Active; 'I' for Inactive)
REMARK    1  A    between atoms: C_1  and  O_2
REMARK    2  A    between atoms: O_2  and  C_3
REMARK    3  A    between atoms: C_6  and  C_7
REMARK    4  A    between atoms: C_8  and  C_9
REMARK    5  A    between atoms: C_12  and  N_13
REMARK    6  A    between atoms: N_13  and  C_14
REMARK    7  A    between atoms: C_14  and  C_15
REMARK    8  A    between atoms: C_22  and  C_23
REMARK    9  A    between atoms: C_27  and  O_28
REMARK   10  A    between atoms: O_28  and  C_29
REMARK                            x       y       z     vdW  Elec       q    Type
REMARK                         _______ _______ _______ _____ _____    ______ ____
ROOT
ATOM      1  C   UNL     1      -0.257  10.041  19.254  0.00  0.00    +0.000 A 
ATOM      2  C   UNL     1      -0.487  10.879  20.388  0.00  0.00    +0.000 A 
ATOM      3  C   UNL     1       0.336  11.060  21.616  0.00  0.00    +0.000 C 
ATOM      4  N   UNL     1      -1.614  11.598  20.270  0.00  0.00    +0.000 NA
ATOM      5  N   UNL     1      -2.110  11.268  19.045  0.00  0.00    +0.000 N 
ATOM      6  C   UNL     1      -3.284  11.780  18.428  0.00  0.00    +0.000 A 
ATOM      7  C   UNL     1      -3.592  11.358  17.190  0.00  0.00    +0.000 A 
ATOM      8  C   UNL     1      -2.672  10.363  16.570  0.00  0.00    +0.000 A 
ATOM      9  C   UNL     1      -3.012   9.869  15.188  0.00  0.00    +0.000 C 
ATOM     10  N   UNL     1      -1.604   9.883  17.133  0.00  0.00    +0.000 NA
ATOM     11  C   UNL     1      -1.300  10.336  18.391  0.00  0.00    +0.000 A 
ENDROOT
BRANCH   1  15
ATOM     12  C   UNL     1       3.047   7.392  18.536  0.00  0.00    +0.000 A 
ATOM     13  C   UNL     1       2.713   8.385  17.612  0.00  0.00    +0.000 A 
ATOM     14  C   UNL     1       1.645   9.255  17.837  0.00  0.00    +0.000 A 
ATOM     15  C   UNL     1       0.820   9.097  18.961  0.00  0.00    +0.000 A 
ATOM     16  C   UNL     1       1.078   8.011  19.799  0.00  0.00    +0.000 A 
ATOM     17  C   UNL     1       2.192   7.171  19.625  0.00  0.00    +0.000 A 
BRANCH  12  19
ATOM     18  C   UNL     1       4.031   5.510  17.491  0.00  0.00    +0.000 C 
ATOM     19  O   UNL     1       4.168   6.624  18.376  0.00  0.00    +0.000 OA
ENDBRANCH  12  19
BRANCH  17  20
ATOM     20  O   UNL     1       2.279   6.236  20.623  0.00  0.00    +0.000 OA
ATOM     21  C   UNL     1       1.681   4.966  20.435  0.00  0.00    +0.000 C 
ENDBRANCH  17  20
ENDBRANCH   1  15
BRANCH   6  22
ATOM     22  N   UNL     1      -4.108  12.679  19.130  0.00  0.00    +0.000 N 
ATOM     23  H   UNL     1      -3.693  13.614  19.033  0.00  0.00    +0.000 HD
BRANCH  22  24
ATOM     24  C   UNL     1      -5.521  12.811  18.750  0.00  0.00    +0.000 C 
BRANCH  24  25
ATOM     25  C   UNL     1      -6.407  11.919  19.574  0.00  0.00    +0.000 A 
ATOM     26  C   UNL     1      -7.007  12.327  20.771  0.00  0.00    +0.000 A 
ATOM     27  C   UNL     1      -7.780  11.432  21.506  0.00  0.00    +0.000 A 
ATOM     28  C   UNL     1      -7.916  10.138  21.030  0.00  0.00    +0.000 A 
ATOM     29  N   UNL     1      -7.333   9.692  19.898  0.00  0.00    +0.000 NA
ATOM     30  C   UNL     1      -6.591  10.587  19.205  0.00  0.00    +0.000 A 
ENDBRANCH  24  25
ENDBRANCH  22  24
ENDBRANCH   6  22
TORSDOF 6
ENDMDL
MODEL 9
REMARK VINA RESULT:      -7.3      4.435      9.686
REMARK  Name = 
REMARK  10 active torsions:
REMARK  status: ('A' for Active; 'I' for Inactive)
REMARK    1  A    between atoms: C_1  and  O_2
REMARK    2  A    between atoms: O_2  and  C_3
REMARK    3  A    between atoms: C_6  and  C_7
REMARK    4  A    between atoms: C_8  and  C_9
REMARK    5  A    between atoms: C_12  and  N_13
REMARK    6  A    between atoms: N_13  and  C_14
REMARK    7  A    between atoms: C_14  and  C_15
REMARK    8  A    between atoms: C_22  and  C_23
REMARK    9  A    between atoms: C_27  and  O_28
REMARK   10  A    between atoms: O_28  and  C_29
REMARK                            x       y       z     vdW  Elec       q    Type
REMARK                         _______ _______ _______ _____ _____    ______ ____
ROOT
ATOM      1  C   UNL     1       0.155   9.867  19.346  0.00  0.00    +0.000 A 
ATOM      2  C   UNL     1       0.025  10.649  20.536  0.00  0.00    +0.000 A 
ATOM      3  C   UNL     1       0.926  10.734  21.718  0.00  0.00    +0.000 C 
ATOM      4  N   UNL     1      -1.080  11.413  20.525  0.00  0.00    +0.000 NA
ATOM      5  N   UNL     1      -1.660  11.167  19.317  0.00  0.00    +0.000 N 
ATOM      6  C   UNL     1      -2.848  11.752  18.801  0.00  0.00    +0.000 A 
ATOM      7  C   UNL     1      -3.246  11.410  17.564  0.00  0.00    +0.000 A 
ATOM      8  C   UNL     1      -2.403  10.419  16.837  0.00  0.00    +0.000 A 
ATOM      9  C   UNL     1      -2.843  10.013  15.455  0.00  0.00    +0.000 C 
ATOM     10  N   UNL     1      -1.321   9.872  17.308  0.00  0.00    +0.000 NA
ATOM     11  C   UNL     1      -0.926  10.245  18.567  0.00  0.00    +0.000 A 
ENDROOT
BRANCH   1  15
ATOM     12  C   UNL     1       3.306   7.145  18.293  0.00  0.00    +0.000 A 
ATOM     13  C   UNL     1       2.975   8.215  17.456  0.00  0.00    +0.000 A 
ATOM     14  C   UNL     1       1.957   9.109  17.792  0.00  0.00    +0.000 A 
ATOM     15  C   UNL     1       1.176   8.904  18.939  0.00  0.00    +0.000 A 
ATOM     16  C   UNL     1       1.423   7.751  19.686  0.00  0.00    +0.000 A 
ATOM     17  C   UNL     1       2.491   6.882  19.402  0.00  0.00    +0.000 A 
BRANCH  12  19
ATOM     18  C   UNL     1       4.970   6.512  16.734  0.00  0.00    +0.000 C 
ATOM     19  O   UNL     1       4.384   6.346  18.027  0.00  0.00    +0.000 OA
ENDBRANCH  12  19
BRANCH  17  20
ATOM     20  O   UNL     1       2.580   5.875  20.327  0.00  0.00    +0.000 OA
ATOM     21  C   UNL     1       1.462   5.032  20.543  0.00  0.00    +0.000 C 
ENDBRANCH  17  20
ENDBRANCH   1  15
BRANCH   6  22
ATOM     22  N   UNL     1      -3.594  12.640  19.599  0.00  0.00    +0.000 N 
ATOM     23  H   UNL     1      -3.300  13.593  19.354  0.00  0.00    +0.000 HD
BRANCH  22  24
ATOM     24  C   UNL     1      -5.061  12.624  19.519  0.00  0.00    +0.000 C 
BRANCH  24  25
ATOM     25  C   UNL     1      -5.694  12.535  20.879  0.00  0.00    +0.000 A 
ATOM     26  C   UNL     1      -7.060  12.298  21.076  0.00  0.00    +0.000 A 
ATOM     27  C   UNL     1      -7.587  12.273  22.365  0.00  0.00    +0.000 A 
ATOM     28  C   UNL     1      -6.730  12.506  23.429  0.00  0.00    +0.000 A 
ATOM     29  N   UNL     1      -5.414  12.768  23.285  0.00  0.00    +0.000 NA
ATOM     30  C   UNL     1      -4.933  12.782  22.021  0.00  0.00    +0.000 A 
ENDBRANCH  24  25
ENDBRANCH  22  24
ENDBRANCH   6  22
TORSDOF 6
ENDMDL
