MODEL 1
REMARK VINA RESULT:      -8.4      0.000      0.000
REMARK  Name = 
REMARK  2 active torsions:
REMARK  status: ('A' for Active; 'I' for Inactive)
REMARK    1  A    between atoms: C_7  and  N_8
REMARK    2  A    between atoms: N_8  and  C_9
REMARK                            x       y       z     vdW  Elec       q    Type
REMARK                         _______ _______ _______ _____ _____    ______ ____
ROOT
ATOM      1  N   UNL     1       6.264   5.340  19.417  0.00  0.00    +0.000 N 
ATOM      2  C   UNL     1       6.707   5.599  18.175  0.00  0.00    +0.000 A 
ATOM      3  N   UNL     1       7.508   6.622  17.899  0.00  0.00    +0.000 NA
ATOM      4  N   UNL     1       7.728   6.507  16.580  0.00  0.00    +0.000 N 
ATOM      5  C   UNL     1       7.084   5.455  15.990  0.00  0.00    +0.000 A 
ATOM      6  C   UNL     1       6.405   4.821  17.026  0.00  0.00    +0.000 A 
ATOM      7  C   UNL     1       5.665   3.654  16.755  0.00  0.00    +0.000 A 
ATOM      8  N   UNL     1       5.605   3.205  15.469  0.00  0.00    +0.000 NA
ATOM      9  C   UNL     1       6.234   3.843  14.469  0.00  0.00    +0.000 A 
ATOM     10  C   UNL     1       6.109   3.365  13.174  0.00  0.00    +0.000 A 
ATOM     11  C   UNL     1       6.746   3.987  12.093  0.00  0.00    +0.000 A 
ATOM     12  C   UNL     1       7.539   5.112  12.302  0.00  0.00    +0.000 A 
ATOM     13  C   UNL     1       7.686   5.625  13.588  0.00  0.00    +0.000 A 
ATOM     14  C   UNL     1       7.024   4.991  14.661  0.00  0.00    +0.000 A 
ATOM     15  H   UNL     1       6.744   5.831  20.162  0.00  0.00    +0.000 HD
ATOM     16  H   UNL     1       6.033   4.381  19.658  0.00  0.00    +0.000 HD
ATOM     17  H   UNL     1       8.338   7.186  16.139  0.00  0.00    +0.000 HD
ENDROOT
BRANCH   7  18
ATOM     18  N   UNL     1       4.971   2.965  17.770  0.00  0.00    +0.000 N 
ATOM     19  H   UNL     1       5.618   2.796  18.533  0.00  0.00    +0.000 HD
BRANCH  18  20
ATOM     20  C   UNL     1       3.662   3.268  18.207  0.00  0.00    +0.000 A 
ATOM     21  C   UNL     1       2.826   4.073  17.423  0.00  0.00    +0.000 A 
ATOM     22  C   UNL     1       1.560   4.449  17.881  0.00  0.00    +0.000 A 
ATOM     23  C   UNL     1       1.127   4.049  19.144  0.00  0.00    +0.000 A 
ATOM     24  C   UNL     1       1.961   3.271  19.942  0.00  0.00    +0.000 A 
ATOM     25 CL   UNL     1       1.447   2.804  21.517  0.00  0.00    +0.000 Cl
ATOM     26  C   UNL     1       3.219   2.886  19.481  0.00  0.00    +0.000 A 
ENDBRANCH  18  20
ENDBRANCH   7  18
TORSDOF 2
ENDMDL
MODEL 2
REMARK VINA RESULT:      -8.4      2.762      6.201
REMARK  Name = 
REMARK  2 active torsions:
REMARK  status: ('A' for Active; 'I' for Inactive)
REMARK    1  A    between atoms: C_7  and  N_8
REMARK    2  A    between atoms: N_8  and  C_9
REMARK                            x       y       z     vdW  Elec       q    Type
REMARK                         _______ _______ _______ _____ _____    ______ ____
ROOT
ATOM      1  N   UNL     1       5.963   7.210  16.408  0.00  0.00    +0.000 N 
ATOM      2  C   UNL     1       4.849   6.760  17.011  0.00  0.00    +0.000 A 
ATOM      3  N   UNL     1       3.899   7.572  17.461  0.00  0.00    +0.000 NA
ATOM      4  N   UNL     1       2.973   6.736  17.956  0.00  0.00    +0.000 N 
ATOM      5  C   UNL     1       3.297   5.412  17.856  0.00  0.00    +0.000 A 
ATOM      6  C   UNL     1       4.535   5.390  17.219  0.00  0.00    +0.000 A 
ATOM      7  C   UNL     1       5.138   4.153  16.922  0.00  0.00    +0.000 A 
ATOM      8  N   UNL     1       4.503   3.010  17.309  0.00  0.00    +0.000 NA
ATOM      9  C   UNL     1       3.326   3.040  17.955  0.00  0.00    +0.000 A 
ATOM     10  C   UNL     1       2.742   1.850  18.358  0.00  0.00    +0.000 A 
ATOM     11  C   UNL     1       1.514   1.821  19.030  0.00  0.00    +0.000 A 
ATOM     12  C   UNL     1       0.838   3.007  19.304  0.00  0.00    +0.000 A 
ATOM     13  C   UNL     1       1.395   4.224  18.918  0.00  0.00    +0.000 A 
ATOM     14  C   UNL     1       2.640   4.231  18.254  0.00  0.00    +0.000 A 
ATOM     15  H   UNL     1       5.940   8.181  16.121  0.00  0.00    +0.000 HD
ATOM     16  H   UNL     1       6.426   6.607  15.735  0.00  0.00    +0.000 HD
ATOM     17  H   UNL     1       2.130   7.140  18.349  0.00  0.00    +0.000 HD
ENDROOT
BRANCH   7  18
ATOM     18  N   UNL     1       6.382   4.075  16.266  0.00  0.00    +0.000 N 
ATOM     19  H   UNL     1       6.926   3.342  16.709  0.00  0.00    +0.000 HD
BRANCH  18  20
ATOM     20  C   UNL     1       6.565   4.132  14.866  0.00  0.00    +0.000 A 
ATOM     21  C   UNL     1       7.593   4.911  14.320  0.00  0.00    +0.000 A 
ATOM     22  C   UNL     1       7.733   5.044  12.935  0.00  0.00    +0.000 A 
ATOM     23  C   UNL     1       6.825   4.423  12.079  0.00  0.00    +0.000 A 
ATOM     24  C   UNL     1       5.783   3.669  12.612  0.00  0.00    +0.000 A 
ATOM     25 CL   UNL     1       4.638   2.929  11.561  0.00  0.00    +0.000 Cl
ATOM     26  C   UNL     1       5.650   3.526  13.992  0.00  0.00    +0.000 A 
ENDBRANCH  18  20
ENDBRANCH   7  18
TORSDOF 2
ENDMDL
MODEL 3
REMARK VINA RESULT:      -8.4      5.209      8.138
REMARK  Name = 
REMARK  2 active torsions:
REMARK  status: ('A' for Active; 'I' for Inactive)
REMARK    1  A    between atoms: C_7  and  N_8
REMARK    2  A    between atoms: N_8  and  C_9
REMARK                            x       y       z     vdW  Elec       q    Type
REMARK                         _______ _______ _______ _____ _____    ______ ____
ROOT
ATOM      1  N   UNL     1       3.121   7.767  17.538  0.00  0.00    +0.000 N 
ATOM      2  C   UNL     1       2.311   8.692  18.079  0.00  0.00    +0.000 A 
ATOM      3  N   UNL     1       1.922   9.778  17.421  0.00  0.00    +0.000 NA
ATOM      4  N   UNL     1       1.120  10.409  18.293  0.00  0.00    +0.000 N 
ATOM      5  C   UNL     1       0.987   9.776  19.498  0.00  0.00    +0.000 A 
ATOM      6  C   UNL     1       1.758   8.622  19.386  0.00  0.00    +0.000 A 
ATOM      7  C   UNL     1       1.801   7.714  20.460  0.00  0.00    +0.000 A 
ATOM      8  N   UNL     1       1.114   8.019  21.599  0.00  0.00    +0.000 NA
ATOM      9  C   UNL     1       0.402   9.151  21.711  0.00  0.00    +0.000 A 
ATOM     10  C   UNL     1      -0.247   9.429  22.904  0.00  0.00    +0.000 A 
ATOM     11  C   UNL     1      -1.007  10.592  23.077  0.00  0.00    +0.000 A 
ATOM     12  C   UNL     1      -1.137  11.505  22.033  0.00  0.00    +0.000 A 
ATOM     13  C   UNL     1      -0.496  11.262  20.820  0.00  0.00    +0.000 A 
ATOM     14  C   UNL     1       0.276  10.091  20.672  0.00  0.00    +0.000 A 
ATOM     15  H   UNL     1       3.243   7.829  16.533  0.00  0.00    +0.000 HD
ATOM     16  H   UNL     1       3.053   6.810  17.871  0.00  0.00    +0.000 HD
ATOM     17  H   UNL     1       0.685  11.275  17.997  0.00  0.00    +0.000 HD
ENDROOT
BRANCH   7  18
ATOM     18  N   UNL     1       2.552   6.524  20.394  0.00  0.00    +0.000 N 
ATOM     19  H   UNL     1       3.076   6.434  21.258  0.00  0.00    +0.000 HD
BRANCH  18  20
ATOM     20  C   UNL     1       2.072   5.288  19.904  0.00  0.00    +0.000 A 
ATOM     21  C   UNL     1       1.215   4.504  20.686  0.00  0.00    +0.000 A 
ATOM     22  C   UNL     1       0.799   3.243  20.249  0.00  0.00    +0.000 A 
ATOM     23  C   UNL     1       1.262   2.738  19.035  0.00  0.00    +0.000 A 
ATOM     24  C   UNL     1       2.136   3.498  18.263  0.00  0.00    +0.000 A 
ATOM     25 CL   UNL     1       2.740   2.864  16.780  0.00  0.00    +0.000 Cl
ATOM     26  C   UNL     1       2.542   4.760  18.693  0.00  0.00    +0.000 A 
ENDBRANCH  18  20
ENDBRANCH   7  18
TORSDOF 2
ENDMDL
MODEL 4
REMARK VINA RESULT:      -8.4      3.577      5.186
REMARK  Name = 
REMARK  2 active torsions:
REMARK  status: ('A' for Active; 'I' for Inactive)
REMARK    1  A    between atoms: C_7  and  N_8
REMARK    2  A    between atoms: N_8  and  C_9
REMARK                            x       y       z     vdW  Elec       q    Type
REMARK                         _______ _______ _______ _____ _____    ______ ____
ROOT
ATOM      1  N   UNL     1       0.659   3.913  20.022  0.00  0.00    +0.000 N 
ATOM      2  C   UNL     1       1.542   3.654  19.042  0.00  0.00    +0.000 A 
ATOM      3  N   UNL     1       1.438   2.598  18.244  0.00  0.00    +0.000 NA
ATOM      4  N   UNL     1       2.483   2.725  17.410  0.00  0.00    +0.000 N 
ATOM      5  C   UNL     1       3.267   3.818  17.651  0.00  0.00    +0.000 A 
ATOM      6  C   UNL     1       2.663   4.467  18.724  0.00  0.00    +0.000 A 
ATOM      7  C   UNL     1       3.210   5.673  19.199  0.00  0.00    +0.000 A 
ATOM      8  N   UNL     1       4.348   6.148  18.614  0.00  0.00    +0.000 NA
ATOM      9  C   UNL     1       4.945   5.497  17.603  0.00  0.00    +0.000 A 
ATOM     10  C   UNL     1       6.119   6.004  17.069  0.00  0.00    +0.000 A 
ATOM     11  C   UNL     1       6.782   5.370  16.011  0.00  0.00    +0.000 A 
ATOM     12  C   UNL     1       6.262   4.203  15.458  0.00  0.00    +0.000 A 
ATOM     13  C   UNL     1       5.086   3.661  15.969  0.00  0.00    +0.000 A 
ATOM     14  C   UNL     1       4.441   4.308  17.045  0.00  0.00    +0.000 A 
ATOM     15  H   UNL     1      -0.206   3.385  19.979  0.00  0.00    +0.000 HD
ATOM     16  H   UNL     1       0.522   4.878  20.306  0.00  0.00    +0.000 HD
ATOM     17  H   UNL     1       2.601   2.024  16.687  0.00  0.00    +0.000 HD
ENDROOT
BRANCH   7  18
ATOM     18  N   UNL     1       2.629   6.379  20.272  0.00  0.00    +0.000 N 
ATOM     19  H   UNL     1       3.308   6.421  21.024  0.00  0.00    +0.000 HD
BRANCH  18  20
ATOM     20  C   UNL     1       1.864   7.560  20.146  0.00  0.00    +0.000 A 
ATOM     21  C   UNL     1       1.896   8.297  18.955  0.00  0.00    +0.000 A 
ATOM     22  C   UNL     1       1.210   9.511  18.846  0.00  0.00    +0.000 A 
ATOM     23  C   UNL     1       0.508  10.016  19.939  0.00  0.00    +0.000 A 
ATOM     24  C   UNL     1       0.492   9.304  21.135  0.00  0.00    +0.000 A 
ATOM     25 CL   UNL     1      -0.343   9.941  22.499  0.00  0.00    +0.000 Cl
ATOM     26  C   UNL     1       1.166   8.089  21.241  0.00  0.00    +0.000 A 
ENDBRANCH  18  20
ENDBRANCH   7  18
TORSDOF 2
ENDMDL
MODEL 5
REMARK VINA RESULT:      -8.3      5.108      8.027
REMARK  Name = 
REMARK  2 active torsions:
REMARK  status: ('A' for Active; 'I' for Inactive)
REMARK    1  A    between atoms: C_7  and  N_8
REMARK    2  A    between atoms: N_8  and  C_9
REMARK                            x       y       z     vdW  Elec       q    Type
REMARK                         _______ _______ _______ _____ _____    ______ ____
ROOT
ATOM      1  N   UNL     1       3.109   7.953  17.386  0.00  0.00    +0.000 N 
ATOM      2  C   UNL     1       2.271   8.826  17.971  0.00  0.00    +0.000 A 
ATOM      3  N   UNL     1       1.803   9.900  17.345  0.00  0.00    +0.000 NA
ATOM      4  N   UNL     1       0.999  10.474  18.254  0.00  0.00    +0.000 N 
ATOM      5  C   UNL     1       0.942   9.817  19.452  0.00  0.00    +0.000 A 
ATOM      6  C   UNL     1       1.767   8.706  19.294  0.00  0.00    +0.000 A 
ATOM      7  C   UNL     1       1.895   7.786  20.350  0.00  0.00    +0.000 A 
ATOM      8  N   UNL     1       1.234   8.036  21.517  0.00  0.00    +0.000 NA
ATOM      9  C   UNL     1       0.468   9.127  21.673  0.00  0.00    +0.000 A 
ATOM     10  C   UNL     1      -0.153   9.352  22.892  0.00  0.00    +0.000 A 
ATOM     11  C   UNL     1      -0.966  10.471  23.110  0.00  0.00    +0.000 A 
ATOM     12  C   UNL     1      -1.180  11.391  22.087  0.00  0.00    +0.000 A 
ATOM     13  C   UNL     1      -0.570  11.202  20.849  0.00  0.00    +0.000 A 
ATOM     14  C   UNL     1       0.257  10.076  20.655  0.00  0.00    +0.000 A 
ATOM     15  H   UNL     1       3.192   8.037  16.380  0.00  0.00    +0.000 HD
ATOM     16  H   UNL     1       3.103   6.989  17.706  0.00  0.00    +0.000 HD
ATOM     17  H   UNL     1       0.510  11.320  17.988  0.00  0.00    +0.000 HD
ENDROOT
BRANCH   7  18
ATOM     18  N   UNL     1       2.705   6.637  20.238  0.00  0.00    +0.000 N 
ATOM     19  H   UNL     1       3.421   6.687  20.955  0.00  0.00    +0.000 HD
BRANCH  18  20
ATOM     20  C   UNL     1       2.226   5.326  20.019  0.00  0.00    +0.000 A 
ATOM     21  C   UNL     1       1.831   4.924  18.737  0.00  0.00    +0.000 A 
ATOM     22  C   UNL     1       1.278   3.659  18.522  0.00  0.00    +0.000 A 
ATOM     23  C   UNL     1       1.084   2.790  19.594  0.00  0.00    +0.000 A 
ATOM     24  C   UNL     1       1.447   3.191  20.877  0.00  0.00    +0.000 A 
ATOM     25 CL   UNL     1       1.176   2.137  22.211  0.00  0.00    +0.000 Cl
ATOM     26  C   UNL     1       2.010   4.448  21.090  0.00  0.00    +0.000 A 
ENDBRANCH  18  20
ENDBRANCH   7  18
TORSDOF 2
ENDMDL
MODEL 6
REMARK VINA RESULT:      -8.1      3.237      6.360
REMARK  Name = 
REMARK  2 active torsions:
REMARK  status: ('A' for Active; 'I' for Inactive)
REMARK    1  A    between atoms: C_7  and  N_8
REMARK    2  A    between atoms: N_8  and  C_9
REMARK                            x       y       z     vdW  Elec       q    Type
REMARK                         _______ _______ _______ _____ _____    ______ ____
ROOT
ATOM      1  N   UNL     1       4.729   1.725  19.680  0.00  0.00    +0.000 N 
ATOM      2  C   UNL     1       3.997   2.816  19.962  0.00  0.00    +0.000 A 
ATOM      3  N   UNL     1       3.218   2.898  21.035  0.00  0.00    +0.000 NA
ATOM      4  N   UNL     1       2.697   4.133  20.956  0.00  0.00    +0.000 N 
ATOM      5  C   UNL     1       3.100   4.847  19.862  0.00  0.00    +0.000 A 
ATOM      6  C   UNL     1       3.977   4.004  19.184  0.00  0.00    +0.000 A 
ATOM      7  C   UNL     1       4.612   4.464  18.015  0.00  0.00    +0.000 A 
ATOM      8  N   UNL     1       4.312   5.714  17.560  0.00  0.00    +0.000 NA
ATOM      9  C   UNL     1       3.438   6.507  18.200  0.00  0.00    +0.000 A 
ATOM     10  C   UNL     1       3.142   7.755  17.673  0.00  0.00    +0.000 A 
ATOM     11  C   UNL     1       2.242   8.625  18.300  0.00  0.00    +0.000 A 
ATOM     12  C   UNL     1       1.623   8.253  19.491  0.00  0.00    +0.000 A 
ATOM     13  C   UNL     1       1.892   7.006  20.049  0.00  0.00    +0.000 A 
ATOM     14  C   UNL     1       2.791   6.139  19.393  0.00  0.00    +0.000 A 
ATOM     15  H   UNL     1       4.826   1.058  20.436  0.00  0.00    +0.000 HD
ATOM     16  H   UNL     1       5.583   1.842  19.141  0.00  0.00    +0.000 HD
ATOM     17  H   UNL     1       2.069   4.431  21.693  0.00  0.00    +0.000 HD
ENDROOT
BRANCH   7  18
ATOM     18  N   UNL     1       5.520   3.658  17.299  0.00  0.00    +0.000 N 
ATOM     19  H   UNL     1       5.207   2.696  17.369  0.00  0.00    +0.000 HD
BRANCH  18  20
ATOM     20  C   UNL     1       6.063   3.976  16.035  0.00  0.00    +0.000 A 
ATOM     21  C   UNL     1       7.132   4.877  15.933  0.00  0.00    +0.000 A 
ATOM     22  C   UNL     1       7.624   5.264  14.683  0.00  0.00    +0.000 A 
ATOM     23  C   UNL     1       7.032   4.779  13.518  0.00  0.00    +0.000 A 
ATOM     24  C   UNL     1       5.952   3.906  13.609  0.00  0.00    +0.000 A 
ATOM     25 CL   UNL     1       5.193   3.332  12.174  0.00  0.00    +0.000 Cl
ATOM     26  C   UNL     1       5.468   3.510  14.854  0.00  0.00    +0.000 A 
ENDBRANCH  18  20
ENDBRANCH   7  18
TORSDOF 2
ENDMDL
MODEL 7
REMARK VINA RESULT:      -8.0      2.621      6.097
REMARK  Name = 
REMARK  2 active torsions:
REMARK  status: ('A' for Active; 'I' for Inactive)
REMARK    1  A    between atoms: C_7  and  N_8
REMARK    2  A    between atoms: N_8  and  C_9
REMARK                            x       y       z     vdW  Elec       q    Type
REMARK                         _______ _______ _______ _____ _____    ______ ____
ROOT
ATOM      1  N   UNL     1       7.732   6.441  17.032  0.00  0.00    +0.000 N 
ATOM      2  C   UNL     1       7.024   5.694  17.897  0.00  0.00    +0.000 A 
ATOM      3  N   UNL     1       7.388   5.526  19.163  0.00  0.00    +0.000 NA
ATOM      4  N   UNL     1       6.416   4.752  19.673  0.00  0.00    +0.000 N 
ATOM      5  C   UNL     1       5.445   4.402  18.777  0.00  0.00    +0.000 A 
ATOM      6  C   UNL     1       5.811   5.023  17.586  0.00  0.00    +0.000 A 
ATOM      7  C   UNL     1       4.982   4.894  16.457  0.00  0.00    +0.000 A 
ATOM      8  N   UNL     1       3.860   4.125  16.556  0.00  0.00    +0.000 NA
ATOM      9  C   UNL     1       3.533   3.500  17.699  0.00  0.00    +0.000 A 
ATOM     10  C   UNL     1       2.401   2.700  17.734  0.00  0.00    +0.000 A 
ATOM     11  C   UNL     1       2.009   2.029  18.899  0.00  0.00    +0.000 A 
ATOM     12  C   UNL     1       2.755   2.160  20.067  0.00  0.00    +0.000 A 
ATOM     13  C   UNL     1       3.901   2.952  20.070  0.00  0.00    +0.000 A 
ATOM     14  C   UNL     1       4.286   3.608  18.882  0.00  0.00    +0.000 A 
ATOM     15  H   UNL     1       8.434   7.042  17.449  0.00  0.00    +0.000 HD
ATOM     16  H   UNL     1       7.242   6.879  16.258  0.00  0.00    +0.000 HD
ATOM     17  H   UNL     1       6.475   4.500  20.653  0.00  0.00    +0.000 HD
ENDROOT
BRANCH   7  18
ATOM     18  N   UNL     1       5.298   5.515  15.231  0.00  0.00    +0.000 N 
ATOM     19  H   UNL     1       5.637   6.450  15.431  0.00  0.00    +0.000 HD
BRANCH  18  20
ATOM     20  C   UNL     1       5.978   4.893  14.160  0.00  0.00    +0.000 A 
ATOM     21  C   UNL     1       7.217   5.386  13.730  0.00  0.00    +0.000 A 
ATOM     22  C   UNL     1       7.861   4.833  12.619  0.00  0.00    +0.000 A 
ATOM     23  C   UNL     1       7.257   3.800  11.905  0.00  0.00    +0.000 A 
ATOM     24  C   UNL     1       6.013   3.322  12.307  0.00  0.00    +0.000 A 
ATOM     25 CL   UNL     1       5.246   2.070  11.408  0.00  0.00    +0.000 Cl
ATOM     26  C   UNL     1       5.377   3.864  13.422  0.00  0.00    +0.000 A 
ENDBRANCH  18  20
ENDBRANCH   7  18
TORSDOF 2
ENDMDL
MODEL 8
REMARK VINA RESULT:      -8.0      3.523      6.696
REMARK  Name = 
REMARK  2 active torsions:
REMARK  status: ('A' for Active; 'I' for Inactive)
REMARK    1  A    between atoms: C_7  and  N_8
REMARK    2  A    between atoms: N_8  and  C_9
REMARK                            x       y       z     vdW  Elec       q    Type
REMARK                         _______ _______ _______ _____ _____    ______ ____
ROOT
ATOM      1  N   UNL     1       3.608   2.122  19.738  0.00  0.00    +0.000 N 
ATOM      2  C   UNL     1       3.090   3.287  20.164  0.00  0.00    +0.000 A 
ATOM      3  N   UNL     1       2.636   3.460  21.401  0.00  0.00    +0.000 NA
ATOM      4  N   UNL     1       2.240   4.742  21.418  0.00  0.00    +0.000 N 
ATOM      5  C   UNL     1       2.408   5.401  20.232  0.00  0.00    +0.000 A 
ATOM      6  C   UNL     1       2.984   4.465  19.377  0.00  0.00    +0.000 A 
ATOM      7  C   UNL     1       3.328   4.846  18.067  0.00  0.00    +0.000 A 
ATOM      8  N   UNL     1       3.045   6.117  17.663  0.00  0.00    +0.000 NA
ATOM      9  C   UNL     1       2.457   7.004  18.482  0.00  0.00    +0.000 A 
ATOM     10  C   UNL     1       2.158   8.271  18.008  0.00  0.00    +0.000 A 
ATOM     11  C   UNL     1       1.549   9.237  18.818  0.00  0.00    +0.000 A 
ATOM     12  C   UNL     1       1.235   8.942  20.142  0.00  0.00    +0.000 A 
ATOM     13  C   UNL     1       1.516   7.678  20.653  0.00  0.00    +0.000 A 
ATOM     14  C   UNL     1       2.116   6.715  19.816  0.00  0.00    +0.000 A 
ATOM     15  H   UNL     1       3.834   1.454  20.465  0.00  0.00    +0.000 HD
ATOM     16  H   UNL     1       4.295   2.144  18.990  0.00  0.00    +0.000 HD
ATOM     17  H   UNL     1       1.863   5.111  22.284  0.00  0.00    +0.000 HD
ENDROOT
BRANCH   7  18
ATOM     18  N   UNL     1       3.927   3.942  17.166  0.00  0.00    +0.000 N 
ATOM     19  H   UNL     1       3.190   3.497  16.631  0.00  0.00    +0.000 HD
BRANCH  18  20
ATOM     20  C   UNL     1       5.086   4.208  16.403  0.00  0.00    +0.000 A 
ATOM     21  C   UNL     1       6.120   4.987  16.938  0.00  0.00    +0.000 A 
ATOM     22  C   UNL     1       7.234   5.327  16.165  0.00  0.00    +0.000 A 
ATOM     23  C   UNL     1       7.313   4.917  14.835  0.00  0.00    +0.000 A 
ATOM     24  C   UNL     1       6.278   4.166  14.286  0.00  0.00    +0.000 A 
ATOM     25 CL   UNL     1       6.352   3.687  12.634  0.00  0.00    +0.000 Cl
ATOM     26  C   UNL     1       5.172   3.816  15.059  0.00  0.00    +0.000 A 
ENDBRANCH  18  20
ENDBRANCH   7  18
TORSDOF 2
ENDMDL
MODEL 9
REMARK VINA RESULT:      -8.0      3.653      5.387
REMARK  Name = 
REMARK  2 active torsions:
REMARK  status: ('A' for Active; 'I' for Inactive)
REMARK    1  A    between atoms: C_7  and  N_8
REMARK    2  A    between atoms: N_8  and  C_9
REMARK                            x       y       z     vdW  Elec       q    Type
REMARK                         _______ _______ _______ _____ _____    ______ ____
ROOT
ATOM      1  N   UNL     1       0.555   3.658  20.036  0.00  0.00    +0.000 N 
ATOM      2  C   UNL     1       1.472   3.473  19.071  0.00  0.00    +0.000 A 
ATOM      3  N   UNL     1       1.408   2.468  18.204  0.00  0.00    +0.000 NA
ATOM      4  N   UNL     1       2.475   2.662  17.413  0.00  0.00    +0.000 N 
ATOM      5  C   UNL     1       3.235   3.749  17.747  0.00  0.00    +0.000 A 
ATOM      6  C   UNL     1       2.589   4.320  18.839  0.00  0.00    +0.000 A 
ATOM      7  C   UNL     1       3.103   5.501  19.406  0.00  0.00    +0.000 A 
ATOM      8  N   UNL     1       4.250   6.027  18.887  0.00  0.00    +0.000 NA
ATOM      9  C   UNL     1       4.887   5.450  17.856  0.00  0.00    +0.000 A 
ATOM     10  C   UNL     1       6.069   6.005  17.392  0.00  0.00    +0.000 A 
ATOM     11  C   UNL     1       6.773   5.449  16.317  0.00  0.00    +0.000 A 
ATOM     12  C   UNL     1       6.288   4.313  15.675  0.00  0.00    +0.000 A 
ATOM     13  C   UNL     1       5.105   3.723  16.115  0.00  0.00    +0.000 A 
ATOM     14  C   UNL     1       4.419   4.291  17.209  0.00  0.00    +0.000 A 
ATOM     15  H   UNL     1      -0.299   3.122  19.933  0.00  0.00    +0.000 HD
ATOM     16  H   UNL     1       0.395   4.601  20.377  0.00  0.00    +0.000 HD
ATOM     17  H   UNL     1       2.626   2.011  16.651  0.00  0.00    +0.000 HD
ENDROOT
BRANCH   7  18
ATOM     18  N   UNL     1       2.479   6.129  20.503  0.00  0.00    +0.000 N 
ATOM     19  H   UNL     1       3.092   6.040  21.305  0.00  0.00    +0.000 HD
BRANCH  18  20
ATOM     20  C   UNL     1       1.806   7.370  20.450  0.00  0.00    +0.000 A 
ATOM     21  C   UNL     1       0.889   7.718  21.450  0.00  0.00    +0.000 A 
ATOM     22  C   UNL     1       0.155   8.905  21.367  0.00  0.00    +0.000 A 
ATOM     23  C   UNL     1       0.308   9.745  20.265  0.00  0.00    +0.000 A 
ATOM     24  C   UNL     1       1.197   9.395  19.253  0.00  0.00    +0.000 A 
ATOM     25 CL   UNL     1       1.365  10.410  17.872  0.00  0.00    +0.000 Cl
ATOM     26  C   UNL     1       1.938   8.218  19.341  0.00  0.00    +0.000 A 
ENDBRANCH  18  20
ENDBRANCH   7  18
TORSDOF 2
ENDMDL
