MODEL 1
REMARK VINA RESULT:      -6.7      0.000      0.000
REMARK  Name = 
REMARK  13 active torsions:
REMARK  status: ('A' for Active; 'I' for Inactive)
REMARK    1  A    between atoms: C_1  and  C_2
REMARK    2  A    between atoms: C_2  and  C_3
REMARK    3  A    between atoms: C_4  and  C_5
REMARK    4  A    between atoms: C_7  and  O_8
REMARK    5  A    between atoms: C_9  and  N_10
REMARK    6  A    between atoms: N_10  and  C_11
REMARK    7  A    between atoms: N_10  and  C_12
REMARK    8  A    between atoms: C_12  and  C_13
REMARK    9  A    between atoms: C_13  and  O_14
REMARK   10  A    between atoms: O_14  and  C_15
REMARK   11  A    between atoms: C_16  and  C_17
REMARK   12  A    between atoms: C_17  and  C_19
REMARK   13  A    between atoms: C_23  and  C_24
REMARK                            x       y       z     vdW  Elec       q    Type
REMARK                         _______ _______ _______ _____ _____    ______ ____
ROOT
ATOM      1  C   UNL     1       6.767   5.839  17.835  0.00  0.00    +0.000 A 
ATOM      2  C   UNL     1       6.963   5.437  19.164  0.00  0.00    +0.000 A 
ATOM      3  C   UNL     1       8.129   5.848  20.022  0.00  0.00    +0.000 C 
ATOM      4  N   UNL     1       6.141   4.580  19.784  0.00  0.00    +0.000 NA
ATOM      5  C   UNL     1       5.061   4.156  19.112  0.00  0.00    +0.000 A 
ATOM      6  C   UNL     1       4.637   4.518  17.818  0.00  0.00    +0.000 A 
ATOM      7  C   UNL     1       5.566   5.392  17.157  0.00  0.00    +0.000 A 
ENDROOT
BRANCH   1   9
ATOM      8  C   UNL     1       7.624   8.218  17.550  0.00  0.00    +0.000 C 
ATOM      9  C   UNL     1       7.827   6.745  17.219  0.00  0.00    +0.000 C 
ENDBRANCH   1   9
BRANCH   5  10
ATOM     10  O   UNL     1       4.414   3.247  19.882  0.00  0.00    +0.000 OA
ATOM     11  H   UNL     1       5.129   3.048  20.514  0.00  0.00    +0.000 HD
ENDBRANCH   5  10
BRANCH   6  12
ATOM     12  N   UNL     1       3.392   4.101  17.294  0.00  0.00    +0.000 N 
ATOM     13  C   UNL     1       3.221   2.710  16.848  0.00  0.00    +0.000 C 
BRANCH  12  14
ATOM     14  C   UNL     1       2.115   4.634  17.853  0.00  0.00    +0.000 C 
BRANCH  14  15
ATOM     15  C   UNL     1       1.222   3.578  18.514  0.00  0.00    +0.000 C 
BRANCH  15  16
ATOM     16  O   UNL     1       0.926   4.006  19.851  0.00  0.00    +0.000 OA
ATOM     17  C   UNL     1       1.645   5.179  20.203  0.00  0.00    +0.000 C 
ENDBRANCH  15  16
ENDBRANCH  14  15
ENDBRANCH  12  14
ENDBRANCH   6  12
BRANCH   7  18
ATOM     18  C   UNL     1       5.410   5.800  15.717  0.00  0.00    +0.000 C 
ATOM     19  O   UNL     1       4.828   6.862  15.485  0.00  0.00    +0.000 OA
BRANCH  18  20
ATOM     20  C   UNL     1       5.972   5.090  14.528  0.00  0.00    +0.000 A 
ATOM     21  C   UNL     1       7.304   5.178  14.125  0.00  0.00    +0.000 A 
ATOM     22  C   UNL     1       7.702   4.603  12.912  0.00  0.00    +0.000 A 
ATOM     23  C   UNL     1       6.788   3.903  12.117  0.00  0.00    +0.000 A 
ATOM     24  C   UNL     1       5.462   3.757  12.529  0.00  0.00    +0.000 A 
ATOM     25  C   UNL     1       4.467   2.988  11.710  0.00  0.00    +0.000 C 
ATOM     26  C   UNL     1       5.066   4.353  13.735  0.00  0.00    +0.000 A 
ENDBRANCH  18  20
ENDBRANCH   7  18
TORSDOF 8
ENDMDL
MODEL 2
REMARK VINA RESULT:      -6.4      1.076      1.252
REMARK  Name = 
REMARK  13 active torsions:
REMARK  status: ('A' for Active; 'I' for Inactive)
REMARK    1  A    between atoms: C_1  and  C_2
REMARK    2  A    between atoms: C_2  and  C_3
REMARK    3  A    between atoms: C_4  and  C_5
REMARK    4  A    between atoms: C_7  and  O_8
REMARK    5  A    between atoms: C_9  and  N_10
REMARK    6  A    between atoms: N_10  and  C_11
REMARK    7  A    between atoms: N_10  and  C_12
REMARK    8  A    between atoms: C_12  and  C_13
REMARK    9  A    between atoms: C_13  and  O_14
REMARK   10  A    between atoms: O_14  and  C_15
REMARK   11  A    between atoms: C_16  and  C_17
REMARK   12  A    between atoms: C_17  and  C_19
REMARK   13  A    between atoms: C_23  and  C_24
REMARK                            x       y       z     vdW  Elec       q    Type
REMARK                         _______ _______ _______ _____ _____    ______ ____
ROOT
ATOM      1  C   UNL     1       6.757   5.813  17.873  0.00  0.00    +0.000 A 
ATOM      2  C   UNL     1       6.944   5.402  19.201  0.00  0.00    +0.000 A 
ATOM      3  C   UNL     1       8.120   5.783  20.060  0.00  0.00    +0.000 C 
ATOM      4  N   UNL     1       6.101   4.564  19.819  0.00  0.00    +0.000 NA
ATOM      5  C   UNL     1       5.011   4.169  19.146  0.00  0.00    +0.000 A 
ATOM      6  C   UNL     1       4.595   4.545  17.853  0.00  0.00    +0.000 A 
ATOM      7  C   UNL     1       5.546   5.397  17.194  0.00  0.00    +0.000 A 
ENDROOT
BRANCH   1   9
ATOM      8  C   UNL     1       7.641   8.177  17.549  0.00  0.00    +0.000 C 
ATOM      9  C   UNL     1       7.839   6.695  17.260  0.00  0.00    +0.000 C 
ENDBRANCH   1   9
BRANCH   5  10
ATOM     10  O   UNL     1       4.342   3.273  19.914  0.00  0.00    +0.000 OA
ATOM     11  H   UNL     1       4.085   2.640  19.219  0.00  0.00    +0.000 HD
ENDBRANCH   5  10
BRANCH   6  12
ATOM     12  N   UNL     1       3.341   4.159  17.328  0.00  0.00    +0.000 N 
ATOM     13  C   UNL     1       3.066   2.738  17.074  0.00  0.00    +0.000 C 
BRANCH  12  14
ATOM     14  C   UNL     1       2.094   4.870  17.738  0.00  0.00    +0.000 C 
BRANCH  14  15
ATOM     15  C   UNL     1       2.330   6.129  18.579  0.00  0.00    +0.000 C 
BRANCH  15  16
ATOM     16  O   UNL     1       2.265   7.272  17.715  0.00  0.00    +0.000 OA
ATOM     17  C   UNL     1       2.113   8.480  18.445  0.00  0.00    +0.000 C 
ENDBRANCH  15  16
ENDBRANCH  14  15
ENDBRANCH  12  14
ENDBRANCH   6  12
BRANCH   7  18
ATOM     18  C   UNL     1       5.399   5.813  15.755  0.00  0.00    +0.000 C 
ATOM     19  O   UNL     1       4.824   6.879  15.525  0.00  0.00    +0.000 OA
BRANCH  18  20
ATOM     20  C   UNL     1       5.965   5.106  14.566  0.00  0.00    +0.000 A 
ATOM     21  C   UNL     1       7.297   5.196  14.166  0.00  0.00    +0.000 A 
ATOM     22  C   UNL     1       7.697   4.623  12.952  0.00  0.00    +0.000 A 
ATOM     23  C   UNL     1       6.785   3.923  12.155  0.00  0.00    +0.000 A 
ATOM     24  C   UNL     1       5.459   3.776  12.565  0.00  0.00    +0.000 A 
ATOM     25  C   UNL     1       4.466   3.007  11.743  0.00  0.00    +0.000 C 
ATOM     26  C   UNL     1       5.060   4.368  13.771  0.00  0.00    +0.000 A 
ENDBRANCH  18  20
ENDBRANCH   7  18
TORSDOF 8
ENDMDL
MODEL 3
REMARK VINA RESULT:      -6.3      7.765     10.215
REMARK  Name = 
REMARK  13 active torsions:
REMARK  status: ('A' for Active; 'I' for Inactive)
REMARK    1  A    between atoms: C_1  and  C_2
REMARK    2  A    between atoms: C_2  and  C_3
REMARK    3  A    between atoms: C_4  and  C_5
REMARK    4  A    between atoms: C_7  and  O_8
REMARK    5  A    between atoms: C_9  and  N_10
REMARK    6  A    between atoms: N_10  and  C_11
REMARK    7  A    between atoms: N_10  and  C_12
REMARK    8  A    between atoms: C_12  and  C_13
REMARK    9  A    between atoms: C_13  and  O_14
REMARK   10  A    between atoms: O_14  and  C_15
REMARK   11  A    between atoms: C_16  and  C_17
REMARK   12  A    between atoms: C_17  and  C_19
REMARK   13  A    between atoms: C_23  and  C_24
REMARK                            x       y       z     vdW  Elec       q    Type
REMARK                         _______ _______ _______ _____ _____    ______ ____
ROOT
ATOM      1  C   UNL     1       0.468   9.813  19.816  0.00  0.00    +0.000 A 
ATOM      2  C   UNL     1       0.957   8.873  20.734  0.00  0.00    +0.000 A 
ATOM      3  C   UNL     1       1.787   7.671  20.373  0.00  0.00    +0.000 C 
ATOM      4  N   UNL     1       0.670   8.929  22.042  0.00  0.00    +0.000 NA
ATOM      5  C   UNL     1      -0.058   9.969  22.475  0.00  0.00    +0.000 A 
ATOM      6  C   UNL     1      -0.553  11.061  21.735  0.00  0.00    +0.000 A 
ATOM      7  C   UNL     1      -0.281  10.943  20.329  0.00  0.00    +0.000 A 
ENDROOT
BRANCH   1   9
ATOM      8  C   UNL     1       2.084  10.255  17.901  0.00  0.00    +0.000 C 
ATOM      9  C   UNL     1       0.793   9.581  18.345  0.00  0.00    +0.000 C 
ENDBRANCH   1   9
BRANCH   5  10
ATOM     10  O   UNL     1      -0.298   9.794  23.798  0.00  0.00    +0.000 OA
ATOM     11  H   UNL     1      -1.112   9.263  23.736  0.00  0.00    +0.000 HD
ENDBRANCH   5  10
BRANCH   6  12
ATOM     12  N   UNL     1      -1.184  12.163  22.356  0.00  0.00    +0.000 N 
ATOM     13  C   UNL     1      -0.541  13.484  22.316  0.00  0.00    +0.000 C 
BRANCH  12  14
ATOM     14  C   UNL     1      -2.670  12.300  22.334  0.00  0.00    +0.000 C 
BRANCH  14  15
ATOM     15  C   UNL     1      -3.331  12.262  23.716  0.00  0.00    +0.000 C 
BRANCH  15  16
ATOM     16  O   UNL     1      -4.746  12.425  23.548  0.00  0.00    +0.000 OA
ATOM     17  C   UNL     1      -5.073  12.907  22.254  0.00  0.00    +0.000 C 
ENDBRANCH  15  16
ENDBRANCH  14  15
ENDBRANCH  12  14
ENDBRANCH   6  12
BRANCH   7  18
ATOM     18  C   UNL     1      -0.833  11.907  19.314  0.00  0.00    +0.000 C 
ATOM     19  O   UNL     1      -0.147  12.891  19.028  0.00  0.00    +0.000 OA
BRANCH  18  20
ATOM     20  C   UNL     1      -2.101  11.747  18.538  0.00  0.00    +0.000 A 
ATOM     21  C   UNL     1      -3.370  11.992  19.059  0.00  0.00    +0.000 A 
ATOM     22  C   UNL     1      -4.505  11.666  18.306  0.00  0.00    +0.000 A 
ATOM     23  C   UNL     1      -4.381  11.135  17.017  0.00  0.00    +0.000 A 
ATOM     24  C   UNL     1      -3.119  10.932  16.457  0.00  0.00    +0.000 A 
ATOM     25  C   UNL     1      -2.957  10.389  15.067  0.00  0.00    +0.000 C 
ATOM     26  C   UNL     1      -1.987  11.242  17.224  0.00  0.00    +0.000 A 
ENDBRANCH  18  20
ENDBRANCH   7  18
TORSDOF 8
ENDMDL
MODEL 4
REMARK VINA RESULT:      -6.2      8.055     10.490
REMARK  Name = 
REMARK  13 active torsions:
REMARK  status: ('A' for Active; 'I' for Inactive)
REMARK    1  A    between atoms: C_1  and  C_2
REMARK    2  A    between atoms: C_2  and  C_3
REMARK    3  A    between atoms: C_4  and  C_5
REMARK    4  A    between atoms: C_7  and  O_8
REMARK    5  A    between atoms: C_9  and  N_10
REMARK    6  A    between atoms: N_10  and  C_11
REMARK    7  A    between atoms: N_10  and  C_12
REMARK    8  A    between atoms: C_12  and  C_13
REMARK    9  A    between atoms: C_13  and  O_14
REMARK   10  A    between atoms: O_14  and  C_15
REMARK   11  A    between atoms: C_16  and  C_17
REMARK   12  A    between atoms: C_17  and  C_19
REMARK   13  A    between atoms: C_23  and  C_24
REMARK                            x       y       z     vdW  Elec       q    Type
REMARK                         _______ _______ _______ _____ _____    ______ ____
ROOT
ATOM      1  C   UNL     1       0.360   9.843  19.789  0.00  0.00    +0.000 A 
ATOM      2  C   UNL     1       0.831   8.960  20.771  0.00  0.00    +0.000 A 
ATOM      3  C   UNL     1       1.684   7.750  20.499  0.00  0.00    +0.000 C 
ATOM      4  N   UNL     1       0.505   9.084  22.064  0.00  0.00    +0.000 NA
ATOM      5  C   UNL     1      -0.246  10.137  22.419  0.00  0.00    +0.000 A 
ATOM      6  C   UNL     1      -0.730  11.181  21.606  0.00  0.00    +0.000 A 
ATOM      7  C   UNL     1      -0.414  10.991  20.217  0.00  0.00    +0.000 A 
ENDROOT
BRANCH   1   9
ATOM      8  C   UNL     1       2.047  10.169  17.912  0.00  0.00    +0.000 C 
ATOM      9  C   UNL     1       0.731   9.536  18.342  0.00  0.00    +0.000 C 
ENDBRANCH   1   9
BRANCH   5  10
ATOM     10  O   UNL     1      -0.524  10.031  23.742  0.00  0.00    +0.000 OA
ATOM     11  H   UNL     1      -1.366  10.520  23.759  0.00  0.00    +0.000 HD
ENDBRANCH   5  10
BRANCH   6  12
ATOM     12  N   UNL     1      -1.390  12.308  22.148  0.00  0.00    +0.000 N 
ATOM     13  C   UNL     1      -2.669  12.133  22.850  0.00  0.00    +0.000 C 
BRANCH  12  14
ATOM     14  C   UNL     1      -0.609  13.428  22.751  0.00  0.00    +0.000 C 
BRANCH  14  15
ATOM     15  C   UNL     1      -1.465  14.532  23.379  0.00  0.00    +0.000 C 
BRANCH  15  16
ATOM     16  O   UNL     1      -0.878  14.905  24.634  0.00  0.00    +0.000 OA
ATOM     17  C   UNL     1      -1.857  15.304  25.580  0.00  0.00    +0.000 C 
ENDBRANCH  15  16
ENDBRANCH  14  15
ENDBRANCH  12  14
ENDBRANCH   6  12
BRANCH   7  18
ATOM     18  C   UNL     1      -0.946  11.892  19.135  0.00  0.00    +0.000 C 
ATOM     19  O   UNL     1      -0.213  12.801  18.739  0.00  0.00    +0.000 OA
BRANCH  18  20
ATOM     20  C   UNL     1      -2.249  11.743  18.419  0.00  0.00    +0.000 A 
ATOM     21  C   UNL     1      -3.493  11.958  19.009  0.00  0.00    +0.000 A 
ATOM     22  C   UNL     1      -4.661  11.643  18.302  0.00  0.00    +0.000 A 
ATOM     23  C   UNL     1      -4.596  11.155  16.993  0.00  0.00    +0.000 A 
ATOM     24  C   UNL     1      -3.361  10.983  16.365  0.00  0.00    +0.000 A 
ATOM     25  C   UNL     1      -3.264  10.486  14.952  0.00  0.00    +0.000 C 
ATOM     26  C   UNL     1      -2.196  11.281  17.085  0.00  0.00    +0.000 A 
ENDBRANCH  18  20
ENDBRANCH   7  18
TORSDOF 8
ENDMDL
MODEL 5
REMARK VINA RESULT:      -6.2      2.585      6.794
REMARK  Name = 
REMARK  13 active torsions:
REMARK  status: ('A' for Active; 'I' for Inactive)
REMARK    1  A    between atoms: C_1  and  C_2
REMARK    2  A    between atoms: C_2  and  C_3
REMARK    3  A    between atoms: C_4  and  C_5
REMARK    4  A    between atoms: C_7  and  O_8
REMARK    5  A    between atoms: C_9  and  N_10
REMARK    6  A    between atoms: N_10  and  C_11
REMARK    7  A    between atoms: N_10  and  C_12
REMARK    8  A    between atoms: C_12  and  C_13
REMARK    9  A    between atoms: C_13  and  O_14
REMARK   10  A    between atoms: O_14  and  C_15
REMARK   11  A    between atoms: C_16  and  C_17
REMARK   12  A    between atoms: C_17  and  C_19
REMARK   13  A    between atoms: C_23  and  C_24
REMARK                            x       y       z     vdW  Elec       q    Type
REMARK                         _______ _______ _______ _____ _____    ______ ____
ROOT
ATOM      1  C   UNL     1       2.249   3.810  18.981  0.00  0.00    +0.000 A 
ATOM      2  C   UNL     1       2.144   2.555  18.364  0.00  0.00    +0.000 A 
ATOM      3  C   UNL     1       1.057   1.551  18.638  0.00  0.00    +0.000 C 
ATOM      4  N   UNL     1       3.061   2.101  17.499  0.00  0.00    +0.000 NA
ATOM      5  C   UNL     1       4.072   2.922  17.176  0.00  0.00    +0.000 A 
ATOM      6  C   UNL     1       4.297   4.245  17.605  0.00  0.00    +0.000 A 
ATOM      7  C   UNL     1       3.332   4.683  18.575  0.00  0.00    +0.000 A 
ENDROOT
BRANCH   1   9
ATOM      8  C   UNL     1       1.467   3.578  21.392  0.00  0.00    +0.000 C 
ATOM      9  C   UNL     1       1.186   4.165  20.015  0.00  0.00    +0.000 C 
ENDBRANCH   1   9
BRANCH   5  10
ATOM     10  O   UNL     1       4.918   2.248  16.358  0.00  0.00    +0.000 OA
ATOM     11  H   UNL     1       4.921   1.389  16.818  0.00  0.00    +0.000 HD
ENDBRANCH   5  10
BRANCH   6  12
ATOM     12  N   UNL     1       5.331   5.042  17.063  0.00  0.00    +0.000 N 
ATOM     13  C   UNL     1       6.711   4.864  17.538  0.00  0.00    +0.000 C 
BRANCH  12  14
ATOM     14  C   UNL     1       5.318   5.426  15.620  0.00  0.00    +0.000 C 
BRANCH  14  15
ATOM     15  C   UNL     1       6.529   4.933  14.822  0.00  0.00    +0.000 C 
BRANCH  15  16
ATOM     16  O   UNL     1       6.212   3.652  14.259  0.00  0.00    +0.000 OA
ATOM     17  C   UNL     1       6.251   3.673  12.840  0.00  0.00    +0.000 C 
ENDBRANCH  15  16
ENDBRANCH  14  15
ENDBRANCH  12  14
ENDBRANCH   6  12
BRANCH   7  18
ATOM     18  C   UNL     1       3.444   6.001  19.291  0.00  0.00    +0.000 C 
ATOM     19  O   UNL     1       4.380   6.143  20.082  0.00  0.00    +0.000 OA
BRANCH  18  20
ATOM     20  C   UNL     1       2.584   7.204  19.074  0.00  0.00    +0.000 A 
ATOM     21  C   UNL     1       2.507   7.900  17.869  0.00  0.00    +0.000 A 
ATOM     22  C   UNL     1       1.794   9.105  17.807  0.00  0.00    +0.000 A 
ATOM     23  C   UNL     1       1.121   9.597  18.930  0.00  0.00    +0.000 A 
ATOM     24  C   UNL     1       1.142   8.887  20.132  0.00  0.00    +0.000 A 
ATOM     25  C   UNL     1       0.406   9.378  21.344  0.00  0.00    +0.000 C 
ATOM     26  C   UNL     1       1.873   7.693  20.192  0.00  0.00    +0.000 A 
ENDBRANCH  18  20
ENDBRANCH   7  18
TORSDOF 8
ENDMDL
MODEL 6
REMARK VINA RESULT:      -6.2      2.574      4.733
REMARK  Name = 
REMARK  13 active torsions:
REMARK  status: ('A' for Active; 'I' for Inactive)
REMARK    1  A    between atoms: C_1  and  C_2
REMARK    2  A    between atoms: C_2  and  C_3
REMARK    3  A    between atoms: C_4  and  C_5
REMARK    4  A    between atoms: C_7  and  O_8
REMARK    5  A    between atoms: C_9  and  N_10
REMARK    6  A    between atoms: N_10  and  C_11
REMARK    7  A    between atoms: N_10  and  C_12
REMARK    8  A    between atoms: C_12  and  C_13
REMARK    9  A    between atoms: C_13  and  O_14
REMARK   10  A    between atoms: O_14  and  C_15
REMARK   11  A    between atoms: C_16  and  C_17
REMARK   12  A    between atoms: C_17  and  C_19
REMARK   13  A    between atoms: C_23  and  C_24
REMARK                            x       y       z     vdW  Elec       q    Type
REMARK                         _______ _______ _______ _____ _____    ______ ____
ROOT
ATOM      1  C   UNL     1       2.189   5.908  19.068  0.00  0.00    +0.000 A 
ATOM      2  C   UNL     1       1.711   6.225  20.347  0.00  0.00    +0.000 A 
ATOM      3  C   UNL     1       1.089   7.541  20.731  0.00  0.00    +0.000 C 
ATOM      4  N   UNL     1       1.825   5.384  21.385  0.00  0.00    +0.000 NA
ATOM      5  C   UNL     1       2.358   4.176  21.151  0.00  0.00    +0.000 A 
ATOM      6  C   UNL     1       2.801   3.635  19.928  0.00  0.00    +0.000 A 
ATOM      7  C   UNL     1       2.721   4.578  18.847  0.00  0.00    +0.000 A 
ENDROOT
BRANCH   1   9
ATOM      8  C   UNL     1       3.320   7.870  17.905  0.00  0.00    +0.000 C 
ATOM      9  C   UNL     1       2.080   6.990  17.998  0.00  0.00    +0.000 C 
ENDBRANCH   1   9
BRANCH   5  10
ATOM     10  O   UNL     1       2.452   3.521  22.334  0.00  0.00    +0.000 OA
ATOM     11  H   UNL     1       1.933   4.131  22.888  0.00  0.00    +0.000 HD
ENDBRANCH   5  10
BRANCH   6  12
ATOM     12  N   UNL     1       3.206   2.286  19.808  0.00  0.00    +0.000 N 
ATOM     13  C   UNL     1       2.459   1.378  18.927  0.00  0.00    +0.000 C 
BRANCH  12  14
ATOM     14  C   UNL     1       4.654   1.923  19.830  0.00  0.00    +0.000 C 
BRANCH  14  15
ATOM     15  C   UNL     1       4.980   0.664  20.640  0.00  0.00    +0.000 C 
BRANCH  15  16
ATOM     16  O   UNL     1       5.772   1.045  21.773  0.00  0.00    +0.000 OA
ATOM     17  C   UNL     1       6.470  -0.060  22.328  0.00  0.00    +0.000 C 
ENDBRANCH  15  16
ENDBRANCH  14  15
ENDBRANCH  12  14
ENDBRANCH   6  12
BRANCH   7  18
ATOM     18  C   UNL     1       3.270   4.287  17.476  0.00  0.00    +0.000 C 
ATOM     19  O   UNL     1       2.484   3.867  16.624  0.00  0.00    +0.000 OA
BRANCH  18  20
ATOM     20  C   UNL     1       4.666   4.544  17.008  0.00  0.00    +0.000 A 
ATOM     21  C   UNL     1       5.123   4.256  15.723  0.00  0.00    +0.000 A 
ATOM     22  C   UNL     1       6.485   4.388  15.425  0.00  0.00    +0.000 A 
ATOM     23  C   UNL     1       7.389   4.846  16.389  0.00  0.00    +0.000 A 
ATOM     24  C   UNL     1       6.942   5.190  17.666  0.00  0.00    +0.000 A 
ATOM     25  C   UNL     1       7.885   5.710  18.712  0.00  0.00    +0.000 C 
ATOM     26  C   UNL     1       5.581   5.038  17.964  0.00  0.00    +0.000 A 
ENDBRANCH  18  20
ENDBRANCH   7  18
TORSDOF 8
ENDMDL
MODEL 7
REMARK VINA RESULT:      -6.2      2.539      6.622
REMARK  Name = 
REMARK  13 active torsions:
REMARK  status: ('A' for Active; 'I' for Inactive)
REMARK    1  A    between atoms: C_1  and  C_2
REMARK    2  A    between atoms: C_2  and  C_3
REMARK    3  A    between atoms: C_4  and  C_5
REMARK    4  A    between atoms: C_7  and  O_8
REMARK    5  A    between atoms: C_9  and  N_10
REMARK    6  A    between atoms: N_10  and  C_11
REMARK    7  A    between atoms: N_10  and  C_12
REMARK    8  A    between atoms: C_12  and  C_13
REMARK    9  A    between atoms: C_13  and  O_14
REMARK   10  A    between atoms: O_14  and  C_15
REMARK   11  A    between atoms: C_16  and  C_17
REMARK   12  A    between atoms: C_17  and  C_19
REMARK   13  A    between atoms: C_23  and  C_24
REMARK                            x       y       z     vdW  Elec       q    Type
REMARK                         _______ _______ _______ _____ _____    ______ ____
ROOT
ATOM      1  C   UNL     1       2.986   3.882  19.549  0.00  0.00    +0.000 A 
ATOM      2  C   UNL     1       4.020   3.074  20.041  0.00  0.00    +0.000 A 
ATOM      3  C   UNL     1       3.851   2.007  21.090  0.00  0.00    +0.000 C 
ATOM      4  N   UNL     1       5.295   3.225  19.657  0.00  0.00    +0.000 NA
ATOM      5  C   UNL     1       5.556   4.144  18.716  0.00  0.00    +0.000 A 
ATOM      6  C   UNL     1       4.651   4.978  18.030  0.00  0.00    +0.000 A 
ATOM      7  C   UNL     1       3.302   4.835  18.504  0.00  0.00    +0.000 A 
ENDROOT
BRANCH   1   9
ATOM      8  C   UNL     1       0.773   2.636  19.376  0.00  0.00    +0.000 C 
ATOM      9  C   UNL     1       1.595   3.667  20.138  0.00  0.00    +0.000 C 
ENDBRANCH   1   9
BRANCH   5  10
ATOM     10  O   UNL     1       6.899   4.189  18.532  0.00  0.00    +0.000 OA
ATOM     11  H   UNL     1       7.061   3.242  18.366  0.00  0.00    +0.000 HD
ENDBRANCH   5  10
BRANCH   6  12
ATOM     12  N   UNL     1       5.057   5.799  16.953  0.00  0.00    +0.000 N 
ATOM     13  C   UNL     1       5.955   6.935  17.205  0.00  0.00    +0.000 C 
BRANCH  12  14
ATOM     14  C   UNL     1       5.319   5.211  15.606  0.00  0.00    +0.000 C 
BRANCH  14  15
ATOM     15  C   UNL     1       6.799   4.957  15.302  0.00  0.00    +0.000 C 
BRANCH  15  16
ATOM     16  O   UNL     1       7.013   5.141  13.896  0.00  0.00    +0.000 OA
ATOM     17  C   UNL     1       6.610   4.006  13.145  0.00  0.00    +0.000 C 
ENDBRANCH  15  16
ENDBRANCH  14  15
ENDBRANCH  12  14
ENDBRANCH   6  12
BRANCH   7  18
ATOM     18  C   UNL     1       2.180   5.721  18.032  0.00  0.00    +0.000 C 
ATOM     19  O   UNL     1       1.357   5.233  17.253  0.00  0.00    +0.000 OA
BRANCH  18  20
ATOM     20  C   UNL     1       1.904   7.118  18.484  0.00  0.00    +0.000 A 
ATOM     21  C   UNL     1       1.973   8.235  17.652  0.00  0.00    +0.000 A 
ATOM     22  C   UNL     1       1.850   9.517  18.201  0.00  0.00    +0.000 A 
ATOM     23  C   UNL     1       1.615   9.692  19.569  0.00  0.00    +0.000 A 
ATOM     24  C   UNL     1       1.489   8.585  20.409  0.00  0.00    +0.000 A 
ATOM     25  C   UNL     1       1.210   8.742  21.876  0.00  0.00    +0.000 C 
ATOM     26  C   UNL     1       1.634   7.304  19.857  0.00  0.00    +0.000 A 
ENDBRANCH  18  20
ENDBRANCH   7  18
TORSDOF 8
ENDMDL
MODEL 8
REMARK VINA RESULT:      -6.2      2.724      6.632
REMARK  Name = 
REMARK  13 active torsions:
REMARK  status: ('A' for Active; 'I' for Inactive)
REMARK    1  A    between atoms: C_1  and  C_2
REMARK    2  A    between atoms: C_2  and  C_3
REMARK    3  A    between atoms: C_4  and  C_5
REMARK    4  A    between atoms: C_7  and  O_8
REMARK    5  A    between atoms: C_9  and  N_10
REMARK    6  A    between atoms: N_10  and  C_11
REMARK    7  A    between atoms: N_10  and  C_12
REMARK    8  A    between atoms: C_12  and  C_13
REMARK    9  A    between atoms: C_13  and  O_14
REMARK   10  A    between atoms: O_14  and  C_15
REMARK   11  A    between atoms: C_16  and  C_17
REMARK   12  A    between atoms: C_17  and  C_19
REMARK   13  A    between atoms: C_23  and  C_24
REMARK                            x       y       z     vdW  Elec       q    Type
REMARK                         _______ _______ _______ _____ _____    ______ ____
ROOT
ATOM      1  C   UNL     1       3.111   4.062  19.614  0.00  0.00    +0.000 A 
ATOM      2  C   UNL     1       4.130   3.148  19.915  0.00  0.00    +0.000 A 
ATOM      3  C   UNL     1       3.969   1.944  20.803  0.00  0.00    +0.000 C 
ATOM      4  N   UNL     1       5.387   3.303  19.476  0.00  0.00    +0.000 NA
ATOM      5  C   UNL     1       5.639   4.342  18.667  0.00  0.00    +0.000 A 
ATOM      6  C   UNL     1       4.739   5.306  18.170  0.00  0.00    +0.000 A 
ATOM      7  C   UNL     1       3.414   5.148  18.703  0.00  0.00    +0.000 A 
ENDROOT
BRANCH   1   9
ATOM      8  C   UNL     1       0.834   2.944  19.402  0.00  0.00    +0.000 C 
ATOM      9  C   UNL     1       1.748   3.818  20.252  0.00  0.00    +0.000 C 
ENDBRANCH   1   9
BRANCH   5  10
ATOM     10  O   UNL     1       6.970   4.360  18.406  0.00  0.00    +0.000 OA
ATOM     11  H   UNL     1       7.020   5.209  17.930  0.00  0.00    +0.000 HD
ENDBRANCH   5  10
BRANCH   6  12
ATOM     12  N   UNL     1       5.124   6.262  17.203  0.00  0.00    +0.000 N 
ATOM     13  C   UNL     1       6.190   7.224  17.517  0.00  0.00    +0.000 C 
BRANCH  12  14
ATOM     14  C   UNL     1       5.143   5.910  15.752  0.00  0.00    +0.000 C 
BRANCH  14  15
ATOM     15  C   UNL     1       5.032   4.410  15.463  0.00  0.00    +0.000 C 
BRANCH  15  16
ATOM     16  O   UNL     1       6.352   3.886  15.264  0.00  0.00    +0.000 OA
ATOM     17  C   UNL     1       7.196   4.814  14.599  0.00  0.00    +0.000 C 
ENDBRANCH  15  16
ENDBRANCH  14  15
ENDBRANCH  12  14
ENDBRANCH   6  12
BRANCH   7  18
ATOM     18  C   UNL     1       2.312   6.139  18.439  0.00  0.00    +0.000 C 
ATOM     19  O   UNL     1       1.565   5.921  17.483  0.00  0.00    +0.000 OA
BRANCH  18  20
ATOM     20  C   UNL     1       1.968   7.326  19.279  0.00  0.00    +0.000 A 
ATOM     21  C   UNL     1       1.693   7.262  20.645  0.00  0.00    +0.000 A 
ATOM     22  C   UNL     1       1.229   8.402  21.313  0.00  0.00    +0.000 A 
ATOM     23  C   UNL     1       1.079   9.618  20.638  0.00  0.00    +0.000 A 
ATOM     24  C   UNL     1       1.401   9.716  19.283  0.00  0.00    +0.000 A 
ATOM     25  C   UNL     1       1.275  11.014  18.540  0.00  0.00    +0.000 C 
ATOM     26  C   UNL     1       1.845   8.566  18.615  0.00  0.00    +0.000 A 
ENDBRANCH  18  20
ENDBRANCH   7  18
TORSDOF 8
ENDMDL
MODEL 9
REMARK VINA RESULT:      -6.1      7.840     10.271
REMARK  Name = 
REMARK  13 active torsions:
REMARK  status: ('A' for Active; 'I' for Inactive)
REMARK    1  A    between atoms: C_1  and  C_2
REMARK    2  A    between atoms: C_2  and  C_3
REMARK    3  A    between atoms: C_4  and  C_5
REMARK    4  A    between atoms: C_7  and  O_8
REMARK    5  A    between atoms: C_9  and  N_10
REMARK    6  A    between atoms: N_10  and  C_11
REMARK    7  A    between atoms: N_10  and  C_12
REMARK    8  A    between atoms: C_12  and  C_13
REMARK    9  A    between atoms: C_13  and  O_14
REMARK   10  A    between atoms: O_14  and  C_15
REMARK   11  A    between atoms: C_16  and  C_17
REMARK   12  A    between atoms: C_17  and  C_19
REMARK   13  A    between atoms: C_23  and  C_24
REMARK                            x       y       z     vdW  Elec       q    Type
REMARK                         _______ _______ _______ _____ _____    ______ ____
ROOT
ATOM      1  C   UNL     1       0.392   9.840  19.676  0.00  0.00    +0.000 A 
ATOM      2  C   UNL     1       0.859   9.036  20.727  0.00  0.00    +0.000 A 
ATOM      3  C   UNL     1       1.680   7.787  20.553  0.00  0.00    +0.000 C 
ATOM      4  N   UNL     1       0.556   9.283  22.008  0.00  0.00    +0.000 NA
ATOM      5  C   UNL     1      -0.166  10.381  22.277  0.00  0.00    +0.000 A 
ATOM      6  C   UNL     1      -0.639  11.360  21.381  0.00  0.00    +0.000 A 
ATOM      7  C   UNL     1      -0.350  11.039  20.011  0.00  0.00    +0.000 A 
ENDROOT
BRANCH   1   9
ATOM      8  C   UNL     1       2.091   9.896  17.782  0.00  0.00    +0.000 C 
ATOM      9  C   UNL     1       0.734   9.396  18.258  0.00  0.00    +0.000 C 
ENDBRANCH   1   9
BRANCH   5  10
ATOM     10  O   UNL     1      -0.425  10.400  23.608  0.00  0.00    +0.000 OA
ATOM     11  H   UNL     1       0.282  11.007  23.891  0.00  0.00    +0.000 HD
ENDBRANCH   5  10
BRANCH   6  12
ATOM     12  N   UNL     1      -1.265  12.545  21.829  0.00  0.00    +0.000 N 
ATOM     13  C   UNL     1      -2.607  12.478  22.426  0.00  0.00    +0.000 C 
BRANCH  12  14
ATOM     14  C   UNL     1      -0.463  13.635  22.460  0.00  0.00    +0.000 C 
BRANCH  14  15
ATOM     15  C   UNL     1       0.608  14.244  21.549  0.00  0.00    +0.000 C 
BRANCH  15  16
ATOM     16  O   UNL     1       1.726  14.633  22.359  0.00  0.00    +0.000 OA
ATOM     17  C   UNL     1       2.094  15.986  22.138  0.00  0.00    +0.000 C 
ENDBRANCH  15  16
ENDBRANCH  14  15
ENDBRANCH  12  14
ENDBRANCH   6  12
BRANCH   7  18
ATOM     18  C   UNL     1      -0.878  11.852  18.860  0.00  0.00    +0.000 C 
ATOM     19  O   UNL     1      -0.135  12.713  18.381  0.00  0.00    +0.000 OA
BRANCH  18  20
ATOM     20  C   UNL     1      -2.189  11.663  18.169  0.00  0.00    +0.000 A 
ATOM     21  C   UNL     1      -3.427  11.885  18.771  0.00  0.00    +0.000 A 
ATOM     22  C   UNL     1      -4.601  11.531  18.093  0.00  0.00    +0.000 A 
ATOM     23  C   UNL     1      -4.550  10.997  16.802  0.00  0.00    +0.000 A 
ATOM     24  C   UNL     1      -3.323  10.817  16.161  0.00  0.00    +0.000 A 
ATOM     25  C   UNL     1      -3.240  10.272  14.765  0.00  0.00    +0.000 C 
ATOM     26  C   UNL     1      -2.151  11.154  16.852  0.00  0.00    +0.000 A 
ENDBRANCH  18  20
ENDBRANCH   7  18
TORSDOF 8
ENDMDL
