MODEL 1
REMARK VINA RESULT:      -7.5      0.000      0.000
REMARK  Name = 
REMARK  7 active torsions:
REMARK  status: ('A' for Active; 'I' for Inactive)
REMARK    1  A    between atoms: C_1  and  C_2
REMARK    2  A    between atoms: C_4  and  C_5
REMARK    3  A    between atoms: C_12  and  N_13
REMARK    4  A    between atoms: N_13  and  C_14
REMARK    5  A    between atoms: N_13  and  C_15
REMARK    6  A    between atoms: C_15  and  C_16
REMARK    7  A    between atoms: C_16  and  C_17
REMARK                            x       y       z     vdW  Elec       q    Type
REMARK                         _______ _______ _______ _____ _____    ______ ____
ROOT
ATOM      1  C   UNL     1       2.506   3.441  19.079  0.00  0.00    +0.000 C 
ATOM      2  C   UNL     1       2.855   4.825  18.631  0.00  0.00    +0.000 A 
ATOM      3  N   UNL     1       3.825   4.956  17.712  0.00  0.00    +0.000 NA
ATOM      4  C   UNL     1       4.139   6.211  17.360  0.00  0.00    +0.000 A 
ATOM      5  C   UNL     1       3.473   7.314  17.895  0.00  0.00    +0.000 A 
ATOM      6  C   UNL     1       2.512   7.104  18.872  0.00  0.00    +0.000 A 
ATOM      7  N   UNL     1       2.215   5.842  19.232  0.00  0.00    +0.000 NA
ENDROOT
BRANCH   4   8
ATOM      8  C   UNL     1       5.341   6.414  16.445  0.00  0.00    +0.000 C 
ATOM      9  C   UNL     1       5.510   5.304  15.383  0.00  0.00    +0.000 C 
ATOM     10  C   UNL     1       6.362   4.126  15.845  0.00  0.00    +0.000 C 
ATOM     11  N   UNL     1       7.672   4.587  16.313  0.00  0.00    +0.000 NA
ATOM     12  C   UNL     1       7.486   5.406  17.514  0.00  0.00    +0.000 C 
ATOM     13  C   UNL     1       6.632   6.647  17.254  0.00  0.00    +0.000 C 
ATOM     14  H   UNL     1       8.126   5.132  15.579  0.00  0.00    +0.000 HD
ENDBRANCH   4   8
BRANCH   6  15
ATOM     15  N   UNL     1       1.847   8.129  19.532  0.00  0.00    +0.000 N 
ATOM     16  C   UNL     1       1.414   8.037  20.915  0.00  0.00    +0.000 C 
BRANCH  15  17
ATOM     17  C   UNL     1       1.325   9.229  18.683  0.00  0.00    +0.000 C 
BRANCH  17  18
ATOM     18  C   UNL     1       0.205  10.045  19.353  0.00  0.00    +0.000 C 
BRANCH  18  19
ATOM     19  C   UNL     1      -0.765  10.646  18.387  0.00  0.00    +0.000 A 
ATOM     20  C   UNL     1      -1.521   9.973  17.397  0.00  0.00    +0.000 A 
ATOM     21  N   UNL     1      -2.264  10.809  16.663  0.00  0.00    +0.000 NA
ATOM     22  N   UNL     1      -1.995  12.010  17.185  0.00  0.00    +0.000 N 
ATOM     23  C   UNL     1      -1.101  11.973  18.216  0.00  0.00    +0.000 A 
ATOM     24  H   UNL     1      -2.450  12.817  16.781  0.00  0.00    +0.000 HD
ENDBRANCH  18  19
ENDBRANCH  17  18
ENDBRANCH  15  17
ENDBRANCH   6  15
TORSDOF 5
ENDMDL
MODEL 2
REMARK VINA RESULT:      -7.3      2.581      6.068
REMARK  Name = 
REMARK  7 active torsions:
REMARK  status: ('A' for Active; 'I' for Inactive)
REMARK    1  A    between atoms: C_1  and  C_2
REMARK    2  A    between atoms: C_4  and  C_5
REMARK    3  A    between atoms: C_12  and  N_13
REMARK    4  A    between atoms: N_13  and  C_14
REMARK    5  A    between atoms: N_13  and  C_15
REMARK    6  A    between atoms: C_15  and  C_16
REMARK    7  A    between atoms: C_16  and  C_17
REMARK                            x       y       z     vdW  Elec       q    Type
REMARK                         _______ _______ _______ _____ _____    ______ ____
ROOT
ATOM      1  C   UNL     1       1.973   9.487  18.016  0.00  0.00    +0.000 C 
ATOM      2  C   UNL     1       2.585   8.123  17.988  0.00  0.00    +0.000 A 
ATOM      3  N   UNL     1       3.778   7.987  17.389  0.00  0.00    +0.000 NA
ATOM      4  C   UNL     1       4.282   6.745  17.349  0.00  0.00    +0.000 A 
ATOM      5  C   UNL     1       3.617   5.662  17.926  0.00  0.00    +0.000 A 
ATOM      6  C   UNL     1       2.367   5.871  18.489  0.00  0.00    +0.000 A 
ATOM      7  N   UNL     1       1.861   7.117  18.510  0.00  0.00    +0.000 NA
ENDROOT
BRANCH   4   8
ATOM      8  C   UNL     1       5.551   6.517  16.538  0.00  0.00    +0.000 C 
ATOM      9  C   UNL     1       5.547   5.199  15.732  0.00  0.00    +0.000 C 
ATOM     10  C   UNL     1       6.106   4.001  16.495  0.00  0.00    +0.000 C 
ATOM     11  N   UNL     1       7.453   4.289  16.995  0.00  0.00    +0.000 NA
ATOM     12  C   UNL     1       7.371   5.361  17.991  0.00  0.00    +0.000 C 
ATOM     13  C   UNL     1       6.813   6.661  17.412  0.00  0.00    +0.000 C 
ATOM     14  H   UNL     1       8.053   4.571  16.219  0.00  0.00    +0.000 HD
ENDBRANCH   4   8
BRANCH   6  15
ATOM     15  N   UNL     1       1.581   4.855  19.017  0.00  0.00    +0.000 N 
ATOM     16  C   UNL     1       1.129   4.832  20.397  0.00  0.00    +0.000 C 
BRANCH  15  17
ATOM     17  C   UNL     1       1.454   3.626  18.195  0.00  0.00    +0.000 C 
BRANCH  17  18
ATOM     18  C   UNL     1       1.609   2.326  19.005  0.00  0.00    +0.000 C 
BRANCH  18  19
ATOM     19  C   UNL     1       2.997   2.088  19.506  0.00  0.00    +0.000 A 
ATOM     20  C   UNL     1       3.485   2.298  20.819  0.00  0.00    +0.000 A 
ATOM     21  N   UNL     1       4.791   2.032  20.929  0.00  0.00    +0.000 NA
ATOM     22  N   UNL     1       5.138   1.643  19.698  0.00  0.00    +0.000 N 
ATOM     23  C   UNL     1       4.106   1.662  18.805  0.00  0.00    +0.000 A 
ATOM     24  H   UNL     1       6.102   1.387  19.535  0.00  0.00    +0.000 HD
ENDBRANCH  18  19
ENDBRANCH  17  18
ENDBRANCH  15  17
ENDBRANCH   6  15
TORSDOF 5
ENDMDL
MODEL 3
REMARK VINA RESULT:      -7.2      1.752      3.664
REMARK  Name = 
REMARK  7 active torsions:
REMARK  status: ('A' for Active; 'I' for Inactive)
REMARK    1  A    between atoms: C_1  and  C_2
REMARK    2  A    between atoms: C_4  and  C_5
REMARK    3  A    between atoms: C_12  and  N_13
REMARK    4  A    between atoms: N_13  and  C_14
REMARK    5  A    between atoms: N_13  and  C_15
REMARK    6  A    between atoms: C_15  and  C_16
REMARK    7  A    between atoms: C_16  and  C_17
REMARK                            x       y       z     vdW  Elec       q    Type
REMARK                         _______ _______ _______ _____ _____    ______ ____
ROOT
ATOM      1  C   UNL     1       4.684   6.635  16.654  0.00  0.00    +0.000 C 
ATOM      2  C   UNL     1       3.794   6.547  17.853  0.00  0.00    +0.000 A 
ATOM      3  N   UNL     1       3.727   5.370  18.494  0.00  0.00    +0.000 NA
ATOM      4  C   UNL     1       2.892   5.314  19.542  0.00  0.00    +0.000 A 
ATOM      5  C   UNL     1       2.159   6.426  19.959  0.00  0.00    +0.000 A 
ATOM      6  C   UNL     1       2.246   7.597  19.221  0.00  0.00    +0.000 A 
ATOM      7  N   UNL     1       3.074   7.639  18.161  0.00  0.00    +0.000 NA
ENDROOT
BRANCH   4   8
ATOM      8  C   UNL     1       2.661   3.958  20.196  0.00  0.00    +0.000 C 
ATOM      9  C   UNL     1       3.623   2.855  19.701  0.00  0.00    +0.000 C 
ATOM     10  C   UNL     1       3.115   2.086  18.485  0.00  0.00    +0.000 C 
ATOM     11  N   UNL     1       1.787   1.525  18.745  0.00  0.00    +0.000 NA
ATOM     12  C   UNL     1       0.832   2.623  18.919  0.00  0.00    +0.000 C 
ATOM     13  C   UNL     1       1.183   3.529  20.099  0.00  0.00    +0.000 C 
ATOM     14  H   UNL     1       1.819   0.946  19.586  0.00  0.00    +0.000 HD
ENDBRANCH   4   8
BRANCH   6  15
ATOM     15  N   UNL     1       1.502   8.737  19.495  0.00  0.00    +0.000 N 
ATOM     16  C   UNL     1       0.894   9.000  20.788  0.00  0.00    +0.000 C 
BRANCH  15  17
ATOM     17  C   UNL     1       1.094   9.553  18.325  0.00  0.00    +0.000 C 
BRANCH  17  18
ATOM     18  C   UNL     1       0.230  10.772  18.697  0.00  0.00    +0.000 C 
BRANCH  18  19
ATOM     19  C   UNL     1      -1.180  10.685  18.206  0.00  0.00    +0.000 A 
ATOM     20  C   UNL     1      -2.297  11.424  18.665  0.00  0.00    +0.000 A 
ATOM     21  N   UNL     1      -3.432  11.075  18.049  0.00  0.00    +0.000 NA
ATOM     22  N   UNL     1      -3.045  10.125  17.191  0.00  0.00    +0.000 N 
ATOM     23  C   UNL     1      -1.709   9.848  17.246  0.00  0.00    +0.000 A 
ATOM     24  H   UNL     1      -3.748   9.700  16.604  0.00  0.00    +0.000 HD
ENDBRANCH  18  19
ENDBRANCH  17  18
ENDBRANCH  15  17
ENDBRANCH   6  15
TORSDOF 5
ENDMDL
MODEL 4
REMARK VINA RESULT:      -7.2      2.434      4.328
REMARK  Name = 
REMARK  7 active torsions:
REMARK  status: ('A' for Active; 'I' for Inactive)
REMARK    1  A    between atoms: C_1  and  C_2
REMARK    2  A    between atoms: C_4  and  C_5
REMARK    3  A    between atoms: C_12  and  N_13
REMARK    4  A    between atoms: N_13  and  C_14
REMARK    5  A    between atoms: N_13  and  C_15
REMARK    6  A    between atoms: C_15  and  C_16
REMARK    7  A    between atoms: C_16  and  C_17
REMARK                            x       y       z     vdW  Elec       q    Type
REMARK                         _______ _______ _______ _____ _____    ______ ____
ROOT
ATOM      1  C   UNL     1       4.986   6.518  16.375  0.00  0.00    +0.000 C 
ATOM      2  C   UNL     1       4.085   6.389  17.563  0.00  0.00    +0.000 A 
ATOM      3  N   UNL     1       4.070   5.214  18.209  0.00  0.00    +0.000 NA
ATOM      4  C   UNL     1       3.225   5.119  19.245  0.00  0.00    +0.000 A 
ATOM      5  C   UNL     1       2.430   6.194  19.647  0.00  0.00    +0.000 A 
ATOM      6  C   UNL     1       2.467   7.364  18.905  0.00  0.00    +0.000 A 
ATOM      7  N   UNL     1       3.306   7.444  17.855  0.00  0.00    +0.000 NA
ENDROOT
BRANCH   4   8
ATOM      8  C   UNL     1       3.055   3.755  19.903  0.00  0.00    +0.000 C 
ATOM      9  C   UNL     1       3.720   2.600  19.122  0.00  0.00    +0.000 C 
ATOM     10  C   UNL     1       2.811   1.946  18.086  0.00  0.00    +0.000 C 
ATOM     11  N   UNL     1       1.563   1.491  18.704  0.00  0.00    +0.000 NA
ATOM     12  C   UNL     1       0.813   2.659  19.175  0.00  0.00    +0.000 C 
ATOM     13  C   UNL     1       1.576   3.465  20.226  0.00  0.00    +0.000 C 
ATOM     14  H   UNL     1       1.775   0.868  19.485  0.00  0.00    +0.000 HD
ENDBRANCH   4   8
BRANCH   6  15
ATOM     15  N   UNL     1       1.661   8.466  19.163  0.00  0.00    +0.000 N 
ATOM     16  C   UNL     1       1.188   9.366  18.126  0.00  0.00    +0.000 C 
BRANCH  15  17
ATOM     17  C   UNL     1       1.533   8.869  20.585  0.00  0.00    +0.000 C 
BRANCH  17  18
ATOM     18  C   UNL     1       0.079   8.891  21.089  0.00  0.00    +0.000 C 
BRANCH  18  19
ATOM     19  C   UNL     1      -0.319  10.182  21.730  0.00  0.00    +0.000 A 
ATOM     20  C   UNL     1      -0.825  10.371  23.039  0.00  0.00    +0.000 A 
ATOM     21  N   UNL     1      -1.129  11.650  23.291  0.00  0.00    +0.000 NA
ATOM     22  N   UNL     1      -0.811  12.279  22.155  0.00  0.00    +0.000 N 
ATOM     23  C   UNL     1      -0.326  11.450  21.186  0.00  0.00    +0.000 A 
ATOM     24  H   UNL     1      -0.960  13.277  22.107  0.00  0.00    +0.000 HD
ENDBRANCH  18  19
ENDBRANCH  17  18
ENDBRANCH  15  17
ENDBRANCH   6  15
TORSDOF 5
ENDMDL
MODEL 5
REMARK VINA RESULT:      -7.2      1.082      1.376
REMARK  Name = 
REMARK  7 active torsions:
REMARK  status: ('A' for Active; 'I' for Inactive)
REMARK    1  A    between atoms: C_1  and  C_2
REMARK    2  A    between atoms: C_4  and  C_5
REMARK    3  A    between atoms: C_12  and  N_13
REMARK    4  A    between atoms: N_13  and  C_14
REMARK    5  A    between atoms: N_13  and  C_15
REMARK    6  A    between atoms: C_15  and  C_16
REMARK    7  A    between atoms: C_16  and  C_17
REMARK                            x       y       z     vdW  Elec       q    Type
REMARK                         _______ _______ _______ _____ _____    ______ ____
ROOT
ATOM      1  C   UNL     1       1.996   3.833  21.196  0.00  0.00    +0.000 C 
ATOM      2  C   UNL     1       2.270   4.931  20.217  0.00  0.00    +0.000 A 
ATOM      3  N   UNL     1       2.990   4.628  19.126  0.00  0.00    +0.000 NA
ATOM      4  C   UNL     1       3.250   5.642  18.288  0.00  0.00    +0.000 A 
ATOM      5  C   UNL     1       2.770   6.931  18.522  0.00  0.00    +0.000 A 
ATOM      6  C   UNL     1       2.069   7.179  19.693  0.00  0.00    +0.000 A 
ATOM      7  N   UNL     1       1.828   6.159  20.537  0.00  0.00    +0.000 NA
ENDROOT
BRANCH   4   8
ATOM      8  C   UNL     1       4.199   5.380  17.125  0.00  0.00    +0.000 C 
ATOM      9  C   UNL     1       5.213   4.245  17.393  0.00  0.00    +0.000 C 
ATOM     10  C   UNL     1       6.514   4.713  18.038  0.00  0.00    +0.000 C 
ATOM     11  N   UNL     1       7.135   5.774  17.239  0.00  0.00    +0.000 NA
ATOM     12  C   UNL     1       6.264   6.953  17.256  0.00  0.00    +0.000 C 
ATOM     13  C   UNL     1       4.886   6.677  16.655  0.00  0.00    +0.000 C 
ATOM     14  H   UNL     1       7.270   5.447  16.282  0.00  0.00    +0.000 HD
ENDBRANCH   4   8
BRANCH   6  15
ATOM     15  N   UNL     1       1.617   8.438  20.068  0.00  0.00    +0.000 N 
ATOM     16  C   UNL     1       1.246   8.777  21.430  0.00  0.00    +0.000 C 
BRANCH  15  17
ATOM     17  C   UNL     1       1.242   9.358  18.966  0.00  0.00    +0.000 C 
BRANCH  17  18
ATOM     18  C   UNL     1       0.416  10.570  19.432  0.00  0.00    +0.000 C 
BRANCH  18  19
ATOM     19  C   UNL     1      -0.699  10.935  18.503  0.00  0.00    +0.000 A 
ATOM     20  C   UNL     1      -1.383  10.080  17.605  0.00  0.00    +0.000 A 
ATOM     21  N   UNL     1      -2.301  10.728  16.879  0.00  0.00    +0.000 NA
ATOM     22  N   UNL     1      -2.214  11.989  17.316  0.00  0.00    +0.000 N 
ATOM     23  C   UNL     1      -1.269  12.171  18.283  0.00  0.00    +0.000 A 
ATOM     24  H   UNL     1      -2.825  12.678  16.901  0.00  0.00    +0.000 HD
ENDBRANCH  18  19
ENDBRANCH  17  18
ENDBRANCH  15  17
ENDBRANCH   6  15
TORSDOF 5
ENDMDL
MODEL 6
REMARK VINA RESULT:      -7.2      2.352      3.081
REMARK  Name = 
REMARK  7 active torsions:
REMARK  status: ('A' for Active; 'I' for Inactive)
REMARK    1  A    between atoms: C_1  and  C_2
REMARK    2  A    between atoms: C_4  and  C_5
REMARK    3  A    between atoms: C_12  and  N_13
REMARK    4  A    between atoms: N_13  and  C_14
REMARK    5  A    between atoms: N_13  and  C_15
REMARK    6  A    between atoms: C_15  and  C_16
REMARK    7  A    between atoms: C_16  and  C_17
REMARK                            x       y       z     vdW  Elec       q    Type
REMARK                         _______ _______ _______ _____ _____    ______ ____
ROOT
ATOM      1  C   UNL     1       2.280   3.624  21.452  0.00  0.00    +0.000 C 
ATOM      2  C   UNL     1       2.781   4.448  20.309  0.00  0.00    +0.000 A 
ATOM      3  N   UNL     1       3.768   3.937  19.558  0.00  0.00    +0.000 NA
ATOM      4  C   UNL     1       4.220   4.716  18.565  0.00  0.00    +0.000 A 
ATOM      5  C   UNL     1       3.673   5.973  18.309  0.00  0.00    +0.000 A 
ATOM      6  C   UNL     1       2.685   6.455  19.154  0.00  0.00    +0.000 A 
ATOM      7  N   UNL     1       2.249   5.673  20.159  0.00  0.00    +0.000 NA
ENDROOT
BRANCH   4   8
ATOM      8  C   UNL     1       5.447   4.245  17.792  0.00  0.00    +0.000 C 
ATOM      9  C   UNL     1       6.778   4.817  18.329  0.00  0.00    +0.000 C 
ATOM     10  C   UNL     1       7.185   6.144  17.696  0.00  0.00    +0.000 C 
ATOM     11  N   UNL     1       7.231   6.028  16.236  0.00  0.00    +0.000 NA
ATOM     12  C   UNL     1       5.877   5.776  15.736  0.00  0.00    +0.000 C 
ATOM     13  C   UNL     1       5.282   4.476  16.277  0.00  0.00    +0.000 C 
ATOM     14  H   UNL     1       7.855   5.264  15.973  0.00  0.00    +0.000 HD
ENDBRANCH   4   8
BRANCH   6  15
ATOM     15  N   UNL     1       2.127   7.722  19.044  0.00  0.00    +0.000 N 
ATOM     16  C   UNL     1       2.374   8.606  17.918  0.00  0.00    +0.000 C 
BRANCH  15  17
ATOM     17  C   UNL     1       1.494   8.271  20.268  0.00  0.00    +0.000 C 
BRANCH  17  18
ATOM     18  C   UNL     1       0.934   9.693  20.086  0.00  0.00    +0.000 C 
BRANCH  18  19
ATOM     19  C   UNL     1       0.241  10.230  21.298  0.00  0.00    +0.000 A 
ATOM     20  C   UNL     1       0.276   9.703  22.612  0.00  0.00    +0.000 A 
ATOM     21  N   UNL     1      -0.493  10.393  23.462  0.00  0.00    +0.000 NA
ATOM     22  N   UNL     1      -1.011  11.363  22.701  0.00  0.00    +0.000 N 
ATOM     23  C   UNL     1      -0.610  11.311  21.397  0.00  0.00    +0.000 A 
ATOM     24  H   UNL     1      -1.640  12.023  23.136  0.00  0.00    +0.000 HD
ENDBRANCH  18  19
ENDBRANCH  17  18
ENDBRANCH  15  17
ENDBRANCH   6  15
TORSDOF 5
ENDMDL
MODEL 7
REMARK VINA RESULT:      -7.1      2.181      3.775
REMARK  Name = 
REMARK  7 active torsions:
REMARK  status: ('A' for Active; 'I' for Inactive)
REMARK    1  A    between atoms: C_1  and  C_2
REMARK    2  A    between atoms: C_4  and  C_5
REMARK    3  A    between atoms: C_12  and  N_13
REMARK    4  A    between atoms: N_13  and  C_14
REMARK    5  A    between atoms: N_13  and  C_15
REMARK    6  A    between atoms: C_15  and  C_16
REMARK    7  A    between atoms: C_16  and  C_17
REMARK                            x       y       z     vdW  Elec       q    Type
REMARK                         _______ _______ _______ _____ _____    ______ ____
ROOT
ATOM      1  C   UNL     1       3.726   7.101  17.340  0.00  0.00    +0.000 C 
ATOM      2  C   UNL     1       3.010   6.807  18.620  0.00  0.00    +0.000 A 
ATOM      3  N   UNL     1       2.978   5.533  19.038  0.00  0.00    +0.000 NA
ATOM      4  C   UNL     1       2.297   5.297  20.168  0.00  0.00    +0.000 A 
ATOM      5  C   UNL     1       1.683   6.326  20.885  0.00  0.00    +0.000 A 
ATOM      6  C   UNL     1       1.720   7.612  20.369  0.00  0.00    +0.000 A 
ATOM      7  N   UNL     1       2.392   7.836  19.225  0.00  0.00    +0.000 NA
ENDROOT
BRANCH   4   8
ATOM      8  C   UNL     1       2.097   3.847  20.591  0.00  0.00    +0.000 C 
ATOM      9  C   UNL     1       3.304   2.935  20.276  0.00  0.00    +0.000 C 
ATOM     10  C   UNL     1       3.251   2.289  18.894  0.00  0.00    +0.000 C 
ATOM     11  N   UNL     1       1.996   1.555  18.714  0.00  0.00    +0.000 NA
ATOM     12  C   UNL     1       0.882   2.508  18.723  0.00  0.00    +0.000 C 
ATOM     13  C   UNL     1       0.775   3.276  20.040  0.00  0.00    +0.000 C 
ATOM     14  H   UNL     1       1.886   0.874  19.466  0.00  0.00    +0.000 HD
ENDBRANCH   4   8
BRANCH   6  15
ATOM     15  N   UNL     1       1.075   8.695  20.952  0.00  0.00    +0.000 N 
ATOM     16  C   UNL     1       1.323   9.129  22.316  0.00  0.00    +0.000 C 
BRANCH  15  17
ATOM     17  C   UNL     1      -0.105   9.227  20.228  0.00  0.00    +0.000 C 
BRANCH  17  18
ATOM     18  C   UNL     1       0.106  10.644  19.665  0.00  0.00    +0.000 C 
BRANCH  18  19
ATOM     19  C   UNL     1      -0.820  10.993  18.544  0.00  0.00    +0.000 A 
ATOM     20  C   UNL     1      -1.494  10.100  17.677  0.00  0.00    +0.000 A 
ATOM     21  N   UNL     1      -2.214  10.736  16.745  0.00  0.00    +0.000 NA
ATOM     22  N   UNL     1      -2.011  12.029  17.018  0.00  0.00    +0.000 N 
ATOM     23  C   UNL     1      -1.181  12.241  18.080  0.00  0.00    +0.000 A 
ATOM     24  H   UNL     1      -2.463  12.715  16.430  0.00  0.00    +0.000 HD
ENDBRANCH  18  19
ENDBRANCH  17  18
ENDBRANCH  15  17
ENDBRANCH   6  15
TORSDOF 5
ENDMDL
MODEL 8
REMARK VINA RESULT:      -7.1      1.875      3.718
REMARK  Name = 
REMARK  7 active torsions:
REMARK  status: ('A' for Active; 'I' for Inactive)
REMARK    1  A    between atoms: C_1  and  C_2
REMARK    2  A    between atoms: C_4  and  C_5
REMARK    3  A    between atoms: C_12  and  N_13
REMARK    4  A    between atoms: N_13  and  C_14
REMARK    5  A    between atoms: N_13  and  C_15
REMARK    6  A    between atoms: C_15  and  C_16
REMARK    7  A    between atoms: C_16  and  C_17
REMARK                            x       y       z     vdW  Elec       q    Type
REMARK                         _______ _______ _______ _____ _____    ______ ____
ROOT
ATOM      1  C   UNL     1       4.901   6.722  16.241  0.00  0.00    +0.000 C 
ATOM      2  C   UNL     1       4.061   6.558  17.468  0.00  0.00    +0.000 A 
ATOM      3  N   UNL     1       4.084   5.366  18.085  0.00  0.00    +0.000 NA
ATOM      4  C   UNL     1       3.292   5.240  19.158  0.00  0.00    +0.000 A 
ATOM      5  C   UNL     1       2.511   6.299  19.625  0.00  0.00    +0.000 A 
ATOM      6  C   UNL     1       2.504   7.487  18.911  0.00  0.00    +0.000 A 
ATOM      7  N   UNL     1       3.289   7.599  17.824  0.00  0.00    +0.000 NA
ENDROOT
BRANCH   4   8
ATOM      8  C   UNL     1       3.163   3.860  19.791  0.00  0.00    +0.000 C 
ATOM      9  C   UNL     1       3.765   2.724  18.933  0.00  0.00    +0.000 C 
ATOM     10  C   UNL     1       2.781   2.101  17.948  0.00  0.00    +0.000 C 
ATOM     11  N   UNL     1       1.579   1.633  18.643  0.00  0.00    +0.000 NA
ATOM     12  C   UNL     1       0.870   2.790  19.197  0.00  0.00    +0.000 C 
ATOM     13  C   UNL     1       1.710   3.565  20.211  0.00  0.00    +0.000 C 
ATOM     14  H   UNL     1       1.844   0.989  19.389  0.00  0.00    +0.000 HD
ENDBRANCH   4   8
BRANCH   6  15
ATOM     15  N   UNL     1       1.704   8.576  19.235  0.00  0.00    +0.000 N 
ATOM     16  C   UNL     1       1.124   8.774  20.551  0.00  0.00    +0.000 C 
BRANCH  15  17
ATOM     17  C   UNL     1       1.214   9.394  18.098  0.00  0.00    +0.000 C 
BRANCH  17  18
ATOM     18  C   UNL     1      -0.182   9.999  18.332  0.00  0.00    +0.000 C 
BRANCH  18  19
ATOM     19  C   UNL     1      -0.184  11.490  18.443  0.00  0.00    +0.000 A 
ATOM     20  C   UNL     1       0.879  12.321  18.873  0.00  0.00    +0.000 A 
ATOM     21  N   UNL     1       0.538  13.615  18.902  0.00  0.00    +0.000 NA
ATOM     22  N   UNL     1      -0.732  13.615  18.484  0.00  0.00    +0.000 N 
ATOM     23  C   UNL     1      -1.216  12.372  18.200  0.00  0.00    +0.000 A 
ATOM     24  H   UNL     1      -1.212  14.502  18.425  0.00  0.00    +0.000 HD
ENDBRANCH  18  19
ENDBRANCH  17  18
ENDBRANCH  15  17
ENDBRANCH   6  15
TORSDOF 5
ENDMDL
MODEL 9
REMARK VINA RESULT:      -7.1      0.881      1.233
REMARK  Name = 
REMARK  7 active torsions:
REMARK  status: ('A' for Active; 'I' for Inactive)
REMARK    1  A    between atoms: C_1  and  C_2
REMARK    2  A    between atoms: C_4  and  C_5
REMARK    3  A    between atoms: C_12  and  N_13
REMARK    4  A    between atoms: N_13  and  C_14
REMARK    5  A    between atoms: N_13  and  C_15
REMARK    6  A    between atoms: C_15  and  C_16
REMARK    7  A    between atoms: C_16  and  C_17
REMARK                            x       y       z     vdW  Elec       q    Type
REMARK                         _______ _______ _______ _____ _____    ______ ____
ROOT
ATOM      1  C   UNL     1       3.121   3.602  20.088  0.00  0.00    +0.000 C 
ATOM      2  C   UNL     1       3.154   4.912  19.367  0.00  0.00    +0.000 A 
ATOM      3  N   UNL     1       3.937   5.006  18.282  0.00  0.00    +0.000 NA
ATOM      4  C   UNL     1       3.973   6.204  17.680  0.00  0.00    +0.000 A 
ATOM      5  C   UNL     1       3.214   7.281  18.140  0.00  0.00    +0.000 A 
ATOM      6  C   UNL     1       2.462   7.122  19.293  0.00  0.00    +0.000 A 
ATOM      7  N   UNL     1       2.445   5.921  19.900  0.00  0.00    +0.000 NA
ENDROOT
BRANCH   4   8
ATOM      8  C   UNL     1       4.971   6.401  16.546  0.00  0.00    +0.000 C 
ATOM      9  C   UNL     1       5.133   5.163  15.636  0.00  0.00    +0.000 C 
ATOM     10  C   UNL     1       6.213   4.189  16.097  0.00  0.00    +0.000 C 
ATOM     11  N   UNL     1       7.498   4.878  16.254  0.00  0.00    +0.000 NA
ATOM     12  C   UNL     1       7.384   5.852  17.343  0.00  0.00    +0.000 C 
ATOM     13  C   UNL     1       6.325   6.920  17.070  0.00  0.00    +0.000 C 
ATOM     14  H   UNL     1       7.743   5.347  15.381  0.00  0.00    +0.000 HD
ENDBRANCH   4   8
BRANCH   6  15
ATOM     15  N   UNL     1       1.735   8.147  19.886  0.00  0.00    +0.000 N 
ATOM     16  C   UNL     1       1.182   8.059  21.226  0.00  0.00    +0.000 C 
BRANCH  15  17
ATOM     17  C   UNL     1       1.286   9.240  18.989  0.00  0.00    +0.000 C 
BRANCH  17  18
ATOM     18  C   UNL     1      -0.053   9.871  19.412  0.00  0.00    +0.000 C 
BRANCH  18  19
ATOM     19  C   UNL     1      -0.324  11.197  18.774  0.00  0.00    +0.000 A 
ATOM     20  C   UNL     1       0.390  12.404  18.964  0.00  0.00    +0.000 A 
ATOM     21  N   UNL     1      -0.137  13.425  18.280  0.00  0.00    +0.000 NA
ATOM     22  N   UNL     1      -1.178  12.875  17.646  0.00  0.00    +0.000 N 
ATOM     23  C   UNL     1      -1.340  11.546  17.909  0.00  0.00    +0.000 A 
ATOM     24  H   UNL     1      -1.744  13.470  17.056  0.00  0.00    +0.000 HD
ENDBRANCH  18  19
ENDBRANCH  17  18
ENDBRANCH  15  17
ENDBRANCH   6  15
TORSDOF 5
ENDMDL
