MODEL 1
REMARK VINA RESULT:      -6.9      0.000      0.000
REMARK  Name = 
REMARK  18 active torsions:
REMARK  status: ('A' for Active; 'I' for Inactive)
REMARK    1  A    between atoms: C_1  and  C_2
REMARK    2  A    between atoms: C_2  and  C_3
REMARK    3  A    between atoms: C_3  and  C_4
REMARK    4  A    between atoms: C_4  and  N_5
REMARK    5  A    between atoms: C_4  and  C_23
REMARK    6  A    between atoms: C_6  and  CA_8
REMARK    7  A    between atoms: CA_8  and  CB_9
REMARK    8  A    between atoms: CA_8  and  N_13
REMARK    9  A    between atoms: CB_9  and  CG_10
REMARK   10  A    between atoms: CG_10  and  CD1_11
REMARK   11  A    between atoms: CG_10  and  CD2_12
REMARK   12  A    between atoms: CD_14  and  CG_16
REMARK   13  A    between atoms: CG_16  and  CB_17
REMARK   14  A    between atoms: CB_17  and  CA_18
REMARK   15  A    between atoms: CA_18  and  N_19
REMARK   16  A    between atoms: CA_18  and  C_20
REMARK   17  A    between atoms: C_20  and  OXT_22
REMARK   18  A    between atoms: C_23  and  O_25
REMARK                            x       y       z     vdW  Elec       q    Type
REMARK                         _______ _______ _______ _____ _____    ______ ____
ROOT
ATOM      1  CA  GLN A   1       5.583   5.044  16.547  0.00  0.00    +0.000 C 
ENDROOT
BRANCH   1   3
ATOM      2  N   UNK A   2       6.192   4.634  14.183  0.00  0.00    +0.000 N 
ATOM      3  C   GLN A   1       6.643   4.662  15.494  0.00  0.00    +0.000 C 
ATOM      4  O   GLN A   1       7.812   4.429  15.793  0.00  0.00    +0.000 OA
ATOM      5  H   UNK A   2       5.233   4.314  14.078  0.00  0.00    +0.000 HD
BRANCH   2   6
ATOM      6  C   UNK A   2       7.128   4.198  13.114  0.00  0.00    +0.000 C 
BRANCH   6   7
ATOM      7  C   UNK A   2       7.808   5.449  12.524  0.00  0.00    +0.000 C 
ATOM      8  O   UNK A   2       7.606   5.918  11.416  0.00  0.00    +0.000 OA
BRANCH   7   9
ATOM      9  O   UNK A   2       8.766   5.953  13.349  0.00  0.00    +0.000 OA
ATOM     10  H   UNK A   2       9.503   5.313  13.429  0.00  0.00    +0.000 HD
ENDBRANCH   7   9
ENDBRANCH   6   7
BRANCH   6  11
ATOM     11  C   UNK A   2       6.381   3.355  12.071  0.00  0.00    +0.000 C 
BRANCH  11  13
ATOM     12  C   UNK A   2       6.455   1.056  11.070  0.00  0.00    +0.000 C 
ATOM     13  C   UNK A   2       7.250   2.327  11.340  0.00  0.00    +0.000 C 
ENDBRANCH  11  13
ENDBRANCH   6  11
ENDBRANCH   2   6
ENDBRANCH   1   3
BRANCH   1  14
ATOM     14  N   GLN A   1       5.305   3.878  17.380  0.00  0.00    +0.000 N 
ATOM     15  CD  GLN A   1       4.016   3.389  17.440  0.00  0.00    +0.000 C 
ATOM     16  OE1 GLN A   1       3.031   3.975  16.987  0.00  0.00    +0.000 OA
ATOM     17  H   GLN A   1       6.050   3.192  17.451  0.00  0.00    +0.000 HD
BRANCH  15  18
ATOM     18  CG  GLN A   1       3.835   2.114  18.229  0.00  0.00    +0.000 C 
BRANCH  18  19
ATOM     19  CB  GLN A   1       3.418   2.425  19.667  0.00  0.00    +0.000 C 
BRANCH  19  20
ATOM     20  CA  GLN A   1       1.961   2.069  20.016  0.00  0.00    +0.000 C 
BRANCH  20  21
ATOM     21  N   GLN A   1       1.185   2.006  18.754  0.00  0.00    +0.000 NA
ATOM     22  H1  GLN A   1       0.436   2.708  18.820  0.00  0.00    +0.000 HD
ATOM     23  H2  GLN A   1       0.677   1.119  18.732  0.00  0.00    +0.000 HD
ENDBRANCH  20  21
BRANCH  20  24
ATOM     24  C   GLN A   1       1.317   3.106  20.957  0.00  0.00    +0.000 C 
ATOM     25  O   GLN A   1       0.865   4.180  20.585  0.00  0.00    +0.000 OA
BRANCH  24  26
ATOM     26  OXT GLN A   1       1.291   2.712  22.257  0.00  0.00    +0.000 OA
ATOM     27  HXT GLN A   1       1.428   3.436  22.918  0.00  0.00    +0.000 HD
ENDBRANCH  24  26
ENDBRANCH  20  24
ENDBRANCH  19  20
ENDBRANCH  18  19
ENDBRANCH  15  18
ENDBRANCH   1  14
BRANCH   1  28
ATOM     28  CB  GLN A   1       5.936   6.315  17.347  0.00  0.00    +0.000 C 
BRANCH  28  29
ATOM     29  CG  GLN A   1       7.418   6.660  17.636  0.00  0.00    +0.000 C 
ATOM     30  CD1 GLN A   1       7.728   8.157  17.640  0.00  0.00    +0.000 C 
ATOM     31  CD2 GLN A   1       7.811   6.099  19.014  0.00  0.00    +0.000 C 
ENDBRANCH  28  29
ENDBRANCH   1  28
TORSDOF 15
ENDMDL
MODEL 2
REMARK VINA RESULT:      -6.9      1.079      1.197
REMARK  Name = 
REMARK  18 active torsions:
REMARK  status: ('A' for Active; 'I' for Inactive)
REMARK    1  A    between atoms: C_1  and  C_2
REMARK    2  A    between atoms: C_2  and  C_3
REMARK    3  A    between atoms: C_3  and  C_4
REMARK    4  A    between atoms: C_4  and  N_5
REMARK    5  A    between atoms: C_4  and  C_23
REMARK    6  A    between atoms: C_6  and  CA_8
REMARK    7  A    between atoms: CA_8  and  CB_9
REMARK    8  A    between atoms: CA_8  and  N_13
REMARK    9  A    between atoms: CB_9  and  CG_10
REMARK   10  A    between atoms: CG_10  and  CD1_11
REMARK   11  A    between atoms: CG_10  and  CD2_12
REMARK   12  A    between atoms: CD_14  and  CG_16
REMARK   13  A    between atoms: CG_16  and  CB_17
REMARK   14  A    between atoms: CB_17  and  CA_18
REMARK   15  A    between atoms: CA_18  and  N_19
REMARK   16  A    between atoms: CA_18  and  C_20
REMARK   17  A    between atoms: C_20  and  OXT_22
REMARK   18  A    between atoms: C_23  and  O_25
REMARK                            x       y       z     vdW  Elec       q    Type
REMARK                         _______ _______ _______ _____ _____    ______ ____
ROOT
ATOM      1  CA  GLN A   1       5.326   4.907  16.817  0.00  0.00    +0.000 C 
ENDROOT
BRANCH   1   3
ATOM      2  N   UNK A   2       5.761   4.495  14.415  0.00  0.00    +0.000 N 
ATOM      3  C   GLN A   1       6.273   4.417  15.702  0.00  0.00    +0.000 C 
ATOM      4  O   GLN A   1       7.410   4.014  15.935  0.00  0.00    +0.000 OA
ATOM      5  H   UNK A   2       4.762   4.314  14.350  0.00  0.00    +0.000 HD
BRANCH   2   6
ATOM      6  C   UNK A   2       6.576   3.969  13.289  0.00  0.00    +0.000 C 
BRANCH   6   7
ATOM      7  C   UNK A   2       7.491   5.101  12.782  0.00  0.00    +0.000 C 
ATOM      8  O   UNK A   2       7.663   5.414  11.615  0.00  0.00    +0.000 OA
BRANCH   7   9
ATOM      9  O   UNK A   2       8.195   5.685  13.789  0.00  0.00    +0.000 OA
ATOM     10  H   UNK A   2       7.590   6.199  14.362  0.00  0.00    +0.000 HD
ENDBRANCH   7   9
ENDBRANCH   6   7
BRANCH   6  11
ATOM     11  C   UNK A   2       5.660   3.386  12.204  0.00  0.00    +0.000 C 
BRANCH  11  13
ATOM     12  C   UNK A   2       7.295   1.925  10.985  0.00  0.00    +0.000 C 
ATOM     13  C   UNK A   2       6.000   1.952  11.786  0.00  0.00    +0.000 C 
ENDBRANCH  11  13
ENDBRANCH   6  11
ENDBRANCH   2   6
ENDBRANCH   1   3
BRANCH   1  14
ATOM     14  N   GLN A   1       5.051   3.796  17.723  0.00  0.00    +0.000 N 
ATOM     15  CD  GLN A   1       3.818   3.180  17.673  0.00  0.00    +0.000 C 
ATOM     16  OE1 GLN A   1       2.851   3.614  17.045  0.00  0.00    +0.000 OA
ATOM     17  H   GLN A   1       5.842   3.203  17.955  0.00  0.00    +0.000 HD
BRANCH  15  18
ATOM     18  CG  GLN A   1       3.655   1.967  18.559  0.00  0.00    +0.000 C 
BRANCH  18  19
ATOM     19  CB  GLN A   1       2.510   2.176  19.551  0.00  0.00    +0.000 C 
BRANCH  19  20
ATOM     20  CA  GLN A   1       2.798   3.181  20.681  0.00  0.00    +0.000 C 
BRANCH  20  21
ATOM     21  N   GLN A   1       2.671   2.471  21.977  0.00  0.00    +0.000 NA
ATOM     22  H1  GLN A   1       1.706   2.604  22.304  0.00  0.00    +0.000 HD
ATOM     23  H2  GLN A   1       3.229   2.969  22.673  0.00  0.00    +0.000 HD
ENDBRANCH  20  21
BRANCH  20  24
ATOM     24  C   GLN A   1       1.825   4.376  20.659  0.00  0.00    +0.000 C 
ATOM     25  O   GLN A   1       0.677   4.317  20.244  0.00  0.00    +0.000 OA
BRANCH  24  26
ATOM     26  OXT GLN A   1       2.364   5.520  21.157  0.00  0.00    +0.000 OA
ATOM     27  HXT GLN A   1       1.717   6.247  21.332  0.00  0.00    +0.000 HD
ENDBRANCH  24  26
ENDBRANCH  20  24
ENDBRANCH  19  20
ENDBRANCH  18  19
ENDBRANCH  15  18
ENDBRANCH   1  14
BRANCH   1  28
ATOM     28  CB  GLN A   1       5.816   6.187  17.526  0.00  0.00    +0.000 C 
BRANCH  28  29
ATOM     29  CG  GLN A   1       7.335   6.445  17.693  0.00  0.00    +0.000 C 
ATOM     30  CD1 GLN A   1       7.736   7.918  17.614  0.00  0.00    +0.000 C 
ATOM     31  CD2 GLN A   1       7.795   5.909  19.059  0.00  0.00    +0.000 C 
ENDBRANCH  28  29
ENDBRANCH   1  28
TORSDOF 15
ENDMDL
MODEL 3
REMARK VINA RESULT:      -6.9      4.072      5.852
REMARK  Name = 
REMARK  18 active torsions:
REMARK  status: ('A' for Active; 'I' for Inactive)
REMARK    1  A    between atoms: C_1  and  C_2
REMARK    2  A    between atoms: C_2  and  C_3
REMARK    3  A    between atoms: C_3  and  C_4
REMARK    4  A    between atoms: C_4  and  N_5
REMARK    5  A    between atoms: C_4  and  C_23
REMARK    6  A    between atoms: C_6  and  CA_8
REMARK    7  A    between atoms: CA_8  and  CB_9
REMARK    8  A    between atoms: CA_8  and  N_13
REMARK    9  A    between atoms: CB_9  and  CG_10
REMARK   10  A    between atoms: CG_10  and  CD1_11
REMARK   11  A    between atoms: CG_10  and  CD2_12
REMARK   12  A    between atoms: CD_14  and  CG_16
REMARK   13  A    between atoms: CG_16  and  CB_17
REMARK   14  A    between atoms: CB_17  and  CA_18
REMARK   15  A    between atoms: CA_18  and  N_19
REMARK   16  A    between atoms: CA_18  and  C_20
REMARK   17  A    between atoms: C_20  and  OXT_22
REMARK   18  A    between atoms: C_23  and  O_25
REMARK                            x       y       z     vdW  Elec       q    Type
REMARK                         _______ _______ _______ _____ _____    ______ ____
ROOT
ATOM      1  CA  GLN A   1       2.718   5.289  18.507  0.00  0.00    +0.000 C 
ENDROOT
BRANCH   1   3
ATOM      2  N   UNK A   2       4.797   5.379  17.166  0.00  0.00    +0.000 N 
ATOM      3  C   GLN A   1       3.851   4.556  17.760  0.00  0.00    +0.000 C 
ATOM      4  O   GLN A   1       3.927   3.331  17.719  0.00  0.00    +0.000 OA
ATOM      5  H   UNK A   2       4.421   6.248  16.794  0.00  0.00    +0.000 HD
BRANCH   2   6
ATOM      6  C   UNK A   2       5.879   4.758  16.359  0.00  0.00    +0.000 C 
BRANCH   6   7
ATOM      7  C   UNK A   2       7.236   5.208  16.936  0.00  0.00    +0.000 C 
ATOM      8  O   UNK A   2       7.611   6.362  17.064  0.00  0.00    +0.000 OA
BRANCH   7   9
ATOM      9  O   UNK A   2       8.052   4.156  17.215  0.00  0.00    +0.000 OA
ATOM     10  H   UNK A   2       7.654   3.329  16.875  0.00  0.00    +0.000 HD
ENDBRANCH   7   9
ENDBRANCH   6   7
BRANCH   6  11
ATOM     11  C   UNK A   2       5.695   5.105  14.875  0.00  0.00    +0.000 C 
BRANCH  11  13
ATOM     12  C   UNK A   2       5.787   3.578  12.888  0.00  0.00    +0.000 C 
ATOM     13  C   UNK A   2       6.613   4.335  13.920  0.00  0.00    +0.000 C 
ENDBRANCH  11  13
ENDBRANCH   6  11
ENDBRANCH   2   6
ENDBRANCH   1   3
BRANCH   1  14
ATOM     14  N   GLN A   1       2.424   6.537  17.808  0.00  0.00    +0.000 N 
ATOM     15  CD  GLN A   1       2.284   7.698  18.540  0.00  0.00    +0.000 C 
ATOM     16  OE1 GLN A   1       2.204   7.737  19.769  0.00  0.00    +0.000 OA
ATOM     17  H   GLN A   1       2.825   6.635  16.881  0.00  0.00    +0.000 HD
BRANCH  15  18
ATOM     18  CG  GLN A   1       2.096   8.961  17.734  0.00  0.00    +0.000 C 
BRANCH  18  19
ATOM     19  CB  GLN A   1       1.541  10.083  18.612  0.00  0.00    +0.000 C 
BRANCH  19  20
ATOM     20  CA  GLN A   1       0.007  10.124  18.730  0.00  0.00    +0.000 C 
BRANCH  20  21
ATOM     21  N   GLN A   1      -0.484  11.305  17.978  0.00  0.00    +0.000 NA
ATOM     22  H1  GLN A   1      -0.551  12.084  18.644  0.00  0.00    +0.000 HD
ATOM     23  H2  GLN A   1      -1.456  11.136  17.712  0.00  0.00    +0.000 HD
ENDBRANCH  20  21
BRANCH  20  24
ATOM     24  C   GLN A   1      -0.463  10.224  20.195  0.00  0.00    +0.000 C 
ATOM     25  O   GLN A   1      -1.041  11.194  20.664  0.00  0.00    +0.000 OA
BRANCH  24  26
ATOM     26  OXT GLN A   1      -0.178   9.117  20.929  0.00  0.00    +0.000 OA
ATOM     27  HXT GLN A   1      -0.023   8.293  20.403  0.00  0.00    +0.000 HD
ENDBRANCH  24  26
ENDBRANCH  20  24
ENDBRANCH  19  20
ENDBRANCH  18  19
ENDBRANCH  15  18
ENDBRANCH   1  14
BRANCH   1  28
ATOM     28  CB  GLN A   1       1.478   4.409  18.766  0.00  0.00    +0.000 C 
BRANCH  28  29
ATOM     29  CG  GLN A   1       1.237   3.808  20.174  0.00  0.00    +0.000 C 
ATOM     30  CD1 GLN A   1       1.533   2.313  20.281  0.00  0.00    +0.000 C 
ATOM     31  CD2 GLN A   1       2.128   4.534  21.197  0.00  0.00    +0.000 C 
ENDBRANCH  28  29
ENDBRANCH   1  28
TORSDOF 15
ENDMDL
MODEL 4
REMARK VINA RESULT:      -6.8      3.813      5.478
REMARK  Name = 
REMARK  18 active torsions:
REMARK  status: ('A' for Active; 'I' for Inactive)
REMARK    1  A    between atoms: C_1  and  C_2
REMARK    2  A    between atoms: C_2  and  C_3
REMARK    3  A    between atoms: C_3  and  C_4
REMARK    4  A    between atoms: C_4  and  N_5
REMARK    5  A    between atoms: C_4  and  C_23
REMARK    6  A    between atoms: C_6  and  CA_8
REMARK    7  A    between atoms: CA_8  and  CB_9
REMARK    8  A    between atoms: CA_8  and  N_13
REMARK    9  A    between atoms: CB_9  and  CG_10
REMARK   10  A    between atoms: CG_10  and  CD1_11
REMARK   11  A    between atoms: CG_10  and  CD2_12
REMARK   12  A    between atoms: CD_14  and  CG_16
REMARK   13  A    between atoms: CG_16  and  CB_17
REMARK   14  A    between atoms: CB_17  and  CA_18
REMARK   15  A    between atoms: CA_18  and  N_19
REMARK   16  A    between atoms: CA_18  and  C_20
REMARK   17  A    between atoms: C_20  and  OXT_22
REMARK   18  A    between atoms: C_23  and  O_25
REMARK                            x       y       z     vdW  Elec       q    Type
REMARK                         _______ _______ _______ _____ _____    ______ ____
ROOT
ATOM      1  CA  GLN A   1       3.531   4.641  19.148  0.00  0.00    +0.000 C 
ENDROOT
BRANCH   1   3
ATOM      2  N   UNK A   2       5.348   5.151  17.546  0.00  0.00    +0.000 N 
ATOM      3  C   GLN A   1       5.034   4.838  18.860  0.00  0.00    +0.000 C 
ATOM      4  O   GLN A   1       5.888   4.751  19.739  0.00  0.00    +0.000 OA
ATOM      5  H   UNK A   2       4.752   4.703  16.855  0.00  0.00    +0.000 HD
BRANCH   2   6
ATOM      6  C   UNK A   2       6.779   5.280  17.164  0.00  0.00    +0.000 C 
BRANCH   6   7
ATOM      7  C   UNK A   2       7.264   6.687  17.562  0.00  0.00    +0.000 C 
ATOM      8  O   UNK A   2       7.074   7.714  16.931  0.00  0.00    +0.000 OA
BRANCH   7   9
ATOM      9  O   UNK A   2       8.039   6.668  18.680  0.00  0.00    +0.000 OA
ATOM     10  H   UNK A   2       8.597   5.864  18.683  0.00  0.00    +0.000 HD
ENDBRANCH   7   9
ENDBRANCH   6   7
BRANCH   6  11
ATOM     11  C   UNK A   2       6.955   4.967  15.672  0.00  0.00    +0.000 C 
BRANCH  11  13
ATOM     12  C   UNK A   2       6.069   3.851  13.608  0.00  0.00    +0.000 C 
ATOM     13  C   UNK A   2       6.013   3.888  15.129  0.00  0.00    +0.000 C 
ENDBRANCH  11  13
ENDBRANCH   6  11
ENDBRANCH   2   6
ENDBRANCH   1   3
BRANCH   1  14
ATOM     14  N   GLN A   1       2.997   5.874  19.720  0.00  0.00    +0.000 N 
ATOM     15  CD  GLN A   1       2.677   6.919  18.878  0.00  0.00    +0.000 C 
ATOM     16  OE1 GLN A   1       2.982   6.967  17.685  0.00  0.00    +0.000 OA
ATOM     17  H   GLN A   1       2.417   5.768  20.546  0.00  0.00    +0.000 HD
BRANCH  15  18
ATOM     18  CG  GLN A   1       2.023   8.112  19.535  0.00  0.00    +0.000 C 
BRANCH  18  19
ATOM     19  CB  GLN A   1       1.483   7.737  20.916  0.00  0.00    +0.000 C 
BRANCH  19  20
ATOM     20  CA  GLN A   1       0.400   8.679  21.472  0.00  0.00    +0.000 C 
BRANCH  20  21
ATOM     21  N   GLN A   1       0.122   9.719  20.451  0.00  0.00    +0.000 NA
ATOM     22  H1  GLN A   1      -0.529  10.394  20.871  0.00  0.00    +0.000 HD
ATOM     23  H2  GLN A   1      -0.429   9.295  19.701  0.00  0.00    +0.000 HD
ENDBRANCH  20  21
BRANCH  20  24
ATOM     24  C   GLN A   1       0.837   9.361  22.783  0.00  0.00    +0.000 C 
ATOM     25  O   GLN A   1       0.060   9.770  23.634  0.00  0.00    +0.000 OA
BRANCH  24  26
ATOM     26  OXT GLN A   1       2.185   9.462  22.914  0.00  0.00    +0.000 OA
ATOM     27  HXT GLN A   1       2.638   9.983  22.205  0.00  0.00    +0.000 HD
ENDBRANCH  24  26
ENDBRANCH  20  24
ENDBRANCH  19  20
ENDBRANCH  18  19
ENDBRANCH  15  18
ENDBRANCH   1  14
BRANCH   1  28
ATOM     28  CB  GLN A   1       2.733   4.115  17.937  0.00  0.00    +0.000 C 
BRANCH  28  29
ATOM     29  CG  GLN A   1       2.241   2.646  17.915  0.00  0.00    +0.000 C 
ATOM     30  CD1 GLN A   1       3.320   1.614  18.240  0.00  0.00    +0.000 C 
ATOM     31  CD2 GLN A   1       1.107   2.474  18.941  0.00  0.00    +0.000 C 
ENDBRANCH  28  29
ENDBRANCH   1  28
TORSDOF 15
ENDMDL
MODEL 5
REMARK VINA RESULT:      -6.8      1.887      2.309
REMARK  Name = 
REMARK  18 active torsions:
REMARK  status: ('A' for Active; 'I' for Inactive)
REMARK    1  A    between atoms: C_1  and  C_2
REMARK    2  A    between atoms: C_2  and  C_3
REMARK    3  A    between atoms: C_3  and  C_4
REMARK    4  A    between atoms: C_4  and  N_5
REMARK    5  A    between atoms: C_4  and  C_23
REMARK    6  A    between atoms: C_6  and  CA_8
REMARK    7  A    between atoms: CA_8  and  CB_9
REMARK    8  A    between atoms: CA_8  and  N_13
REMARK    9  A    between atoms: CB_9  and  CG_10
REMARK   10  A    between atoms: CG_10  and  CD1_11
REMARK   11  A    between atoms: CG_10  and  CD2_12
REMARK   12  A    between atoms: CD_14  and  CG_16
REMARK   13  A    between atoms: CG_16  and  CB_17
REMARK   14  A    between atoms: CB_17  and  CA_18
REMARK   15  A    between atoms: CA_18  and  N_19
REMARK   16  A    between atoms: CA_18  and  C_20
REMARK   17  A    between atoms: C_20  and  OXT_22
REMARK   18  A    between atoms: C_23  and  O_25
REMARK                            x       y       z     vdW  Elec       q    Type
REMARK                         _______ _______ _______ _____ _____    ______ ____
ROOT
ATOM      1  CA  GLN A   1       5.080   5.971  16.726  0.00  0.00    +0.000 C 
ENDROOT
BRANCH   1   3
ATOM      2  N   UNK A   2       6.261   5.329  14.647  0.00  0.00    +0.000 N 
ATOM      3  C   GLN A   1       5.986   4.984  15.962  0.00  0.00    +0.000 C 
ATOM      4  O   GLN A   1       6.455   3.979  16.490  0.00  0.00    +0.000 OA
ATOM      5  H   UNK A   2       5.492   5.790  14.166  0.00  0.00    +0.000 HD
BRANCH   2   6
ATOM      6  C   UNK A   2       7.060   4.393  13.814  0.00  0.00    +0.000 C 
BRANCH   6   7
ATOM      7  C   UNK A   2       7.943   5.223  12.862  0.00  0.00    +0.000 C 
ATOM      8  O   UNK A   2       8.798   6.027  13.197  0.00  0.00    +0.000 OA
BRANCH   7   9
ATOM      9  O   UNK A   2       7.606   5.042  11.556  0.00  0.00    +0.000 OA
ATOM     10  H   UNK A   2       6.781   5.531  11.357  0.00  0.00    +0.000 HD
ENDBRANCH   7   9
ENDBRANCH   6   7
BRANCH   6  11
ATOM     11  C   UNK A   2       6.132   3.408  13.090  0.00  0.00    +0.000 C 
BRANCH  11  13
ATOM     12  C   UNK A   2       4.284   3.308  11.398  0.00  0.00    +0.000 C 
ATOM     13  C   UNK A   2       4.785   3.997  12.661  0.00  0.00    +0.000 C 
ENDBRANCH  11  13
ENDBRANCH   6  11
ENDBRANCH   2   6
ENDBRANCH   1   3
BRANCH   1  14
ATOM     14  N   GLN A   1       4.274   5.223  17.686  0.00  0.00    +0.000 N 
ATOM     15  CD  GLN A   1       3.009   5.678  17.996  0.00  0.00    +0.000 C 
ATOM     16  OE1 GLN A   1       2.567   6.779  17.664  0.00  0.00    +0.000 OA
ATOM     17  H   GLN A   1       4.405   4.217  17.691  0.00  0.00    +0.000 HD
BRANCH  15  18
ATOM     18  CG  GLN A   1       2.198   4.786  18.907  0.00  0.00    +0.000 C 
BRANCH  18  19
ATOM     19  CB  GLN A   1       1.981   3.415  18.265  0.00  0.00    +0.000 C 
BRANCH  19  20
ATOM     20  CA  GLN A   1       2.388   2.213  19.136  0.00  0.00    +0.000 C 
BRANCH  20  21
ATOM     21  N   GLN A   1       1.977   2.494  20.533  0.00  0.00    +0.000 NA
ATOM     22  H1  GLN A   1       1.784   1.590  20.982  0.00  0.00    +0.000 HD
ATOM     23  H2  GLN A   1       1.061   2.948  20.514  0.00  0.00    +0.000 HD
ENDBRANCH  20  21
BRANCH  20  24
ATOM     24  C   GLN A   1       3.907   1.954  19.097  0.00  0.00    +0.000 C 
ATOM     25  O   GLN A   1       4.744   2.711  19.567  0.00  0.00    +0.000 OA
BRANCH  24  26
ATOM     26  OXT GLN A   1       4.239   0.785  18.489  0.00  0.00    +0.000 OA
ATOM     27  HXT GLN A   1       3.907   0.685  17.562  0.00  0.00    +0.000 HD
ENDBRANCH  24  26
ENDBRANCH  20  24
ENDBRANCH  19  20
ENDBRANCH  18  19
ENDBRANCH  15  18
ENDBRANCH   1  14
BRANCH   1  28
ATOM     28  CB  GLN A   1       5.845   7.161  17.342  0.00  0.00    +0.000 C 
BRANCH  28  29
ATOM     29  CG  GLN A   1       7.380   7.078  17.535  0.00  0.00    +0.000 C 
ATOM     30  CD1 GLN A   1       8.065   8.431  17.729  0.00  0.00    +0.000 C 
ATOM     31  CD2 GLN A   1       7.692   6.216  18.770  0.00  0.00    +0.000 C 
ENDBRANCH  28  29
ENDBRANCH   1  28
TORSDOF 15
ENDMDL
MODEL 6
REMARK VINA RESULT:      -6.8      5.021      7.189
REMARK  Name = 
REMARK  18 active torsions:
REMARK  status: ('A' for Active; 'I' for Inactive)
REMARK    1  A    between atoms: C_1  and  C_2
REMARK    2  A    between atoms: C_2  and  C_3
REMARK    3  A    between atoms: C_3  and  C_4
REMARK    4  A    between atoms: C_4  and  N_5
REMARK    5  A    between atoms: C_4  and  C_23
REMARK    6  A    between atoms: C_6  and  CA_8
REMARK    7  A    between atoms: CA_8  and  CB_9
REMARK    8  A    between atoms: CA_8  and  N_13
REMARK    9  A    between atoms: CB_9  and  CG_10
REMARK   10  A    between atoms: CG_10  and  CD1_11
REMARK   11  A    between atoms: CG_10  and  CD2_12
REMARK   12  A    between atoms: CD_14  and  CG_16
REMARK   13  A    between atoms: CG_16  and  CB_17
REMARK   14  A    between atoms: CB_17  and  CA_18
REMARK   15  A    between atoms: CA_18  and  N_19
REMARK   16  A    between atoms: CA_18  and  C_20
REMARK   17  A    between atoms: C_20  and  OXT_22
REMARK   18  A    between atoms: C_23  and  O_25
REMARK                            x       y       z     vdW  Elec       q    Type
REMARK                         _______ _______ _______ _____ _____    ______ ____
ROOT
ATOM      1  CA  GLN A   1       3.133   6.688  18.366  0.00  0.00    +0.000 C 
ENDROOT
BRANCH   1   3
ATOM      2  N   UNK A   2       5.549   6.162  18.245  0.00  0.00    +0.000 N 
ATOM      3  C   GLN A   1       4.434   6.594  17.543  0.00  0.00    +0.000 C 
ATOM      4  O   GLN A   1       4.473   6.856  16.343  0.00  0.00    +0.000 OA
ATOM      5  H   UNK A   2       5.580   6.474  19.213  0.00  0.00    +0.000 HD
BRANCH   2   6
ATOM      6  C   UNK A   2       6.860   6.119  17.549  0.00  0.00    +0.000 C 
BRANCH   6   7
ATOM      7  C   UNK A   2       7.362   4.661  17.546  0.00  0.00    +0.000 C 
ATOM      8  O   UNK A   2       8.154   4.179  16.753  0.00  0.00    +0.000 OA
BRANCH   7   9
ATOM      9  O   UNK A   2       6.743   3.901  18.490  0.00  0.00    +0.000 OA
ATOM     10  H   UNK A   2       6.629   4.422  19.311  0.00  0.00    +0.000 HD
ENDBRANCH   7   9
ENDBRANCH   6   7
BRANCH   6  11
ATOM     11  C   UNK A   2       7.838   7.105  18.204  0.00  0.00    +0.000 C 
BRANCH  11  13
ATOM     12  C   UNK A   2       8.632   9.470  18.459  0.00  0.00    +0.000 C 
ATOM     13  C   UNK A   2       7.848   8.503  17.580  0.00  0.00    +0.000 C 
ENDBRANCH  11  13
ENDBRANCH   6  11
ENDBRANCH   2   6
ENDBRANCH   1   3
BRANCH   1  14
ATOM     14  N   GLN A   1       2.322   7.784  17.842  0.00  0.00    +0.000 N 
ATOM     15  CD  GLN A   1       1.680   8.624  18.728  0.00  0.00    +0.000 C 
ATOM     16  OE1 GLN A   1       1.583   8.413  19.938  0.00  0.00    +0.000 OA
ATOM     17  H   GLN A   1       2.645   8.204  16.977  0.00  0.00    +0.000 HD
BRANCH  15  18
ATOM     18  CG  GLN A   1       0.959   9.799  18.110  0.00  0.00    +0.000 C 
BRANCH  18  19
ATOM     19  CB  GLN A   1      -0.269  10.175  18.941  0.00  0.00    +0.000 C 
BRANCH  19  20
ATOM     20  CA  GLN A   1      -1.129  11.312  18.359  0.00  0.00    +0.000 C 
BRANCH  20  21
ATOM     21  N   GLN A   1      -1.995  11.837  19.442  0.00  0.00    +0.000 NA
ATOM     22  H1  GLN A   1      -1.577  12.719  19.767  0.00  0.00    +0.000 HD
ATOM     23  H2  GLN A   1      -1.907  11.221  20.253  0.00  0.00    +0.000 HD
ENDBRANCH  20  21
BRANCH  20  24
ATOM     24  C   GLN A   1      -2.013  10.834  17.190  0.00  0.00    +0.000 C 
ATOM     25  O   GLN A   1      -2.471   9.704  17.096  0.00  0.00    +0.000 OA
BRANCH  24  26
ATOM     26  OXT GLN A   1      -2.246  11.797  16.261  0.00  0.00    +0.000 OA
ATOM     27  HXT GLN A   1      -1.979  12.712  16.529  0.00  0.00    +0.000 HD
ENDBRANCH  24  26
ENDBRANCH  20  24
ENDBRANCH  19  20
ENDBRANCH  18  19
ENDBRANCH  15  18
ENDBRANCH   1  14
BRANCH   1  28
ATOM     28  CB  GLN A   1       2.376   5.349  18.480  0.00  0.00    +0.000 C 
BRANCH  28  29
ATOM     29  CG  GLN A   1       2.338   4.595  19.833  0.00  0.00    +0.000 C 
ATOM     30  CD1 GLN A   1       0.950   4.100  20.241  0.00  0.00    +0.000 C 
ATOM     31  CD2 GLN A   1       3.266   3.370  19.760  0.00  0.00    +0.000 C 
ENDBRANCH  28  29
ENDBRANCH   1  28
TORSDOF 15
ENDMDL
MODEL 7
REMARK VINA RESULT:      -6.8      4.507      6.176
REMARK  Name = 
REMARK  18 active torsions:
REMARK  status: ('A' for Active; 'I' for Inactive)
REMARK    1  A    between atoms: C_1  and  C_2
REMARK    2  A    between atoms: C_2  and  C_3
REMARK    3  A    between atoms: C_3  and  C_4
REMARK    4  A    between atoms: C_4  and  N_5
REMARK    5  A    between atoms: C_4  and  C_23
REMARK    6  A    between atoms: C_6  and  CA_8
REMARK    7  A    between atoms: CA_8  and  CB_9
REMARK    8  A    between atoms: CA_8  and  N_13
REMARK    9  A    between atoms: CB_9  and  CG_10
REMARK   10  A    between atoms: CG_10  and  CD1_11
REMARK   11  A    between atoms: CG_10  and  CD2_12
REMARK   12  A    between atoms: CD_14  and  CG_16
REMARK   13  A    between atoms: CG_16  and  CB_17
REMARK   14  A    between atoms: CB_17  and  CA_18
REMARK   15  A    between atoms: CA_18  and  N_19
REMARK   16  A    between atoms: CA_18  and  C_20
REMARK   17  A    between atoms: C_20  and  OXT_22
REMARK   18  A    between atoms: C_23  and  O_25
REMARK                            x       y       z     vdW  Elec       q    Type
REMARK                         _______ _______ _______ _____ _____    ______ ____
ROOT
ATOM      1  CA  GLN A   1       3.604   5.742  19.379  0.00  0.00    +0.000 C 
ENDROOT
BRANCH   1   3
ATOM      2  N   UNK A   2       4.908   5.297  17.322  0.00  0.00    +0.000 N 
ATOM      3  C   GLN A   1       4.636   4.884  18.618  0.00  0.00    +0.000 C 
ATOM      4  O   GLN A   1       5.198   3.921  19.134  0.00  0.00    +0.000 OA
ATOM      5  H   UNK A   2       4.107   5.685  16.830  0.00  0.00    +0.000 HD
BRANCH   2   6
ATOM      6  C   UNK A   2       5.830   4.481  16.491  0.00  0.00    +0.000 C 
BRANCH   6   7
ATOM      7  C   UNK A   2       7.275   4.934  16.780  0.00  0.00    +0.000 C 
ATOM      8  O   UNK A   2       8.136   4.269  17.334  0.00  0.00    +0.000 OA
BRANCH   7   9
ATOM      9  O   UNK A   2       7.488   6.233  16.434  0.00  0.00    +0.000 OA
ATOM     10  H   UNK A   2       7.242   6.818  17.178  0.00  0.00    +0.000 HD
ENDBRANCH   7   9
ENDBRANCH   6   7
BRANCH   6  11
ATOM     11  C   UNK A   2       5.438   4.586  15.010  0.00  0.00    +0.000 C 
BRANCH  11  13
ATOM     12  C   UNK A   2       5.700   3.532  12.750  0.00  0.00    +0.000 C 
ATOM     13  C   UNK A   2       6.413   3.911  14.042  0.00  0.00    +0.000 C 
ENDBRANCH  11  13
ENDBRANCH   6  11
ENDBRANCH   2   6
ENDBRANCH   1   3
BRANCH   1  14
ATOM     14  N   GLN A   1       2.919   6.610  18.426  0.00  0.00    +0.000 N 
ATOM     15  CD  GLN A   1       2.269   7.734  18.891  0.00  0.00    +0.000 C 
ATOM     16  OE1 GLN A   1       2.060   7.971  20.081  0.00  0.00    +0.000 OA
ATOM     17  H   GLN A   1       3.340   6.682  17.505  0.00  0.00    +0.000 HD
BRANCH  15  18
ATOM     18  CG  GLN A   1       1.686   8.639  17.831  0.00  0.00    +0.000 C 
BRANCH  18  19
ATOM     19  CB  GLN A   1       1.444  10.040  18.392  0.00  0.00    +0.000 C 
BRANCH  19  20
ATOM     20  CA  GLN A   1      -0.036  10.434  18.552  0.00  0.00    +0.000 C 
BRANCH  20  21
ATOM     21  N   GLN A   1      -0.790   9.875  17.403  0.00  0.00    +0.000 NA
ATOM     22  H1  GLN A   1      -1.770  10.166  17.510  0.00  0.00    +0.000 HD
ATOM     23  H2  GLN A   1      -0.831   8.859  17.508  0.00  0.00    +0.000 HD
ENDBRANCH  20  21
BRANCH  20  24
ATOM     24  C   GLN A   1      -0.231  11.963  18.591  0.00  0.00    +0.000 C 
ATOM     25  O   GLN A   1       0.273  12.696  19.429  0.00  0.00    +0.000 OA
BRANCH  24  26
ATOM     26  OXT GLN A   1      -1.023  12.431  17.591  0.00  0.00    +0.000 OA
ATOM     27  HXT GLN A   1      -1.336  13.363  17.705  0.00  0.00    +0.000 HD
ENDBRANCH  24  26
ENDBRANCH  20  24
ENDBRANCH  19  20
ENDBRANCH  18  19
ENDBRANCH  15  18
ENDBRANCH   1  14
BRANCH   1  28
ATOM     28  CB  GLN A   1       2.653   4.918  20.272  0.00  0.00    +0.000 C 
BRANCH  28  29
ATOM     29  CG  GLN A   1       1.400   4.248  19.654  0.00  0.00    +0.000 C 
ATOM     30  CD1 GLN A   1       1.599   3.729  18.231  0.00  0.00    +0.000 C 
ATOM     31  CD2 GLN A   1       0.977   3.055  20.530  0.00  0.00    +0.000 C 
ENDBRANCH  28  29
ENDBRANCH   1  28
TORSDOF 15
ENDMDL
MODEL 8
REMARK VINA RESULT:      -6.8      4.445      8.831
REMARK  Name = 
REMARK  18 active torsions:
REMARK  status: ('A' for Active; 'I' for Inactive)
REMARK    1  A    between atoms: C_1  and  C_2
REMARK    2  A    between atoms: C_2  and  C_3
REMARK    3  A    between atoms: C_3  and  C_4
REMARK    4  A    between atoms: C_4  and  N_5
REMARK    5  A    between atoms: C_4  and  C_23
REMARK    6  A    between atoms: C_6  and  CA_8
REMARK    7  A    between atoms: CA_8  and  CB_9
REMARK    8  A    between atoms: CA_8  and  N_13
REMARK    9  A    between atoms: CB_9  and  CG_10
REMARK   10  A    between atoms: CG_10  and  CD1_11
REMARK   11  A    between atoms: CG_10  and  CD2_12
REMARK   12  A    between atoms: CD_14  and  CG_16
REMARK   13  A    between atoms: CG_16  and  CB_17
REMARK   14  A    between atoms: CB_17  and  CA_18
REMARK   15  A    between atoms: CA_18  and  N_19
REMARK   16  A    between atoms: CA_18  and  C_20
REMARK   17  A    between atoms: C_20  and  OXT_22
REMARK   18  A    between atoms: C_23  and  O_25
REMARK                            x       y       z     vdW  Elec       q    Type
REMARK                         _______ _______ _______ _____ _____    ______ ____
ROOT
ATOM      1  CA  GLN A   1       2.451   6.027  19.567  0.00  0.00    +0.000 C 
ENDROOT
BRANCH   1   3
ATOM      2  N   UNK A   2       1.401   8.044  20.545  0.00  0.00    +0.000 N 
ATOM      3  C   GLN A   1       2.115   7.529  19.473  0.00  0.00    +0.000 C 
ATOM      4  O   GLN A   1       2.480   8.227  18.530  0.00  0.00    +0.000 OA
ATOM      5  H   UNK A   2       0.729   7.397  20.949  0.00  0.00    +0.000 HD
BRANCH   2   6
ATOM      6  C   UNK A   2       0.967   9.464  20.499  0.00  0.00    +0.000 C 
BRANCH   6   7
ATOM      7  C   UNK A   2       1.006  10.031  21.932  0.00  0.00    +0.000 C 
ATOM      8  O   UNK A   2       1.550   9.511  22.893  0.00  0.00    +0.000 OA
BRANCH   7   9
ATOM      9  O   UNK A   2       0.266  11.166  22.057  0.00  0.00    +0.000 OA
ATOM     10  H   UNK A   2       0.745  11.919  21.655  0.00  0.00    +0.000 HD
ENDBRANCH   7   9
ENDBRANCH   6   7
BRANCH   6  11
ATOM     11  C   UNK A   2      -0.411   9.573  19.831  0.00  0.00    +0.000 C 
BRANCH  11  13
ATOM     12  C   UNK A   2      -1.778  10.182  17.819  0.00  0.00    +0.000 C 
ATOM     13  C   UNK A   2      -0.410  10.292  18.479  0.00  0.00    +0.000 C 
ENDBRANCH  11  13
ENDBRANCH   6  11
ENDBRANCH   2   6
ENDBRANCH   1   3
BRANCH   1  14
ATOM     14  N   GLN A   1       3.900   5.872  19.649  0.00  0.00    +0.000 N 
ATOM     15  CD  GLN A   1       4.594   5.454  18.532  0.00  0.00    +0.000 C 
ATOM     16  OE1 GLN A   1       4.063   5.017  17.510  0.00  0.00    +0.000 OA
ATOM     17  H   GLN A   1       4.384   6.520  20.263  0.00  0.00    +0.000 HD
BRANCH  15  18
ATOM     18  CG  GLN A   1       6.098   5.432  18.665  0.00  0.00    +0.000 C 
BRANCH  18  19
ATOM     19  CB  GLN A   1       6.710   4.420  17.696  0.00  0.00    +0.000 C 
BRANCH  19  20
ATOM     20  CA  GLN A   1       7.447   5.032  16.491  0.00  0.00    +0.000 C 
BRANCH  20  21
ATOM     21  N   GLN A   1       7.362   6.509  16.598  0.00  0.00    +0.000 NA
ATOM     22  H1  GLN A   1       7.128   6.870  15.665  0.00  0.00    +0.000 HD
ATOM     23  H2  GLN A   1       8.302   6.874  16.765  0.00  0.00    +0.000 HD
ENDBRANCH  20  21
BRANCH  20  24
ATOM     24  C   GLN A   1       6.839   4.585  15.147  0.00  0.00    +0.000 C 
ATOM     25  O   GLN A   1       6.042   3.665  15.028  0.00  0.00    +0.000 OA
BRANCH  24  26
ATOM     26  OXT GLN A   1       7.269   5.321  14.089  0.00  0.00    +0.000 OA
ATOM     27  HXT GLN A   1       8.191   5.124  13.788  0.00  0.00    +0.000 HD
ENDBRANCH  24  26
ENDBRANCH  20  24
ENDBRANCH  19  20
ENDBRANCH  18  19
ENDBRANCH  15  18
ENDBRANCH   1  14
BRANCH   1  28
ATOM     28  CB  GLN A   1       1.678   5.289  20.680  0.00  0.00    +0.000 C 
BRANCH  28  29
ATOM     29  CG  GLN A   1       0.969   3.946  20.370  0.00  0.00    +0.000 C 
ATOM     30  CD1 GLN A   1       1.248   3.393  18.973  0.00  0.00    +0.000 C 
ATOM     31  CD2 GLN A   1       1.419   2.886  21.390  0.00  0.00    +0.000 C 
ENDBRANCH  28  29
ENDBRANCH   1  28
TORSDOF 15
ENDMDL
MODEL 9
REMARK VINA RESULT:      -6.8      4.250      6.191
REMARK  Name = 
REMARK  18 active torsions:
REMARK  status: ('A' for Active; 'I' for Inactive)
REMARK    1  A    between atoms: C_1  and  C_2
REMARK    2  A    between atoms: C_2  and  C_3
REMARK    3  A    between atoms: C_3  and  C_4
REMARK    4  A    between atoms: C_4  and  N_5
REMARK    5  A    between atoms: C_4  and  C_23
REMARK    6  A    between atoms: C_6  and  CA_8
REMARK    7  A    between atoms: CA_8  and  CB_9
REMARK    8  A    between atoms: CA_8  and  N_13
REMARK    9  A    between atoms: CB_9  and  CG_10
REMARK   10  A    between atoms: CG_10  and  CD1_11
REMARK   11  A    between atoms: CG_10  and  CD2_12
REMARK   12  A    between atoms: CD_14  and  CG_16
REMARK   13  A    between atoms: CG_16  and  CB_17
REMARK   14  A    between atoms: CB_17  and  CA_18
REMARK   15  A    between atoms: CA_18  and  N_19
REMARK   16  A    between atoms: CA_18  and  C_20
REMARK   17  A    between atoms: C_20  and  OXT_22
REMARK   18  A    between atoms: C_23  and  O_25
REMARK                            x       y       z     vdW  Elec       q    Type
REMARK                         _______ _______ _______ _____ _____    ______ ____
ROOT
ATOM      1  CA  GLN A   1       3.202   5.446  18.841  0.00  0.00    +0.000 C 
ENDROOT
BRANCH   1   3
ATOM      2  N   UNK A   2       5.434   5.936  17.887  0.00  0.00    +0.000 N 
ATOM      3  C   GLN A   1       4.702   5.105  18.723  0.00  0.00    +0.000 C 
ATOM      4  O   GLN A   1       5.218   4.182  19.349  0.00  0.00    +0.000 OA
ATOM      5  H   UNK A   2       4.921   6.266  17.073  0.00  0.00    +0.000 HD
BRANCH   2   6
ATOM      6  C   UNK A   2       6.869   5.632  17.654  0.00  0.00    +0.000 C 
BRANCH   6   7
ATOM      7  C   UNK A   2       7.667   6.947  17.751  0.00  0.00    +0.000 C 
ATOM      8  O   UNK A   2       7.766   7.789  16.874  0.00  0.00    +0.000 OA
BRANCH   7   9
ATOM      9  O   UNK A   2       8.360   7.045  18.918  0.00  0.00    +0.000 OA
ATOM     10  H   UNK A   2       9.301   7.237  18.729  0.00  0.00    +0.000 HD
ENDBRANCH   7   9
ENDBRANCH   6   7
BRANCH   6  11
ATOM     11  C   UNK A   2       7.042   4.904  16.313  0.00  0.00    +0.000 C 
BRANCH  11  13
ATOM     12  C   UNK A   2       5.980   4.168  14.164  0.00  0.00    +0.000 C 
ATOM     13  C   UNK A   2       5.955   5.207  15.278  0.00  0.00    +0.000 C 
ENDBRANCH  11  13
ENDBRANCH   6  11
ENDBRANCH   2   6
ENDBRANCH   1   3
BRANCH   1  14
ATOM     14  N   GLN A   1       2.950   6.706  18.148  0.00  0.00    +0.000 N 
ATOM     15  CD  GLN A   1       2.359   7.744  18.838  0.00  0.00    +0.000 C 
ATOM     16  OE1 GLN A   1       1.852   7.633  19.956  0.00  0.00    +0.000 OA
ATOM     17  H   GLN A   1       3.623   6.965  17.434  0.00  0.00    +0.000 HD
BRANCH  15  18
ATOM     18  CG  GLN A   1       2.239   9.047  18.084  0.00  0.00    +0.000 C 
BRANCH  18  19
ATOM     19  CB  GLN A   1       0.774   9.470  17.970  0.00  0.00    +0.000 C 
BRANCH  19  20
ATOM     20  CA  GLN A   1       0.433  10.828  18.610  0.00  0.00    +0.000 C 
BRANCH  20  21
ATOM     21  N   GLN A   1       1.701  11.471  19.033  0.00  0.00    +0.000 NA
ATOM     22  H1  GLN A   1       1.518  12.478  19.122  0.00  0.00    +0.000 HD
ATOM     23  H2  GLN A   1       2.364  11.418  18.257  0.00  0.00    +0.000 HD
ENDBRANCH  20  21
BRANCH  20  24
ATOM     24  C   GLN A   1      -0.494  10.680  19.832  0.00  0.00    +0.000 C 
ATOM     25  O   GLN A   1      -1.442  11.416  20.065  0.00  0.00    +0.000 OA
BRANCH  24  26
ATOM     26  OXT GLN A   1      -0.161   9.638  20.638  0.00  0.00    +0.000 OA
ATOM     27  HXT GLN A   1      -0.024   8.775  20.173  0.00  0.00    +0.000 HD
ENDBRANCH  24  26
ENDBRANCH  20  24
ENDBRANCH  19  20
ENDBRANCH  18  19
ENDBRANCH  15  18
ENDBRANCH   1  14
BRANCH   1  28
ATOM     28  CB  GLN A   1       2.271   4.295  18.408  0.00  0.00    +0.000 C 
BRANCH  28  29
ATOM     29  CG  GLN A   1       1.175   3.781  19.375  0.00  0.00    +0.000 C 
ATOM     30  CD1 GLN A   1       0.941   2.272  19.319  0.00  0.00    +0.000 C 
ATOM     31  CD2 GLN A   1       1.563   4.138  20.821  0.00  0.00    +0.000 C 
ENDBRANCH  28  29
ENDBRANCH   1  28
TORSDOF 15
ENDMDL
