MODEL 1
REMARK VINA RESULT:      -7.7      0.000      0.000
REMARK  Name = 
REMARK  8 active torsions:
REMARK  status: ('A' for Active; 'I' for Inactive)
REMARK    1  A    between atoms: C_1  and  C_2
REMARK    2  A    between atoms: C_2  and  O_3
REMARK    3  A    between atoms: O_3  and  C_4
REMARK    4  A    between atoms: C_4  and  C_6
REMARK    5  A    between atoms: C_7  and  C_8
REMARK    6  A    between atoms: C_18  and  C_19
REMARK    7  A    between atoms: C_22  and  N_23
REMARK    8  A    between atoms: C_24  and  C_26
REMARK                            x       y       z     vdW  Elec       q    Type
REMARK                         _______ _______ _______ _____ _____    ______ ____
ROOT
ATOM      1  C   UNL     1       0.038  13.434  20.825  0.00  0.00    +0.000 C 
ATOM      2  C   UNL     1      -0.641  14.155  19.904  0.00  0.00    +0.000 C 
ATOM      3  N   UNL     1      -1.813  13.641  19.398  0.00  0.00    +0.000 N 
ATOM      4  C   UNL     1      -2.467  12.556  19.911  0.00  0.00    +0.000 C 
ATOM      5  O   UNL     1      -3.569  12.205  19.509  0.00  0.00    +0.000 OA
ATOM      6  N   UNL     1      -1.830  11.908  20.925  0.00  0.00    +0.000 N 
ATOM      7  C   UNL     1      -0.401  12.036  21.135  0.00  0.00    +0.000 C 
ATOM      8  H   UNL     1      -2.306  14.144  18.667  0.00  0.00    +0.000 HD
ATOM      9  H   UNL     1      -2.293  11.064  21.233  0.00  0.00    +0.000 HD
ENDROOT
BRANCH   2  10
ATOM     10  C   UNL     1      -0.196  15.440  19.340  0.00  0.00    +0.000 A 
ATOM     11  C   UNL     1       1.087  15.558  18.786  0.00  0.00    +0.000 A 
ATOM     12  C   UNL     1       1.527  16.784  18.281  0.00  0.00    +0.000 A 
ATOM     13  C   UNL     1       0.685  17.895  18.316  0.00  0.00    +0.000 A 
ATOM     14  C   UNL     1      -0.595  17.783  18.857  0.00  0.00    +0.000 A 
ATOM     15  C   UNL     1      -1.036  16.559  19.366  0.00  0.00    +0.000 A 
ENDBRANCH   2  10
BRANCH   7  16
ATOM     16  C   UNL     1       0.337  10.966  20.323  0.00  0.00    +0.000 A 
ATOM     17  C   UNL     1       0.663   9.722  20.880  0.00  0.00    +0.000 A 
ATOM     18  C   UNL     1       1.389   8.779  20.158  0.00  0.00    +0.000 A 
ATOM     19  C   UNL     1       1.804   9.038  18.855  0.00  0.00    +0.000 A 
ATOM     20  C   UNL     1       1.491  10.275  18.284  0.00  0.00    +0.000 A 
ATOM     21  C   UNL     1       0.746  11.221  19.006  0.00  0.00    +0.000 A 
BRANCH  19  22
ATOM     22  N   UNL     1       2.541   8.093  18.106  0.00  0.00    +0.000 N 
ATOM     23  C   UNL     1       2.866   6.821  18.558  0.00  0.00    +0.000 C 
ATOM     24  O   UNL     1       2.528   6.321  19.625  0.00  0.00    +0.000 OA
ATOM     25  H   UNL     1       2.815   8.375  17.178  0.00  0.00    +0.000 HD
BRANCH  23  26
ATOM     26  C   UNL     1       3.707   5.984  17.665  0.00  0.00    +0.000 A 
ATOM     27  C   UNL     1       4.604   6.658  16.819  0.00  0.00    +0.000 A 
ATOM     28  C   UNL     1       5.366   5.950  15.893  0.00  0.00    +0.000 A 
ATOM     29  C   UNL     1       5.251   4.565  15.830  0.00  0.00    +0.000 A 
ATOM     30 CL   UNL     1       6.152   3.690  14.656  0.00  0.00    +0.000 Cl
ATOM     31  C   UNL     1       4.391   3.882  16.693  0.00  0.00    +0.000 A 
ATOM     32  C   UNL     1       3.620   4.591  17.619  0.00  0.00    +0.000 A 
ENDBRANCH  23  26
ENDBRANCH  19  22
ENDBRANCH   7  16
BRANCH   1  33
ATOM     33  C   UNL     1       1.234  13.953  21.518  0.00  0.00    +0.000 C 
ATOM     34  O   UNL     1       2.386  13.588  21.308  0.00  0.00    +0.000 OA
BRANCH  33  35
ATOM     35  O   UNL     1       0.884  14.858  22.461  0.00  0.00    +0.000 OA
BRANCH  35  37
ATOM     36  C   UNL     1       1.118  17.211  22.208  0.00  0.00    +0.000 C 
ATOM     37  C   UNL     1       1.823  15.930  22.614  0.00  0.00    +0.000 C 
ENDBRANCH  35  37
ENDBRANCH  33  35
ENDBRANCH   1  33
TORSDOF 7
ENDMDL
MODEL 2
REMARK VINA RESULT:      -7.6      0.412      1.235
REMARK  Name = 
REMARK  8 active torsions:
REMARK  status: ('A' for Active; 'I' for Inactive)
REMARK    1  A    between atoms: C_1  and  C_2
REMARK    2  A    between atoms: C_2  and  O_3
REMARK    3  A    between atoms: O_3  and  C_4
REMARK    4  A    between atoms: C_4  and  C_6
REMARK    5  A    between atoms: C_7  and  C_8
REMARK    6  A    between atoms: C_18  and  C_19
REMARK    7  A    between atoms: C_22  and  N_23
REMARK    8  A    between atoms: C_24  and  C_26
REMARK                            x       y       z     vdW  Elec       q    Type
REMARK                         _______ _______ _______ _____ _____    ______ ____
ROOT
ATOM      1  C   UNL     1       0.017  13.313  20.731  0.00  0.00    +0.000 C 
ATOM      2  C   UNL     1      -0.621  14.050  19.793  0.00  0.00    +0.000 C 
ATOM      3  N   UNL     1      -1.723  13.511  19.169  0.00  0.00    +0.000 N 
ATOM      4  C   UNL     1      -2.363  12.373  19.574  0.00  0.00    +0.000 C 
ATOM      5  O   UNL     1      -3.411  11.995  19.067  0.00  0.00    +0.000 OA
ATOM      6  N   UNL     1      -1.777  11.702  20.604  0.00  0.00    +0.000 N 
ATOM      7  C   UNL     1      -0.377  11.882  20.937  0.00  0.00    +0.000 C 
ATOM      8  H   UNL     1      -2.181  14.029  18.426  0.00  0.00    +0.000 HD
ATOM      9  H   UNL     1      -2.222  10.824  20.832  0.00  0.00    +0.000 HD
ENDROOT
BRANCH   2  10
ATOM     10  C   UNL     1      -0.196  15.381  19.330  0.00  0.00    +0.000 A 
ATOM     11  C   UNL     1      -1.053  16.481  19.470  0.00  0.00    +0.000 A 
ATOM     12  C   UNL     1      -0.669  17.740  19.001  0.00  0.00    +0.000 A 
ATOM     13  C   UNL     1       0.577  17.908  18.398  0.00  0.00    +0.000 A 
ATOM     14  C   UNL     1       1.438  16.820  18.261  0.00  0.00    +0.000 A 
ATOM     15  C   UNL     1       1.055  15.560  18.727  0.00  0.00    +0.000 A 
ENDBRANCH   2  10
BRANCH   7  16
ATOM     16  C   UNL     1       0.473  10.890  20.137  0.00  0.00    +0.000 A 
ATOM     17  C   UNL     1       1.036  11.239  18.902  0.00  0.00    +0.000 A 
ATOM     18  C   UNL     1       1.754  10.312  18.151  0.00  0.00    +0.000 A 
ATOM     19  C   UNL     1       1.945   9.011  18.609  0.00  0.00    +0.000 A 
ATOM     20  C   UNL     1       1.387   8.644  19.837  0.00  0.00    +0.000 A 
ATOM     21  C   UNL     1       0.675   9.582  20.602  0.00  0.00    +0.000 A 
BRANCH  19  22
ATOM     22  N   UNL     1       2.671   8.057  17.862  0.00  0.00    +0.000 N 
ATOM     23  C   UNL     1       3.100   6.836  18.365  0.00  0.00    +0.000 C 
ATOM     24  O   UNL     1       2.876   6.392  19.485  0.00  0.00    +0.000 OA
ATOM     25  H   UNL     1       2.854   8.288  16.898  0.00  0.00    +0.000 HD
BRANCH  23  26
ATOM     26  C   UNL     1       3.912   5.983  17.459  0.00  0.00    +0.000 A 
ATOM     27  C   UNL     1       4.736   6.644  16.532  0.00  0.00    +0.000 A 
ATOM     28  C   UNL     1       5.463   5.916  15.592  0.00  0.00    +0.000 A 
ATOM     29  C   UNL     1       5.387   4.527  15.597  0.00  0.00    +0.000 A 
ATOM     30 CL   UNL     1       6.243   3.626  14.409  0.00  0.00    +0.000 Cl
ATOM     31  C   UNL     1       4.602   3.860  16.539  0.00  0.00    +0.000 A 
ATOM     32  C   UNL     1       3.865   4.587  17.478  0.00  0.00    +0.000 A 
ENDBRANCH  23  26
ENDBRANCH  19  22
ENDBRANCH   7  16
BRANCH   1  33
ATOM     33  C   UNL     1       1.127  13.847  21.543  0.00  0.00    +0.000 C 
ATOM     34  O   UNL     1       2.319  13.669  21.315  0.00  0.00    +0.000 OA
BRANCH  33  35
ATOM     35  O   UNL     1       0.652  14.526  22.613  0.00  0.00    +0.000 OA
BRANCH  35  37
ATOM     36  C   UNL     1      -0.221  16.709  22.977  0.00  0.00    +0.000 C 
ATOM     37  C   UNL     1       1.024  15.910  22.635  0.00  0.00    +0.000 C 
ENDBRANCH  35  37
ENDBRANCH  33  35
ENDBRANCH   1  33
TORSDOF 7
ENDMDL
MODEL 3
REMARK VINA RESULT:      -7.6      1.956      2.602
REMARK  Name = 
REMARK  8 active torsions:
REMARK  status: ('A' for Active; 'I' for Inactive)
REMARK    1  A    between atoms: C_1  and  C_2
REMARK    2  A    between atoms: C_2  and  O_3
REMARK    3  A    between atoms: O_3  and  C_4
REMARK    4  A    between atoms: C_4  and  C_6
REMARK    5  A    between atoms: C_7  and  C_8
REMARK    6  A    between atoms: C_18  and  C_19
REMARK    7  A    between atoms: C_22  and  N_23
REMARK    8  A    between atoms: C_24  and  C_26
REMARK                            x       y       z     vdW  Elec       q    Type
REMARK                         _______ _______ _______ _____ _____    ______ ____
ROOT
ATOM      1  C   UNL     1      -0.733  14.000  21.654  0.00  0.00    +0.000 C 
ATOM      2  C   UNL     1      -1.132  14.410  20.429  0.00  0.00    +0.000 C 
ATOM      3  N   UNL     1      -2.212  13.788  19.845  0.00  0.00    +0.000 N 
ATOM      4  C   UNL     1      -3.057  12.932  20.495  0.00  0.00    +0.000 C 
ATOM      5  O   UNL     1      -4.075  12.497  19.975  0.00  0.00    +0.000 OA
ATOM      6  N   UNL     1      -2.711  12.621  21.775  0.00  0.00    +0.000 N 
ATOM      7  C   UNL     1      -1.354  12.779  22.260  0.00  0.00    +0.000 C 
ATOM      8  H   UNL     1      -2.491  14.047  18.904  0.00  0.00    +0.000 HD
ATOM      9  H   UNL     1      -3.304  11.926  22.206  0.00  0.00    +0.000 HD
ENDROOT
BRANCH   2  10
ATOM     10  C   UNL     1      -0.462  15.444  19.623  0.00  0.00    +0.000 A 
ATOM     11  C   UNL     1       0.807  15.199  19.079  0.00  0.00    +0.000 A 
ATOM     12  C   UNL     1       1.462  16.190  18.343  0.00  0.00    +0.000 A 
ATOM     13  C   UNL     1       0.850  17.426  18.138  0.00  0.00    +0.000 A 
ATOM     14  C   UNL     1      -0.415  17.674  18.669  0.00  0.00    +0.000 A 
ATOM     15  C   UNL     1      -1.071  16.686  19.408  0.00  0.00    +0.000 A 
ENDBRANCH   2  10
BRANCH   7  16
ATOM     16  C   UNL     1      -0.562  11.493  21.999  0.00  0.00    +0.000 A 
ATOM     17  C   UNL     1       0.288  11.370  20.891  0.00  0.00    +0.000 A 
ATOM     18  C   UNL     1       0.954  10.177  20.625  0.00  0.00    +0.000 A 
ATOM     19  C   UNL     1       0.807   9.072  21.458  0.00  0.00    +0.000 A 
ATOM     20  C   UNL     1      -0.040   9.175  22.566  0.00  0.00    +0.000 A 
ATOM     21  C   UNL     1      -0.701  10.382  22.844  0.00  0.00    +0.000 A 
BRANCH  19  22
ATOM     22  N   UNL     1       1.476   7.853  21.205  0.00  0.00    +0.000 N 
ATOM     23  C   UNL     1       1.945   7.466  19.957  0.00  0.00    +0.000 C 
ATOM     24  O   UNL     1       1.898   8.127  18.926  0.00  0.00    +0.000 OA
ATOM     25  H   UNL     1       1.633   7.256  22.002  0.00  0.00    +0.000 HD
BRANCH  23  26
ATOM     26  C   UNL     1       2.564   6.119  19.860  0.00  0.00    +0.000 A 
ATOM     27  C   UNL     1       1.915   5.070  20.534  0.00  0.00    +0.000 A 
ATOM     28  C   UNL     1       2.478   3.796  20.560  0.00  0.00    +0.000 A 
ATOM     29  C   UNL     1       3.675   3.564  19.891  0.00  0.00    +0.000 A 
ATOM     30 CL   UNL     1       4.399   2.006  19.962  0.00  0.00    +0.000 Cl
ATOM     31  C   UNL     1       4.306   4.590  19.185  0.00  0.00    +0.000 A 
ATOM     32  C   UNL     1       3.749   5.871  19.163  0.00  0.00    +0.000 A 
ENDBRANCH  23  26
ENDBRANCH  19  22
ENDBRANCH   7  16
BRANCH   1  33
ATOM     33  C   UNL     1       0.331  14.684  22.415  0.00  0.00    +0.000 C 
ATOM     34  O   UNL     1       1.531  14.614  22.172  0.00  0.00    +0.000 OA
BRANCH  33  35
ATOM     35  O   UNL     1      -0.193  15.367  23.460  0.00  0.00    +0.000 OA
BRANCH  35  37
ATOM     36  C   UNL     1       0.153  17.623  22.789  0.00  0.00    +0.000 C 
ATOM     37  C   UNL     1      -0.891  16.561  23.081  0.00  0.00    +0.000 C 
ENDBRANCH  35  37
ENDBRANCH  33  35
ENDBRANCH   1  33
TORSDOF 7
ENDMDL
MODEL 4
REMARK VINA RESULT:      -7.6      2.781      4.315
REMARK  Name = 
REMARK  8 active torsions:
REMARK  status: ('A' for Active; 'I' for Inactive)
REMARK    1  A    between atoms: C_1  and  C_2
REMARK    2  A    between atoms: C_2  and  O_3
REMARK    3  A    between atoms: O_3  and  C_4
REMARK    4  A    between atoms: C_4  and  C_6
REMARK    5  A    between atoms: C_7  and  C_8
REMARK    6  A    between atoms: C_18  and  C_19
REMARK    7  A    between atoms: C_22  and  N_23
REMARK    8  A    between atoms: C_24  and  C_26
REMARK                            x       y       z     vdW  Elec       q    Type
REMARK                         _______ _______ _______ _____ _____    ______ ____
ROOT
ATOM      1  C   UNL     1      -2.480  13.195  21.245  0.00  0.00    +0.000 C 
ATOM      2  C   UNL     1      -3.812  12.967  21.293  0.00  0.00    +0.000 C 
ATOM      3  N   UNL     1      -4.346  12.418  22.437  0.00  0.00    +0.000 N 
ATOM      4  C   UNL     1      -3.673  12.284  23.618  0.00  0.00    +0.000 C 
ATOM      5  O   UNL     1      -4.220  11.904  24.645  0.00  0.00    +0.000 OA
ATOM      6  N   UNL     1      -2.357  12.635  23.590  0.00  0.00    +0.000 N 
ATOM      7  C   UNL     1      -1.606  12.688  22.351  0.00  0.00    +0.000 C 
ATOM      8  H   UNL     1      -5.335  12.190  22.469  0.00  0.00    +0.000 HD
ATOM      9  H   UNL     1      -1.861  12.452  24.452  0.00  0.00    +0.000 HD
ENDROOT
BRANCH   2  10
ATOM     10  C   UNL     1      -4.752  13.204  20.185  0.00  0.00    +0.000 A 
ATOM     11  C   UNL     1      -5.532  14.369  20.161  0.00  0.00    +0.000 A 
ATOM     12  C   UNL     1      -6.450  14.582  19.130  0.00  0.00    +0.000 A 
ATOM     13  C   UNL     1      -6.587  13.639  18.112  0.00  0.00    +0.000 A 
ATOM     14  C   UNL     1      -5.809  12.482  18.125  0.00  0.00    +0.000 A 
ATOM     15  C   UNL     1      -4.893  12.265  19.156  0.00  0.00    +0.000 A 
ENDBRANCH   2  10
BRANCH   7  16
ATOM     16  C   UNL     1      -0.988  11.316  22.065  0.00  0.00    +0.000 A 
ATOM     17  C   UNL     1      -0.531  10.490  23.101  0.00  0.00    +0.000 A 
ATOM     18  C   UNL     1       0.088   9.273  22.830  0.00  0.00    +0.000 A 
ATOM     19  C   UNL     1       0.263   8.832  21.522  0.00  0.00    +0.000 A 
ATOM     20  C   UNL     1      -0.183   9.645  20.475  0.00  0.00    +0.000 A 
ATOM     21  C   UNL     1      -0.820  10.866  20.747  0.00  0.00    +0.000 A 
BRANCH  19  22
ATOM     22  N   UNL     1       0.888   7.600  21.227  0.00  0.00    +0.000 N 
ATOM     23  C   UNL     1       1.758   7.402  20.163  0.00  0.00    +0.000 C 
ATOM     24  O   UNL     1       2.145   8.255  19.372  0.00  0.00    +0.000 OA
ATOM     25  H   UNL     1       0.694   6.838  21.858  0.00  0.00    +0.000 HD
BRANCH  23  26
ATOM     26  C   UNL     1       2.270   6.022  19.961  0.00  0.00    +0.000 A 
ATOM     27  C   UNL     1       3.037   5.791  18.806  0.00  0.00    +0.000 A 
ATOM     28  C   UNL     1       3.482   4.506  18.502  0.00  0.00    +0.000 A 
ATOM     29  C   UNL     1       3.182   3.457  19.365  0.00  0.00    +0.000 A 
ATOM     30 CL   UNL     1       3.686   1.862  18.970  0.00  0.00    +0.000 Cl
ATOM     31  C   UNL     1       2.455   3.684  20.535  0.00  0.00    +0.000 A 
ATOM     32  C   UNL     1       2.000   4.970  20.840  0.00  0.00    +0.000 A 
ENDBRANCH  23  26
ENDBRANCH  19  22
ENDBRANCH   7  16
BRANCH   1  33
ATOM     33  C   UNL     1      -1.833  13.894  20.118  0.00  0.00    +0.000 C 
ATOM     34  O   UNL     1      -1.341  13.347  19.136  0.00  0.00    +0.000 OA
BRANCH  33  35
ATOM     35  O   UNL     1      -1.808  15.230  20.335  0.00  0.00    +0.000 OA
BRANCH  35  37
ATOM     36  C   UNL     1      -1.036  17.092  19.072  0.00  0.00    +0.000 C 
ATOM     37  C   UNL     1      -0.614  15.872  19.869  0.00  0.00    +0.000 C 
ENDBRANCH  35  37
ENDBRANCH  33  35
ENDBRANCH   1  33
TORSDOF 7
ENDMDL
MODEL 5
REMARK VINA RESULT:      -7.6      0.713      1.057
REMARK  Name = 
REMARK  8 active torsions:
REMARK  status: ('A' for Active; 'I' for Inactive)
REMARK    1  A    between atoms: C_1  and  C_2
REMARK    2  A    between atoms: C_2  and  O_3
REMARK    3  A    between atoms: O_3  and  C_4
REMARK    4  A    between atoms: C_4  and  C_6
REMARK    5  A    between atoms: C_7  and  C_8
REMARK    6  A    between atoms: C_18  and  C_19
REMARK    7  A    between atoms: C_22  and  N_23
REMARK    8  A    between atoms: C_24  and  C_26
REMARK                            x       y       z     vdW  Elec       q    Type
REMARK                         _______ _______ _______ _____ _____    ______ ____
ROOT
ATOM      1  C   UNL     1      -0.022  13.380  20.884  0.00  0.00    +0.000 C 
ATOM      2  C   UNL     1      -0.674  14.118  19.957  0.00  0.00    +0.000 C 
ATOM      3  N   UNL     1      -1.835  13.618  19.414  0.00  0.00    +0.000 N 
ATOM      4  C   UNL     1      -2.507  12.529  19.893  0.00  0.00    +0.000 C 
ATOM      5  O   UNL     1      -3.600  12.190  19.459  0.00  0.00    +0.000 OA
ATOM      6  N   UNL     1      -1.899  11.862  20.914  0.00  0.00    +0.000 N 
ATOM      7  C   UNL     1      -0.476  11.980  21.163  0.00  0.00    +0.000 C 
ATOM      8  H   UNL     1      -2.307  14.134  18.678  0.00  0.00    +0.000 HD
ATOM      9  H   UNL     1      -2.374  11.017  21.197  0.00  0.00    +0.000 HD
ENDROOT
BRANCH   2  10
ATOM     10  C   UNL     1      -0.209  15.409  19.424  0.00  0.00    +0.000 A 
ATOM     11  C   UNL     1       0.975  15.475  18.674  0.00  0.00    +0.000 A 
ATOM     12  C   UNL     1       1.439  16.702  18.195  0.00  0.00    +0.000 A 
ATOM     13  C   UNL     1       0.720  17.869  18.453  0.00  0.00    +0.000 A 
ATOM     14  C   UNL     1      -0.461  17.810  19.191  0.00  0.00    +0.000 A 
ATOM     15  C   UNL     1      -0.926  16.585  19.674  0.00  0.00    +0.000 A 
ENDBRANCH   2  10
BRANCH   7  16
ATOM     16  C   UNL     1       0.277  10.918  20.354  0.00  0.00    +0.000 A 
ATOM     17  C   UNL     1       0.641   9.690  20.921  0.00  0.00    +0.000 A 
ATOM     18  C   UNL     1       1.381   8.756  20.201  0.00  0.00    +0.000 A 
ATOM     19  C   UNL     1       1.772   9.009  18.890  0.00  0.00    +0.000 A 
ATOM     20  C   UNL     1       1.422  10.231  18.308  0.00  0.00    +0.000 A 
ATOM     21  C   UNL     1       0.664  11.168  19.029  0.00  0.00    +0.000 A 
BRANCH  19  22
ATOM     22  N   UNL     1       2.523   8.073  18.142  0.00  0.00    +0.000 N 
ATOM     23  C   UNL     1       2.804   6.782  18.567  0.00  0.00    +0.000 C 
ATOM     24  O   UNL     1       2.413   6.256  19.603  0.00  0.00    +0.000 OA
ATOM     25  H   UNL     1       2.841   8.378  17.236  0.00  0.00    +0.000 HD
BRANCH  23  26
ATOM     26  C   UNL     1       3.667   5.956  17.684  0.00  0.00    +0.000 A 
ATOM     27  C   UNL     1       4.564   6.642  16.848  0.00  0.00    +0.000 A 
ATOM     28  C   UNL     1       5.346   5.944  15.930  0.00  0.00    +0.000 A 
ATOM     29  C   UNL     1       5.250   4.557  15.867  0.00  0.00    +0.000 A 
ATOM     30 CL   UNL     1       6.176   3.695  14.703  0.00  0.00    +0.000 Cl
ATOM     31  C   UNL     1       4.391   3.863  16.721  0.00  0.00    +0.000 A 
ATOM     32  C   UNL     1       3.599   4.561  17.637  0.00  0.00    +0.000 A 
ENDBRANCH  23  26
ENDBRANCH  19  22
ENDBRANCH   7  16
BRANCH   1  33
ATOM     33  C   UNL     1       1.158  13.883  21.616  0.00  0.00    +0.000 C 
ATOM     34  O   UNL     1       1.128  14.708  22.523  0.00  0.00    +0.000 OA
BRANCH  33  35
ATOM     35  O   UNL     1       2.295  13.345  21.115  0.00  0.00    +0.000 OA
BRANCH  35  37
ATOM     36  C   UNL     1       4.088  14.616  20.204  0.00  0.00    +0.000 C 
ATOM     37  C   UNL     1       3.484  14.058  21.480  0.00  0.00    +0.000 C 
ENDBRANCH  35  37
ENDBRANCH  33  35
ENDBRANCH   1  33
TORSDOF 7
ENDMDL
MODEL 6
REMARK VINA RESULT:      -7.6      1.732      2.418
REMARK  Name = 
REMARK  8 active torsions:
REMARK  status: ('A' for Active; 'I' for Inactive)
REMARK    1  A    between atoms: C_1  and  C_2
REMARK    2  A    between atoms: C_2  and  O_3
REMARK    3  A    between atoms: O_3  and  C_4
REMARK    4  A    between atoms: C_4  and  C_6
REMARK    5  A    between atoms: C_7  and  C_8
REMARK    6  A    between atoms: C_18  and  C_19
REMARK    7  A    between atoms: C_22  and  N_23
REMARK    8  A    between atoms: C_24  and  C_26
REMARK                            x       y       z     vdW  Elec       q    Type
REMARK                         _______ _______ _______ _____ _____    ______ ____
ROOT
ATOM      1  C   UNL     1      -0.326  14.030  21.582  0.00  0.00    +0.000 C 
ATOM      2  C   UNL     1      -0.809  14.482  20.402  0.00  0.00    +0.000 C 
ATOM      3  N   UNL     1      -1.991  13.958  19.930  0.00  0.00    +0.000 N 
ATOM      4  C   UNL     1      -2.836  13.172  20.661  0.00  0.00    +0.000 C 
ATOM      5  O   UNL     1      -3.935  12.829  20.246  0.00  0.00    +0.000 OA
ATOM      6  N   UNL     1      -2.393  12.823  21.901  0.00  0.00    +0.000 N 
ATOM      7  C   UNL     1      -0.985  12.861  22.248  0.00  0.00    +0.000 C 
ATOM      8  H   UNL     1      -2.339  14.247  19.021  0.00  0.00    +0.000 HD
ATOM      9  H   UNL     1      -2.997  12.178  22.390  0.00  0.00    +0.000 HD
ENDROOT
BRANCH   2  10
ATOM     10  C   UNL     1      -0.137  15.462  19.533  0.00  0.00    +0.000 A 
ATOM     11  C   UNL     1      -0.818  16.614  19.114  0.00  0.00    +0.000 A 
ATOM     12  C   UNL     1      -0.197  17.530  18.261  0.00  0.00    +0.000 A 
ATOM     13  C   UNL     1       1.110  17.305  17.829  0.00  0.00    +0.000 A 
ATOM     14  C   UNL     1       1.796  16.166  18.248  0.00  0.00    +0.000 A 
ATOM     15  C   UNL     1       1.176  15.247  19.098  0.00  0.00    +0.000 A 
ENDBRANCH   2  10
BRANCH   7  16
ATOM     16  C   UNL     1      -0.336  11.515  21.910  0.00  0.00    +0.000 A 
ATOM     17  C   UNL     1       0.305  11.300  20.683  0.00  0.00    +0.000 A 
ATOM     18  C   UNL     1       0.837  10.055  20.358  0.00  0.00    +0.000 A 
ATOM     19  C   UNL     1       0.759   8.988  21.247  0.00  0.00    +0.000 A 
ATOM     20  C   UNL     1       0.120   9.183  22.475  0.00  0.00    +0.000 A 
ATOM     21  C   UNL     1      -0.404  10.441  22.810  0.00  0.00    +0.000 A 
BRANCH  19  22
ATOM     22  N   UNL     1       1.294   7.717  20.935  0.00  0.00    +0.000 N 
ATOM     23  C   UNL     1       1.996   7.431  19.772  0.00  0.00    +0.000 C 
ATOM     24  O   UNL     1       2.295   8.227  18.889  0.00  0.00    +0.000 OA
ATOM     25  H   UNL     1       1.166   6.997  21.628  0.00  0.00    +0.000 HD
BRANCH  23  26
ATOM     26  C   UNL     1       2.426   6.023  19.576  0.00  0.00    +0.000 A 
ATOM     27  C   UNL     1       2.840   5.658  18.283  0.00  0.00    +0.000 A 
ATOM     28  C   UNL     1       3.177   4.337  17.998  0.00  0.00    +0.000 A 
ATOM     29  C   UNL     1       3.126   3.385  19.012  0.00  0.00    +0.000 A 
ATOM     30 CL   UNL     1       3.495   1.744  18.656  0.00  0.00    +0.000 Cl
ATOM     31  C   UNL     1       2.755   3.746  20.309  0.00  0.00    +0.000 A 
ATOM     32  C   UNL     1       2.409   5.069  20.596  0.00  0.00    +0.000 A 
ENDBRANCH  23  26
ENDBRANCH  19  22
ENDBRANCH   7  16
BRANCH   1  33
ATOM     33  C   UNL     1       0.862  14.616  22.232  0.00  0.00    +0.000 C 
ATOM     34  O   UNL     1       2.009  14.195  22.120  0.00  0.00    +0.000 OA
BRANCH  33  35
ATOM     35  O   UNL     1       0.510  15.660  23.019  0.00  0.00    +0.000 OA
BRANCH  35  37
ATOM     36  C   UNL     1       0.752  17.900  22.258  0.00  0.00    +0.000 C 
ATOM     37  C   UNL     1       1.436  16.754  22.980  0.00  0.00    +0.000 C 
ENDBRANCH  35  37
ENDBRANCH  33  35
ENDBRANCH   1  33
TORSDOF 7
ENDMDL
MODEL 7
REMARK VINA RESULT:      -7.6      2.086      2.689
REMARK  Name = 
REMARK  8 active torsions:
REMARK  status: ('A' for Active; 'I' for Inactive)
REMARK    1  A    between atoms: C_1  and  C_2
REMARK    2  A    between atoms: C_2  and  O_3
REMARK    3  A    between atoms: O_3  and  C_4
REMARK    4  A    between atoms: C_4  and  C_6
REMARK    5  A    between atoms: C_7  and  C_8
REMARK    6  A    between atoms: C_18  and  C_19
REMARK    7  A    between atoms: C_22  and  N_23
REMARK    8  A    between atoms: C_24  and  C_26
REMARK                            x       y       z     vdW  Elec       q    Type
REMARK                         _______ _______ _______ _____ _____    ______ ____
ROOT
ATOM      1  C   UNL     1      -0.038  13.135  20.263  0.00  0.00    +0.000 C 
ATOM      2  C   UNL     1       0.092  13.617  19.006  0.00  0.00    +0.000 C 
ATOM      3  N   UNL     1      -0.657  13.046  18.001  0.00  0.00    +0.000 N 
ATOM      4  C   UNL     1      -1.688  12.173  18.205  0.00  0.00    +0.000 C 
ATOM      5  O   UNL     1      -2.407  11.784  17.295  0.00  0.00    +0.000 OA
ATOM      6  N   UNL     1      -1.890  11.789  19.497  0.00  0.00    +0.000 N 
ATOM      7  C   UNL     1      -0.846  11.896  20.497  0.00  0.00    +0.000 C 
ATOM      8  H   UNL     1      -0.531  13.359  17.044  0.00  0.00    +0.000 HD
ATOM      9  H   UNL     1      -2.604  11.084  19.612  0.00  0.00    +0.000 HD
ENDROOT
BRANCH   2  10
ATOM     10  C   UNL     1       1.026  14.679  18.598  0.00  0.00    +0.000 A 
ATOM     11  C   UNL     1       2.342  14.356  18.234  0.00  0.00    +0.000 A 
ATOM     12  C   UNL     1       3.243  15.363  17.880  0.00  0.00    +0.000 A 
ATOM     13  C   UNL     1       2.833  16.696  17.878  0.00  0.00    +0.000 A 
ATOM     14  C   UNL     1       1.525  17.024  18.232  0.00  0.00    +0.000 A 
ATOM     15  C   UNL     1       0.622  16.019  18.589  0.00  0.00    +0.000 A 
ENDBRANCH   2  10
BRANCH   7  16
ATOM     16  C   UNL     1      -0.011  10.611  20.509  0.00  0.00    +0.000 A 
ATOM     17  C   UNL     1       0.821  10.271  19.434  0.00  0.00    +0.000 A 
ATOM     18  C   UNL     1       1.527   9.071  19.423  0.00  0.00    +0.000 A 
ATOM     19  C   UNL     1       1.439   8.177  20.486  0.00  0.00    +0.000 A 
ATOM     20  C   UNL     1       0.610   8.499  21.566  0.00  0.00    +0.000 A 
ATOM     21  C   UNL     1      -0.091   9.715  21.585  0.00  0.00    +0.000 A 
BRANCH  19  22
ATOM     22  N   UNL     1       2.148   6.955  20.494  0.00  0.00    +0.000 N 
ATOM     23  C   UNL     1       2.374   6.178  19.366  0.00  0.00    +0.000 C 
ATOM     24  O   UNL     1       2.046   6.451  18.217  0.00  0.00    +0.000 OA
ATOM     25  H   UNL     1       2.527   6.664  21.381  0.00  0.00    +0.000 HD
BRANCH  23  26
ATOM     26  C   UNL     1       3.079   4.887  19.569  0.00  0.00    +0.000 A 
ATOM     27  C   UNL     1       2.442   3.933  20.382  0.00  0.00    +0.000 A 
ATOM     28  C   UNL     1       3.078   2.732  20.689  0.00  0.00    +0.000 A 
ATOM     29  C   UNL     1       4.339   2.473  20.163  0.00  0.00    +0.000 A 
ATOM     30 CL   UNL     1       5.148   1.014  20.578  0.00  0.00    +0.000 Cl
ATOM     31  C   UNL     1       4.963   3.396  19.322  0.00  0.00    +0.000 A 
ATOM     32  C   UNL     1       4.332   4.605  19.018  0.00  0.00    +0.000 A 
ENDBRANCH  23  26
ENDBRANCH  19  22
ENDBRANCH   7  16
BRANCH   1  33
ATOM     33  C   UNL     1       0.623  13.760  21.426  0.00  0.00    +0.000 C 
ATOM     34  O   UNL     1       1.822  13.691  21.678  0.00  0.00    +0.000 OA
BRANCH  33  35
ATOM     35  O   UNL     1      -0.284  14.383  22.213  0.00  0.00    +0.000 OA
BRANCH  35  37
ATOM     36  C   UNL     1      -1.361  16.449  21.735  0.00  0.00    +0.000 C 
ATOM     37  C   UNL     1      -0.106  15.803  22.293  0.00  0.00    +0.000 C 
ENDBRANCH  35  37
ENDBRANCH  33  35
ENDBRANCH   1  33
TORSDOF 7
ENDMDL
MODEL 8
REMARK VINA RESULT:      -7.5      2.097      2.918
REMARK  Name = 
REMARK  8 active torsions:
REMARK  status: ('A' for Active; 'I' for Inactive)
REMARK    1  A    between atoms: C_1  and  C_2
REMARK    2  A    between atoms: C_2  and  O_3
REMARK    3  A    between atoms: O_3  and  C_4
REMARK    4  A    between atoms: C_4  and  C_6
REMARK    5  A    between atoms: C_7  and  C_8
REMARK    6  A    between atoms: C_18  and  C_19
REMARK    7  A    between atoms: C_22  and  N_23
REMARK    8  A    between atoms: C_24  and  C_26
REMARK                            x       y       z     vdW  Elec       q    Type
REMARK                         _______ _______ _______ _____ _____    ______ ____
ROOT
ATOM      1  C   UNL     1       0.134  13.183  20.355  0.00  0.00    +0.000 C 
ATOM      2  C   UNL     1       0.227  13.649  19.089  0.00  0.00    +0.000 C 
ATOM      3  N   UNL     1      -0.581  13.095  18.122  0.00  0.00    +0.000 N 
ATOM      4  C   UNL     1      -1.631  12.259  18.377  0.00  0.00    +0.000 C 
ATOM      5  O   UNL     1      -2.399  11.886  17.500  0.00  0.00    +0.000 OA
ATOM      6  N   UNL     1      -1.791  11.893  19.679  0.00  0.00    +0.000 N 
ATOM      7  C   UNL     1      -0.704  11.974  20.635  0.00  0.00    +0.000 C 
ATOM      8  H   UNL     1      -0.485  13.395  17.157  0.00  0.00    +0.000 HD
ATOM      9  H   UNL     1      -2.523  11.213  19.831  0.00  0.00    +0.000 HD
ENDROOT
BRANCH   2  10
ATOM     10  C   UNL     1       1.178  14.676  18.633  0.00  0.00    +0.000 A 
ATOM     11  C   UNL     1       0.835  16.034  18.704  0.00  0.00    +0.000 A 
ATOM     12  C   UNL     1       1.720  17.011  18.240  0.00  0.00    +0.000 A 
ATOM     13  C   UNL     1       2.956  16.638  17.713  0.00  0.00    +0.000 A 
ATOM     14  C   UNL     1       3.307  15.290  17.647  0.00  0.00    +0.000 A 
ATOM     15  C   UNL     1       2.423  14.311  18.107  0.00  0.00    +0.000 A 
ENDBRANCH   2  10
BRANCH   7  16
ATOM     16  C   UNL     1       0.088  10.662  20.625  0.00  0.00    +0.000 A 
ATOM     17  C   UNL     1       0.871  10.290  19.525  0.00  0.00    +0.000 A 
ATOM     18  C   UNL     1       1.537   9.067  19.496  0.00  0.00    +0.000 A 
ATOM     19  C   UNL     1       1.455   8.181  20.566  0.00  0.00    +0.000 A 
ATOM     20  C   UNL     1       0.674   8.534  21.671  0.00  0.00    +0.000 A 
ATOM     21  C   UNL     1       0.014   9.772  21.707  0.00  0.00    +0.000 A 
BRANCH  19  22
ATOM     22  N   UNL     1       2.123   6.936  20.556  0.00  0.00    +0.000 N 
ATOM     23  C   UNL     1       2.483   6.254  19.402  0.00  0.00    +0.000 C 
ATOM     24  O   UNL     1       2.327   6.641  18.250  0.00  0.00    +0.000 OA
ATOM     25  H   UNL     1       2.366   6.552  21.456  0.00  0.00    +0.000 HD
BRANCH  23  26
ATOM     26  C   UNL     1       3.119   4.923  19.578  0.00  0.00    +0.000 A 
ATOM     27  C   UNL     1       2.579   4.085  20.569  0.00  0.00    +0.000 A 
ATOM     28  C   UNL     1       3.172   2.857  20.852  0.00  0.00    +0.000 A 
ATOM     29  C   UNL     1       4.289   2.454  20.128  0.00  0.00    +0.000 A 
ATOM     30 CL   UNL     1       5.054   0.962  20.506  0.00  0.00    +0.000 Cl
ATOM     31  C   UNL     1       4.809   3.262  19.114  0.00  0.00    +0.000 A 
ATOM     32  C   UNL     1       4.221   4.498  18.832  0.00  0.00    +0.000 A 
ENDBRANCH  23  26
ENDBRANCH  19  22
ENDBRANCH   7  16
BRANCH   1  33
ATOM     33  C   UNL     1       0.863  13.795  21.484  0.00  0.00    +0.000 C 
ATOM     34  O   UNL     1       0.354  14.482  22.364  0.00  0.00    +0.000 OA
BRANCH  33  35
ATOM     35  O   UNL     1       2.188  13.538  21.392  0.00  0.00    +0.000 OA
BRANCH  35  37
ATOM     36  C   UNL     1       4.427  14.161  21.901  0.00  0.00    +0.000 C 
ATOM     37  C   UNL     1       3.020  14.675  21.655  0.00  0.00    +0.000 C 
ENDBRANCH  35  37
ENDBRANCH  33  35
ENDBRANCH   1  33
TORSDOF 7
ENDMDL
MODEL 9
REMARK VINA RESULT:      -7.5      4.427     10.879
REMARK  Name = 
REMARK  8 active torsions:
REMARK  status: ('A' for Active; 'I' for Inactive)
REMARK    1  A    between atoms: C_1  and  C_2
REMARK    2  A    between atoms: C_2  and  O_3
REMARK    3  A    between atoms: O_3  and  C_4
REMARK    4  A    between atoms: C_4  and  C_6
REMARK    5  A    between atoms: C_7  and  C_8
REMARK    6  A    between atoms: C_18  and  C_19
REMARK    7  A    between atoms: C_22  and  N_23
REMARK    8  A    between atoms: C_24  and  C_26
REMARK                            x       y       z     vdW  Elec       q    Type
REMARK                         _______ _______ _______ _____ _____    ______ ____
ROOT
ATOM      1  C   UNL     1       5.400   4.620  17.107  0.00  0.00    +0.000 C 
ATOM      2  C   UNL     1       6.233   5.124  16.169  0.00  0.00    +0.000 C 
ATOM      3  N   UNL     1       7.065   6.164  16.518  0.00  0.00    +0.000 N 
ATOM      4  C   UNL     1       7.279   6.588  17.799  0.00  0.00    +0.000 C 
ATOM      5  O   UNL     1       8.118   7.433  18.079  0.00  0.00    +0.000 OA
ATOM      6  N   UNL     1       6.519   5.983  18.755  0.00  0.00    +0.000 N 
ATOM      7  C   UNL     1       5.277   5.309  18.431  0.00  0.00    +0.000 C 
ATOM      8  H   UNL     1       7.658   6.590  15.812  0.00  0.00    +0.000 HD
ATOM      9  H   UNL     1       6.636   6.369  19.682  0.00  0.00    +0.000 HD
ENDROOT
BRANCH   2  10
ATOM     10  C   UNL     1       6.287   4.691  14.763  0.00  0.00    +0.000 A 
ATOM     11  C   UNL     1       7.459   4.872  14.016  0.00  0.00    +0.000 A 
ATOM     12  C   UNL     1       7.505   4.495  12.671  0.00  0.00    +0.000 A 
ATOM     13  C   UNL     1       6.383   3.925  12.069  0.00  0.00    +0.000 A 
ATOM     14  C   UNL     1       5.217   3.735  12.808  0.00  0.00    +0.000 A 
ATOM     15  C   UNL     1       5.168   4.114  14.152  0.00  0.00    +0.000 A 
ENDBRANCH   2  10
BRANCH   7  16
ATOM     16  C   UNL     1       4.117   6.309  18.498  0.00  0.00    +0.000 A 
ATOM     17  C   UNL     1       3.938   7.287  17.511  0.00  0.00    +0.000 A 
ATOM     18  C   UNL     1       2.921   8.232  17.612  0.00  0.00    +0.000 A 
ATOM     19  C   UNL     1       2.041   8.227  18.690  0.00  0.00    +0.000 A 
ATOM     20  C   UNL     1       2.207   7.260  19.686  0.00  0.00    +0.000 A 
ATOM     21  C   UNL     1       3.223   6.298  19.579  0.00  0.00    +0.000 A 
BRANCH  19  22
ATOM     22  N   UNL     1       1.001   9.177  18.809  0.00  0.00    +0.000 N 
ATOM     23  C   UNL     1       0.608   9.755  20.008  0.00  0.00    +0.000 C 
ATOM     24  O   UNL     1       1.121   9.573  21.106  0.00  0.00    +0.000 OA
ATOM     25  H   UNL     1       0.550   9.455  17.952  0.00  0.00    +0.000 HD
BRANCH  23  26
ATOM     26  C   UNL     1      -0.551  10.683  19.959  0.00  0.00    +0.000 A 
ATOM     27  C   UNL     1      -0.787  11.468  21.101  0.00  0.00    +0.000 A 
ATOM     28  C   UNL     1      -1.902  12.300  21.165  0.00  0.00    +0.000 A 
ATOM     29  C   UNL     1      -2.767  12.368  20.077  0.00  0.00    +0.000 A 
ATOM     30 CL   UNL     1      -4.170  13.357  20.170  0.00  0.00    +0.000 Cl
ATOM     31  C   UNL     1      -2.519  11.624  18.923  0.00  0.00    +0.000 A 
ATOM     32  C   UNL     1      -1.405  10.782  18.858  0.00  0.00    +0.000 A 
ENDBRANCH  23  26
ENDBRANCH  19  22
ENDBRANCH   7  16
BRANCH   1  33
ATOM     33  C   UNL     1       4.563   3.427  16.869  0.00  0.00    +0.000 C 
ATOM     34  O   UNL     1       4.985   2.284  16.727  0.00  0.00    +0.000 OA
BRANCH  33  35
ATOM     35  O   UNL     1       3.257   3.771  16.777  0.00  0.00    +0.000 OA
BRANCH  35  37
ATOM     36  C   UNL     1       1.340   3.717  18.184  0.00  0.00    +0.000 C 
ATOM     37  C   UNL     1       2.371   2.873  17.457  0.00  0.00    +0.000 C 
ENDBRANCH  35  37
ENDBRANCH  33  35
ENDBRANCH   1  33
TORSDOF 7
ENDMDL
