MODEL 1
REMARK VINA RESULT:      -8.0      0.000      0.000
REMARK  Name = 
REMARK  4 active torsions:
REMARK  status: ('A' for Active; 'I' for Inactive)
REMARK    1  A    between atoms: C_1  and  C_2
REMARK    2  A    between atoms: C_5  and  N_6
REMARK    3  A    between atoms: N_6  and  C_7
REMARK    4  A    between atoms: C_12  and  C_13
REMARK                            x       y       z     vdW  Elec       q    Type
REMARK                         _______ _______ _______ _____ _____    ______ ____
ROOT
ATOM      1  C   UNL     1       7.333   7.245  18.125  0.00  0.00    +0.000 C 
ATOM      2  C   UNL     1       6.513   6.227  17.808  0.00  0.00    +0.000 C 
ATOM      3  C   UNL     1       6.274   5.214  18.884  0.00  0.00    +0.000 C 
ATOM      4  O   UNL     1       6.791   5.288  19.997  0.00  0.00    +0.000 OA
ATOM      5  C   UNL     1       5.412   4.039  18.504  0.00  0.00    +0.000 C 
ATOM      6  C   UNL     1       4.173   4.551  17.761  0.00  0.00    +0.000 C 
ATOM      7  C   UNL     1       4.624   5.146  16.414  0.00  0.00    +0.000 C 
ATOM      8  C   UNL     1       5.897   5.983  16.471  0.00  0.00    +0.000 C 
ATOM      9  O   UNL     1       6.412   6.376  15.426  0.00  0.00    +0.000 OA
ENDROOT
BRANCH   6  10
ATOM     10  C   UNL     1       3.282   5.426  18.645  0.00  0.00    +0.000 A 
ATOM     11  C   UNL     1       2.722   4.982  19.852  0.00  0.00    +0.000 A 
ATOM     12  C   UNL     1       1.970   5.841  20.654  0.00  0.00    +0.000 A 
ATOM     13  C   UNL     1       1.753   7.160  20.260  0.00  0.00    +0.000 A 
ATOM     14 CL   UNL     1       0.865   8.226  21.274  0.00  0.00    +0.000 Cl
ATOM     15  C   UNL     1       2.272   7.616  19.055  0.00  0.00    +0.000 A 
ATOM     16  C   UNL     1       3.032   6.756  18.255  0.00  0.00    +0.000 A 
ENDBRANCH   6  10
BRANCH   1  17
ATOM     17  N   UNL     1       7.889   8.295  17.423  0.00  0.00    +0.000 N 
ATOM     18  H   UNL     1       8.517   7.962  16.688  0.00  0.00    +0.000 HD
BRANCH  17  23
ATOM     19  C   UNL     1       9.769  13.059  19.988  0.00  0.00    +0.000 C 
ATOM     20  C   UNL     1       9.342  11.826  19.250  0.00  0.00    +0.000 A 
ATOM     21  C   UNL     1       8.695  11.905  18.011  0.00  0.00    +0.000 A 
ATOM     22  C   UNL     1       8.251  10.747  17.357  0.00  0.00    +0.000 A 
ATOM     23  C   UNL     1       8.445   9.491  17.933  0.00  0.00    +0.000 A 
ATOM     24  C   UNL     1       9.113   9.418  19.165  0.00  0.00    +0.000 A 
ATOM     25  C   UNL     1       9.562  10.569  19.817  0.00  0.00    +0.000 A 
ENDBRANCH  17  23
ENDBRANCH   1  17
TORSDOF 3
ENDMDL
MODEL 2
REMARK VINA RESULT:      -7.9      0.249      1.007
REMARK  Name = 
REMARK  4 active torsions:
REMARK  status: ('A' for Active; 'I' for Inactive)
REMARK    1  A    between atoms: C_1  and  C_2
REMARK    2  A    between atoms: C_5  and  N_6
REMARK    3  A    between atoms: N_6  and  C_7
REMARK    4  A    between atoms: C_12  and  C_13
REMARK                            x       y       z     vdW  Elec       q    Type
REMARK                         _______ _______ _______ _____ _____    ______ ____
ROOT
ATOM      1  C   UNL     1       7.456   7.235  18.253  0.00  0.00    +0.000 C 
ATOM      2  C   UNL     1       6.628   6.246  17.873  0.00  0.00    +0.000 C 
ATOM      3  C   UNL     1       6.338   5.197  18.901  0.00  0.00    +0.000 C 
ATOM      4  O   UNL     1       6.821   5.219  20.031  0.00  0.00    +0.000 OA
ATOM      5  C   UNL     1       5.465   4.054  18.451  0.00  0.00    +0.000 C 
ATOM      6  C   UNL     1       4.260   4.618  17.691  0.00  0.00    +0.000 C 
ATOM      7  C   UNL     1       4.763   5.256  16.382  0.00  0.00    +0.000 C 
ATOM      8  C   UNL     1       6.049   6.065  16.510  0.00  0.00    +0.000 C 
ATOM      9  O   UNL     1       6.602   6.487  15.496  0.00  0.00    +0.000 OA
ENDROOT
BRANCH   6  10
ATOM     10  C   UNL     1       3.358   5.476  18.581  0.00  0.00    +0.000 A 
ATOM     11  C   UNL     1       2.820   5.024  19.795  0.00  0.00    +0.000 A 
ATOM     12  C   UNL     1       2.057   5.869  20.601  0.00  0.00    +0.000 A 
ATOM     13  C   UNL     1       1.808   7.182  20.206  0.00  0.00    +0.000 A 
ATOM     14 CL   UNL     1       0.906   8.231  21.225  0.00  0.00    +0.000 Cl
ATOM     15  C   UNL     1       2.304   7.645  18.994  0.00  0.00    +0.000 A 
ATOM     16  C   UNL     1       3.075   6.800  18.189  0.00  0.00    +0.000 A 
ENDBRANCH   6  10
BRANCH   1  17
ATOM     17  N   UNL     1       8.053   8.300  17.610  0.00  0.00    +0.000 N 
ATOM     18  H   UNL     1       8.800   7.987  16.985  0.00  0.00    +0.000 HD
BRANCH  17  23
ATOM     19  C   UNL     1      10.053  13.388  19.320  0.00  0.00    +0.000 C 
ATOM     20  C   UNL     1       9.473  12.055  18.949  0.00  0.00    +0.000 A 
ATOM     21  C   UNL     1       9.757  10.904  19.693  0.00  0.00    +0.000 A 
ATOM     22  C   UNL     1       9.254   9.655  19.303  0.00  0.00    +0.000 A 
ATOM     23  C   UNL     1       8.463   9.536  18.160  0.00  0.00    +0.000 A 
ATOM     24  C   UNL     1       8.167  10.697  17.430  0.00  0.00    +0.000 A 
ATOM     25  C   UNL     1       8.660  11.944  17.819  0.00  0.00    +0.000 A 
ENDBRANCH  17  23
ENDBRANCH   1  17
TORSDOF 3
ENDMDL
MODEL 3
REMARK VINA RESULT:      -7.6      4.755      7.539
REMARK  Name = 
REMARK  4 active torsions:
REMARK  status: ('A' for Active; 'I' for Inactive)
REMARK    1  A    between atoms: C_1  and  C_2
REMARK    2  A    between atoms: C_5  and  N_6
REMARK    3  A    between atoms: N_6  and  C_7
REMARK    4  A    between atoms: C_12  and  C_13
REMARK                            x       y       z     vdW  Elec       q    Type
REMARK                         _______ _______ _______ _____ _____    ______ ____
ROOT
ATOM      1  C   UNL     1       2.222   8.243  18.348  0.00  0.00    +0.000 C 
ATOM      2  C   UNL     1       1.572   9.166  19.078  0.00  0.00    +0.000 C 
ATOM      3  C   UNL     1       1.664  10.578  18.589  0.00  0.00    +0.000 C 
ATOM      4  O   UNL     1       2.295  10.896  17.583  0.00  0.00    +0.000 OA
ATOM      5  C   UNL     1       0.993  11.619  19.447  0.00  0.00    +0.000 C 
ATOM      6  C   UNL     1      -0.404  11.120  19.833  0.00  0.00    +0.000 C 
ATOM      7  C   UNL     1      -0.246   9.901  20.762  0.00  0.00    +0.000 C 
ATOM      8  C   UNL     1       0.846   8.917  20.358  0.00  0.00    +0.000 C 
ATOM      9  O   UNL     1       1.142   7.995  21.116  0.00  0.00    +0.000 OA
ENDROOT
BRANCH   6  10
ATOM     10  C   UNL     1      -1.321  10.956  18.620  0.00  0.00    +0.000 A 
ATOM     11  C   UNL     1      -1.453  11.928  17.618  0.00  0.00    +0.000 A 
ATOM     12  C   UNL     1      -2.255  11.702  16.498  0.00  0.00    +0.000 A 
ATOM     13  C   UNL     1      -2.948  10.502  16.362  0.00  0.00    +0.000 A 
ATOM     14 CL   UNL     1      -3.896  10.211  14.958  0.00  0.00    +0.000 Cl
ATOM     15  C   UNL     1      -2.858   9.534  17.354  0.00  0.00    +0.000 A 
ATOM     16  C   UNL     1      -2.049   9.758  18.473  0.00  0.00    +0.000 A 
ENDBRANCH   6  10
BRANCH   1  17
ATOM     17  N   UNL     1       2.480   6.895  18.497  0.00  0.00    +0.000 N 
ATOM     18  H   UNL     1       2.545   6.634  19.484  0.00  0.00    +0.000 HD
BRANCH  17  23
ATOM     19  C   UNL     1       6.075   3.967  15.134  0.00  0.00    +0.000 C 
ATOM     20  C   UNL     1       5.175   4.693  16.089  0.00  0.00    +0.000 A 
ATOM     21  C   UNL     1       4.195   4.016  16.824  0.00  0.00    +0.000 A 
ATOM     22  C   UNL     1       3.323   4.715  17.672  0.00  0.00    +0.000 A 
ATOM     23  C   UNL     1       3.417   6.102  17.795  0.00  0.00    +0.000 A 
ATOM     24  C   UNL     1       4.415   6.770  17.071  0.00  0.00    +0.000 A 
ATOM     25  C   UNL     1       5.289   6.078  16.230  0.00  0.00    +0.000 A 
ENDBRANCH  17  23
ENDBRANCH   1  17
TORSDOF 3
ENDMDL
MODEL 4
REMARK VINA RESULT:      -7.4      4.763      7.566
REMARK  Name = 
REMARK  4 active torsions:
REMARK  status: ('A' for Active; 'I' for Inactive)
REMARK    1  A    between atoms: C_1  and  C_2
REMARK    2  A    between atoms: C_5  and  N_6
REMARK    3  A    between atoms: N_6  and  C_7
REMARK    4  A    between atoms: C_12  and  C_13
REMARK                            x       y       z     vdW  Elec       q    Type
REMARK                         _______ _______ _______ _____ _____    ______ ____
ROOT
ATOM      1  C   UNL     1       2.239   8.467  18.490  0.00  0.00    +0.000 C 
ATOM      2  C   UNL     1       1.487   9.307  19.223  0.00  0.00    +0.000 C 
ATOM      3  C   UNL     1       1.514  10.746  18.810  0.00  0.00    +0.000 C 
ATOM      4  O   UNL     1       2.180  11.155  17.862  0.00  0.00    +0.000 OA
ATOM      5  C   UNL     1       0.726  11.695  19.674  0.00  0.00    +0.000 C 
ATOM      6  C   UNL     1      -0.654  11.089  19.949  0.00  0.00    +0.000 C 
ATOM      7  C   UNL     1      -0.471   9.835  20.825  0.00  0.00    +0.000 C 
ATOM      8  C   UNL     1       0.706   8.945  20.442  0.00  0.00    +0.000 C 
ATOM      9  O   UNL     1       1.017   8.005  21.170  0.00  0.00    +0.000 OA
ENDROOT
BRANCH   6  10
ATOM     10  C   UNL     1      -1.487  10.932  18.675  0.00  0.00    +0.000 A 
ATOM     11  C   UNL     1      -1.573  11.921  17.685  0.00  0.00    +0.000 A 
ATOM     12  C   UNL     1      -2.294  11.702  16.510  0.00  0.00    +0.000 A 
ATOM     13  C   UNL     1      -2.952  10.491  16.306  0.00  0.00    +0.000 A 
ATOM     14 CL   UNL     1      -3.799  10.210  14.837  0.00  0.00    +0.000 Cl
ATOM     15  C   UNL     1      -2.906   9.506  17.284  0.00  0.00    +0.000 A 
ATOM     16  C   UNL     1      -2.178   9.723  18.458  0.00  0.00    +0.000 A 
ENDBRANCH   6  10
BRANCH   1  17
ATOM     17  N   UNL     1       2.577   7.132  18.589  0.00  0.00    +0.000 N 
ATOM     18  H   UNL     1       2.852   6.886  19.543  0.00  0.00    +0.000 HD
BRANCH  17  23
ATOM     19  C   UNL     1       6.056   3.739  15.556  0.00  0.00    +0.000 C 
ATOM     20  C   UNL     1       5.110   4.661  16.269  0.00  0.00    +0.000 A 
ATOM     21  C   UNL     1       5.288   6.048  16.243  0.00  0.00    +0.000 A 
ATOM     22  C   UNL     1       4.430   6.895  16.959  0.00  0.00    +0.000 A 
ATOM     23  C   UNL     1       3.382   6.367  17.714  0.00  0.00    +0.000 A 
ATOM     24  C   UNL     1       3.199   4.976  17.719  0.00  0.00    +0.000 A 
ATOM     25  C   UNL     1       4.047   4.129  17.002  0.00  0.00    +0.000 A 
ENDBRANCH  17  23
ENDBRANCH   1  17
TORSDOF 3
ENDMDL
MODEL 5
REMARK VINA RESULT:      -7.3      0.998      1.453
REMARK  Name = 
REMARK  4 active torsions:
REMARK  status: ('A' for Active; 'I' for Inactive)
REMARK    1  A    between atoms: C_1  and  C_2
REMARK    2  A    between atoms: C_5  and  N_6
REMARK    3  A    between atoms: N_6  and  C_7
REMARK    4  A    between atoms: C_12  and  C_13
REMARK                            x       y       z     vdW  Elec       q    Type
REMARK                         _______ _______ _______ _____ _____    ______ ____
ROOT
ATOM      1  C   UNL     1       7.686   6.545  18.996  0.00  0.00    +0.000 C 
ATOM      2  C   UNL     1       6.775   5.907  18.240  0.00  0.00    +0.000 C 
ATOM      3  C   UNL     1       5.917   4.904  18.947  0.00  0.00    +0.000 C 
ATOM      4  O   UNL     1       6.026   4.662  20.148  0.00  0.00    +0.000 OA
ATOM      5  C   UNL     1       4.945   4.142  18.085  0.00  0.00    +0.000 C 
ATOM      6  C   UNL     1       4.223   5.127  17.159  0.00  0.00    +0.000 C 
ATOM      7  C   UNL     1       5.249   5.703  16.164  0.00  0.00    +0.000 C 
ATOM      8  C   UNL     1       6.606   6.053  16.765  0.00  0.00    +0.000 C 
ATOM      9  O   UNL     1       7.530   6.379  16.023  0.00  0.00    +0.000 OA
ENDROOT
BRANCH   6  10
ATOM     10  C   UNL     1       3.364   6.130  17.931  0.00  0.00    +0.000 A 
ATOM     11  C   UNL     1       2.721   5.824  19.139  0.00  0.00    +0.000 A 
ATOM     12  C   UNL     1       2.001   6.795  19.837  0.00  0.00    +0.000 A 
ATOM     13  C   UNL     1       1.903   8.091  19.335  0.00  0.00    +0.000 A 
ATOM     14 CL   UNL     1       1.055   9.295  20.223  0.00  0.00    +0.000 Cl
ATOM     15  C   UNL     1       2.506   8.413  18.127  0.00  0.00    +0.000 A 
ATOM     16  C   UNL     1       3.232   7.441  17.431  0.00  0.00    +0.000 A 
ENDBRANCH   6  10
BRANCH   1  17
ATOM     17  N   UNL     1       8.714   7.428  18.735  0.00  0.00    +0.000 N 
ATOM     18  H   UNL     1       9.560   7.181  19.254  0.00  0.00    +0.000 HD
BRANCH  17  23
ATOM     19  C   UNL     1       8.772  13.101  17.943  0.00  0.00    +0.000 C 
ATOM     20  C   UNL     1       8.707  11.630  18.230  0.00  0.00    +0.000 A 
ATOM     21  C   UNL     1       9.406  11.065  19.303  0.00  0.00    +0.000 A 
ATOM     22  C   UNL     1       9.382   9.681  19.526  0.00  0.00    +0.000 A 
ATOM     23  C   UNL     1       8.660   8.840  18.678  0.00  0.00    +0.000 A 
ATOM     24  C   UNL     1       7.946   9.416  17.617  0.00  0.00    +0.000 A 
ATOM     25  C   UNL     1       7.962  10.795  17.394  0.00  0.00    +0.000 A 
ENDBRANCH  17  23
ENDBRANCH   1  17
TORSDOF 3
ENDMDL
MODEL 6
REMARK VINA RESULT:      -7.3      5.533      8.481
REMARK  Name = 
REMARK  4 active torsions:
REMARK  status: ('A' for Active; 'I' for Inactive)
REMARK    1  A    between atoms: C_1  and  C_2
REMARK    2  A    between atoms: C_5  and  N_6
REMARK    3  A    between atoms: N_6  and  C_7
REMARK    4  A    between atoms: C_12  and  C_13
REMARK                            x       y       z     vdW  Elec       q    Type
REMARK                         _______ _______ _______ _____ _____    ______ ____
ROOT
ATOM      1  C   UNL     1       1.685   8.475  19.805  0.00  0.00    +0.000 C 
ATOM      2  C   UNL     1       1.009   9.608  20.063  0.00  0.00    +0.000 C 
ATOM      3  C   UNL     1       1.281  10.761  19.147  0.00  0.00    +0.000 C 
ATOM      4  O   UNL     1       2.075  10.697  18.211  0.00  0.00    +0.000 OA
ATOM      5  C   UNL     1       0.575  12.050  19.480  0.00  0.00    +0.000 C 
ATOM      6  C   UNL     1      -0.897  11.747  19.778  0.00  0.00    +0.000 C 
ATOM      7  C   UNL     1      -0.973  10.922  21.077  0.00  0.00    +0.000 C 
ATOM      8  C   UNL     1       0.088   9.835  21.214  0.00  0.00    +0.000 C 
ATOM      9  O   UNL     1       0.197   9.226  22.277  0.00  0.00    +0.000 OA
ENDROOT
BRANCH   6  10
ATOM     10  C   UNL     1      -1.638  11.194  18.559  0.00  0.00    +0.000 A 
ATOM     11  C   UNL     1      -2.315   9.965  18.562  0.00  0.00    +0.000 A 
ATOM     12  C   UNL     1      -3.031   9.536  17.444  0.00  0.00    +0.000 A 
ATOM     13  C   UNL     1      -3.077  10.324  16.295  0.00  0.00    +0.000 A 
ATOM     14 CL   UNL     1      -3.999   9.811  14.938  0.00  0.00    +0.000 Cl
ATOM     15  C   UNL     1      -2.392  11.531  16.256  0.00  0.00    +0.000 A 
ATOM     16  C   UNL     1      -1.680  11.964  17.380  0.00  0.00    +0.000 A 
ENDBRANCH   6  10
BRANCH   1  17
ATOM     17  N   UNL     1       1.813   7.257  20.441  0.00  0.00    +0.000 N 
ATOM     18  H   UNL     1       2.387   7.334  21.284  0.00  0.00    +0.000 HD
BRANCH  17  23
ATOM     19  C   UNL     1       2.460   2.263  17.711  0.00  0.00    +0.000 C 
ATOM     20  C   UNL     1       2.368   3.550  18.477  0.00  0.00    +0.000 A 
ATOM     21  C   UNL     1       2.021   3.567  19.833  0.00  0.00    +0.000 A 
ATOM     22  C   UNL     1       1.884   4.780  20.523  0.00  0.00    +0.000 A 
ATOM     23  C   UNL     1       2.088   5.995  19.867  0.00  0.00    +0.000 A 
ATOM     24  C   UNL     1       2.454   5.968  18.513  0.00  0.00    +0.000 A 
ATOM     25  C   UNL     1       2.598   4.762  17.823  0.00  0.00    +0.000 A 
ENDBRANCH  17  23
ENDBRANCH   1  17
TORSDOF 3
ENDMDL
MODEL 7
REMARK VINA RESULT:      -7.2      3.806      6.942
REMARK  Name = 
REMARK  4 active torsions:
REMARK  status: ('A' for Active; 'I' for Inactive)
REMARK    1  A    between atoms: C_1  and  C_2
REMARK    2  A    between atoms: C_5  and  N_6
REMARK    3  A    between atoms: N_6  and  C_7
REMARK    4  A    between atoms: C_12  and  C_13
REMARK                            x       y       z     vdW  Elec       q    Type
REMARK                         _______ _______ _______ _____ _____    ______ ____
ROOT
ATOM      1  C   UNL     1       1.718   7.175  20.133  0.00  0.00    +0.000 C 
ATOM      2  C   UNL     1       2.221   6.024  19.653  0.00  0.00    +0.000 C 
ATOM      3  C   UNL     1       2.248   5.887  18.163  0.00  0.00    +0.000 C 
ATOM      4  O   UNL     1       1.835   6.763  17.405  0.00  0.00    +0.000 OA
ATOM      5  C   UNL     1       2.748   4.570  17.630  0.00  0.00    +0.000 C 
ATOM      6  C   UNL     1       4.031   4.187  18.374  0.00  0.00    +0.000 C 
ATOM      7  C   UNL     1       3.674   3.895  19.844  0.00  0.00    +0.000 C 
ATOM      8  C   UNL     1       2.671   4.858  20.469  0.00  0.00    +0.000 C 
ATOM      9  O   UNL     1       2.218   4.619  21.586  0.00  0.00    +0.000 OA
ENDROOT
BRANCH   6  10
ATOM     10  C   UNL     1       5.171   5.175  18.118  0.00  0.00    +0.000 A 
ATOM     11  C   UNL     1       5.198   6.052  17.024  0.00  0.00    +0.000 A 
ATOM     12  C   UNL     1       6.230   6.980  16.872  0.00  0.00    +0.000 A 
ATOM     13  C   UNL     1       7.261   7.043  17.807  0.00  0.00    +0.000 A 
ATOM     14 CL   UNL     1       8.504   8.218  17.639  0.00  0.00    +0.000 Cl
ATOM     15  C   UNL     1       7.273   6.165  18.883  0.00  0.00    +0.000 A 
ATOM     16  C   UNL     1       6.236   5.240  19.039  0.00  0.00    +0.000 A 
ENDBRANCH   6  10
BRANCH   1  17
ATOM     17  N   UNL     1       1.416   7.649  21.394  0.00  0.00    +0.000 N 
ATOM     18  H   UNL     1       0.951   6.936  21.961  0.00  0.00    +0.000 HD
BRANCH  17  23
ATOM     19  C   UNL     1      -1.449  12.421  22.750  0.00  0.00    +0.000 C 
ATOM     20  C   UNL     1      -0.618  11.217  22.417  0.00  0.00    +0.000 A 
ATOM     21  C   UNL     1       0.218  11.196  21.295  0.00  0.00    +0.000 A 
ATOM     22  C   UNL     1       0.947  10.045  20.963  0.00  0.00    +0.000 A 
ATOM     23  C   UNL     1       0.847   8.894  21.747  0.00  0.00    +0.000 A 
ATOM     24  C   UNL     1       0.021   8.929  22.880  0.00  0.00    +0.000 A 
ATOM     25  C   UNL     1      -0.701  10.076  23.218  0.00  0.00    +0.000 A 
ENDBRANCH  17  23
ENDBRANCH   1  17
TORSDOF 3
ENDMDL
MODEL 8
REMARK VINA RESULT:      -7.2      4.576      7.214
REMARK  Name = 
REMARK  4 active torsions:
REMARK  status: ('A' for Active; 'I' for Inactive)
REMARK    1  A    between atoms: C_1  and  C_2
REMARK    2  A    between atoms: C_5  and  N_6
REMARK    3  A    between atoms: N_6  and  C_7
REMARK    4  A    between atoms: C_12  and  C_13
REMARK                            x       y       z     vdW  Elec       q    Type
REMARK                         _______ _______ _______ _____ _____    ______ ____
ROOT
ATOM      1  C   UNL     1       2.201   8.374  18.387  0.00  0.00    +0.000 C 
ATOM      2  C   UNL     1       1.500   9.254  19.123  0.00  0.00    +0.000 C 
ATOM      3  C   UNL     1       1.556  10.681  18.675  0.00  0.00    +0.000 C 
ATOM      4  O   UNL     1       2.202  11.048  17.695  0.00  0.00    +0.000 OA
ATOM      5  C   UNL     1       0.826  11.675  19.541  0.00  0.00    +0.000 C 
ATOM      6  C   UNL     1      -0.562  11.118  19.875  0.00  0.00    +0.000 C 
ATOM      7  C   UNL     1      -0.387   9.880  20.775  0.00  0.00    +0.000 C 
ATOM      8  C   UNL     1       0.750   8.946  20.376  0.00  0.00    +0.000 C 
ATOM      9  O   UNL     1       1.057   8.014  21.117  0.00  0.00    +0.000 OA
ENDROOT
BRANCH   6  10
ATOM     10  C   UNL     1      -1.441  10.956  18.633  0.00  0.00    +0.000 A 
ATOM     11  C   UNL     1      -1.543  11.931  17.631  0.00  0.00    +0.000 A 
ATOM     12  C   UNL     1      -2.309  11.707  16.485  0.00  0.00    +0.000 A 
ATOM     13  C   UNL     1      -2.995  10.505  16.324  0.00  0.00    +0.000 A 
ATOM     14 CL   UNL     1      -3.898  10.217  14.890  0.00  0.00    +0.000 Cl
ATOM     15  C   UNL     1      -2.933   9.535  17.315  0.00  0.00    +0.000 A 
ATOM     16  C   UNL     1      -2.161   9.757  18.460  0.00  0.00    +0.000 A 
ENDBRANCH   6  10
BRANCH   1  17
ATOM     17  N   UNL     1       2.503   7.033  18.508  0.00  0.00    +0.000 N 
ATOM     18  H   UNL     1       2.178   6.655  19.401  0.00  0.00    +0.000 HD
BRANCH  17  23
ATOM     19  C   UNL     1       7.660   4.654  17.766  0.00  0.00    +0.000 C 
ATOM     20  C   UNL     1       6.279   5.225  17.887  0.00  0.00    +0.000 A 
ATOM     21  C   UNL     1       5.762   6.093  16.919  0.00  0.00    +0.000 A 
ATOM     22  C   UNL     1       4.490   6.665  17.073  0.00  0.00    +0.000 A 
ATOM     23  C   UNL     1       3.717   6.378  18.199  0.00  0.00    +0.000 A 
ATOM     24  C   UNL     1       4.234   5.491  19.154  0.00  0.00    +0.000 A 
ATOM     25  C   UNL     1       5.497   4.915  19.002  0.00  0.00    +0.000 A 
ENDBRANCH  17  23
ENDBRANCH   1  17
TORSDOF 3
ENDMDL
MODEL 9
REMARK VINA RESULT:      -7.2      4.897      6.943
REMARK  Name = 
REMARK  4 active torsions:
REMARK  status: ('A' for Active; 'I' for Inactive)
REMARK    1  A    between atoms: C_1  and  C_2
REMARK    2  A    between atoms: C_5  and  N_6
REMARK    3  A    between atoms: N_6  and  C_7
REMARK    4  A    between atoms: C_12  and  C_13
REMARK                            x       y       z     vdW  Elec       q    Type
REMARK                         _______ _______ _______ _____ _____    ______ ____
ROOT
ATOM      1  C   UNL     1       1.506   5.990  20.034  0.00  0.00    +0.000 C 
ATOM      2  C   UNL     1       1.885   4.714  19.843  0.00  0.00    +0.000 C 
ATOM      3  C   UNL     1       1.591   4.133  18.495  0.00  0.00    +0.000 C 
ATOM      4  O   UNL     1       1.034   4.768  17.602  0.00  0.00    +0.000 OA
ATOM      5  C   UNL     1       1.954   2.683  18.307  0.00  0.00    +0.000 C 
ATOM      6  C   UNL     1       3.364   2.448  18.860  0.00  0.00    +0.000 C 
ATOM      7  C   UNL     1       3.328   2.639  20.388  0.00  0.00    +0.000 C 
ATOM      8  C   UNL     1       2.490   3.818  20.872  0.00  0.00    +0.000 C 
ATOM      9  O   UNL     1       2.284   3.961  22.075  0.00  0.00    +0.000 OA
ENDROOT
BRANCH   6  10
ATOM     10  C   UNL     1       4.431   3.226  18.087  0.00  0.00    +0.000 A 
ATOM     11  C   UNL     1       4.500   3.254  16.686  0.00  0.00    +0.000 A 
ATOM     12  C   UNL     1       5.454   4.032  16.029  0.00  0.00    +0.000 A 
ATOM     13  C   UNL     1       6.365   4.791  16.760  0.00  0.00    +0.000 A 
ATOM     14 CL   UNL     1       7.508   5.783  15.944  0.00  0.00    +0.000 Cl
ATOM     15  C   UNL     1       6.338   4.758  18.147  0.00  0.00    +0.000 A 
ATOM     16  C   UNL     1       5.377   3.983  18.806  0.00  0.00    +0.000 A 
ENDBRANCH   6  10
BRANCH   1  17
ATOM     17  N   UNL     1       1.485   6.843  21.119  0.00  0.00    +0.000 N 
ATOM     18  H   UNL     1       1.129   6.374  21.956  0.00  0.00    +0.000 HD
BRANCH  17  23
ATOM     19  C   UNL     1      -0.920  12.036  21.357  0.00  0.00    +0.000 C 
ATOM     20  C   UNL     1      -0.206  10.718  21.300  0.00  0.00    +0.000 A 
ATOM     21  C   UNL     1       0.540  10.342  20.177  0.00  0.00    +0.000 A 
ATOM     22  C   UNL     1       1.156   9.084  20.113  0.00  0.00    +0.000 A 
ATOM     23  C   UNL     1       1.035   8.182  21.170  0.00  0.00    +0.000 A 
ATOM     24  C   UNL     1       0.303   8.574  22.301  0.00  0.00    +0.000 A 
ATOM     25  C   UNL     1      -0.308   9.828  22.371  0.00  0.00    +0.000 A 
ENDBRANCH  17  23
ENDBRANCH   1  17
TORSDOF 3
ENDMDL
