MODEL 1
REMARK VINA RESULT:      -7.9      0.000      0.000
REMARK  Name = 
REMARK  4 active torsions:
REMARK  status: ('A' for Active; 'I' for Inactive)
REMARK    1  A    between atoms: C_1  and  C_2
REMARK    2  A    between atoms: C_5  and  N_6
REMARK    3  A    between atoms: N_11  and  C_12
REMARK    4  A    between atoms: C_12  and  C_13
REMARK                            x       y       z     vdW  Elec       q    Type
REMARK                         _______ _______ _______ _____ _____    ______ ____
ROOT
ATOM      1  N   UNL     1       3.163   7.241  17.899  0.00  0.00    +0.000 N 
ATOM      2  C   UNL     1       3.071   5.860  18.017  0.00  0.00    +0.000 C 
ATOM      3  N   UNL     1       1.954   5.253  18.278  0.00  0.00    +0.000 NA
ATOM      4  C   UNL     1       2.192   3.929  18.436  0.00  0.00    +0.000 C 
ATOM      5  S   UNL     1       1.011   2.823  18.854  0.00  0.00    +0.000 S 
ATOM      6  N   UNL     1       3.536   3.671  18.222  0.00  0.00    +0.000 N 
ATOM      7  C   UNL     1       4.287   4.907  17.853  0.00  0.00    +0.000 C 
ATOM      8  C   UNL     1       5.407   5.333  18.817  0.00  0.00    +0.000 C 
ATOM      9  C   UNL     1       6.760   4.664  18.560  0.00  0.00    +0.000 C 
ATOM     10  C   UNL     1       7.194   4.708  17.099  0.00  0.00    +0.000 C 
ATOM     11  C   UNL     1       6.101   4.268  16.131  0.00  0.00    +0.000 C 
ATOM     12  C   UNL     1       4.760   4.955  16.388  0.00  0.00    +0.000 C 
ATOM     13  H   UNL     1       3.360   7.559  16.954  0.00  0.00    +0.000 HD
ENDROOT
BRANCH   1  18
ATOM     14  C   UNL     1      -0.473  10.828  20.531  0.00  0.00    +0.000 C 
ATOM     15  C   UNL     1       0.420   9.842  19.835  0.00  0.00    +0.000 A 
ATOM     16  C   UNL     1       0.626   9.928  18.458  0.00  0.00    +0.000 A 
ATOM     17  C   UNL     1       1.498   9.044  17.824  0.00  0.00    +0.000 A 
ATOM     18  C   UNL     1       2.215   8.076  18.548  0.00  0.00    +0.000 A 
ATOM     19  C   UNL     1       1.950   7.946  19.915  0.00  0.00    +0.000 A 
ATOM     20  C   UNL     1       1.066   8.831  20.555  0.00  0.00    +0.000 A 
ENDBRANCH   1  18
BRANCH   6  21
ATOM     21  C   UNL     1       4.110   2.339  18.411  0.00  0.00    +0.000 C 
BRANCH  21  22
ATOM     22  C   UNL     1       4.538   2.050  19.841  0.00  0.00    +0.000 C 
ATOM     23  N   UNL     1       4.894   1.810  21.026  0.00  0.00    +0.000 NA
ENDBRANCH  21  22
ENDBRANCH   6  21
TORSDOF 3
ENDMDL
MODEL 2
REMARK VINA RESULT:      -7.8      0.122      1.032
REMARK  Name = 
REMARK  4 active torsions:
REMARK  status: ('A' for Active; 'I' for Inactive)
REMARK    1  A    between atoms: C_1  and  C_2
REMARK    2  A    between atoms: C_5  and  N_6
REMARK    3  A    between atoms: N_11  and  C_12
REMARK    4  A    between atoms: C_12  and  C_13
REMARK                            x       y       z     vdW  Elec       q    Type
REMARK                         _______ _______ _______ _____ _____    ______ ____
ROOT
ATOM      1  N   UNL     1       3.207   7.246  17.828  0.00  0.00    +0.000 N 
ATOM      2  C   UNL     1       3.091   5.870  17.983  0.00  0.00    +0.000 C 
ATOM      3  N   UNL     1       1.971   5.292  18.293  0.00  0.00    +0.000 NA
ATOM      4  C   UNL     1       2.188   3.968  18.476  0.00  0.00    +0.000 C 
ATOM      5  S   UNL     1       1.000   2.896  18.956  0.00  0.00    +0.000 S 
ATOM      6  N   UNL     1       3.520   3.678  18.227  0.00  0.00    +0.000 N 
ATOM      7  C   UNL     1       4.282   4.889  17.805  0.00  0.00    +0.000 C 
ATOM      8  C   UNL     1       5.440   5.315  18.724  0.00  0.00    +0.000 C 
ATOM      9  C   UNL     1       6.771   4.613  18.442  0.00  0.00    +0.000 C 
ATOM     10  C   UNL     1       7.160   4.614  16.968  0.00  0.00    +0.000 C 
ATOM     11  C   UNL     1       6.030   4.173  16.045  0.00  0.00    +0.000 C 
ATOM     12  C   UNL     1       4.711   4.893  16.326  0.00  0.00    +0.000 C 
ATOM     13  H   UNL     1       3.380   7.537  16.871  0.00  0.00    +0.000 HD
ENDROOT
BRANCH   1  18
ATOM     14  C   UNL     1      -0.678  10.557  20.468  0.00  0.00    +0.000 C 
ATOM     15  C   UNL     1       0.390   9.745  19.793  0.00  0.00    +0.000 A 
ATOM     16  C   UNL     1       1.084   8.765  20.503  0.00  0.00    +0.000 A 
ATOM     17  C   UNL     1       2.036   7.976  19.860  0.00  0.00    +0.000 A 
ATOM     18  C   UNL     1       2.296   8.115  18.486  0.00  0.00    +0.000 A 
ATOM     19  C   UNL     1       1.651   9.147  17.795  0.00  0.00    +0.000 A 
ATOM     20  C   UNL     1       0.696   9.948  18.443  0.00  0.00    +0.000 A 
ENDBRANCH   1  18
BRANCH   6  21
ATOM     21  C   UNL     1       4.073   2.339  18.430  0.00  0.00    +0.000 C 
BRANCH  21  22
ATOM     22  C   UNL     1       4.530   2.072  19.855  0.00  0.00    +0.000 C 
ATOM     23  N   UNL     1       4.909   1.849  21.037  0.00  0.00    +0.000 NA
ENDBRANCH  21  22
ENDBRANCH   6  21
TORSDOF 3
ENDMDL
MODEL 3
REMARK VINA RESULT:      -6.8      2.190      3.682
REMARK  Name = 
REMARK  4 active torsions:
REMARK  status: ('A' for Active; 'I' for Inactive)
REMARK    1  A    between atoms: C_1  and  C_2
REMARK    2  A    between atoms: C_5  and  N_6
REMARK    3  A    between atoms: N_11  and  C_12
REMARK    4  A    between atoms: C_12  and  C_13
REMARK                            x       y       z     vdW  Elec       q    Type
REMARK                         _______ _______ _______ _____ _____    ______ ____
ROOT
ATOM      1  N   UNL     1       2.421   6.376  19.406  0.00  0.00    +0.000 N 
ATOM      2  C   UNL     1       3.592   5.981  18.770  0.00  0.00    +0.000 C 
ATOM      3  N   UNL     1       4.537   6.816  18.463  0.00  0.00    +0.000 NA
ATOM      4  C   UNL     1       5.497   6.166  17.764  0.00  0.00    +0.000 C 
ATOM      5  S   UNL     1       6.846   6.919  17.130  0.00  0.00    +0.000 S 
ATOM      6  N   UNL     1       5.162   4.826  17.654  0.00  0.00    +0.000 N 
ATOM      7  C   UNL     1       3.886   4.512  18.360  0.00  0.00    +0.000 C 
ATOM      8  C   UNL     1       2.738   3.983  17.484  0.00  0.00    +0.000 C 
ATOM      9  C   UNL     1       2.758   2.470  17.250  0.00  0.00    +0.000 C 
ATOM     10  C   UNL     1       2.944   1.658  18.527  0.00  0.00    +0.000 C 
ATOM     11  C   UNL     1       4.091   2.157  19.397  0.00  0.00    +0.000 C 
ATOM     12  C   UNL     1       4.051   3.666  19.637  0.00  0.00    +0.000 C 
ATOM     13  H   UNL     1       2.336   6.032  20.357  0.00  0.00    +0.000 HD
ENDROOT
BRANCH   1  18
ATOM     14  C   UNL     1       0.301  11.694  18.919  0.00  0.00    +0.000 C 
ATOM     15  C   UNL     1       0.923  10.335  19.058  0.00  0.00    +0.000 A 
ATOM     16  C   UNL     1       0.928   9.685  20.292  0.00  0.00    +0.000 A 
ATOM     17  C   UNL     1       1.458   8.402  20.406  0.00  0.00    +0.000 A 
ATOM     18  C   UNL     1       1.963   7.715  19.288  0.00  0.00    +0.000 A 
ATOM     19  C   UNL     1       2.022   8.398  18.068  0.00  0.00    +0.000 A 
ATOM     20  C   UNL     1       1.495   9.695  17.953  0.00  0.00    +0.000 A 
ENDBRANCH   1  18
BRANCH   6  21
ATOM     21  C   UNL     1       5.967   3.886  16.873  0.00  0.00    +0.000 C 
BRANCH  21  22
ATOM     22  C   UNL     1       5.792   4.028  15.370  0.00  0.00    +0.000 C 
ATOM     23  N   UNL     1       5.647   4.147  14.123  0.00  0.00    +0.000 NA
ENDBRANCH  21  22
ENDBRANCH   6  21
TORSDOF 3
ENDMDL
MODEL 4
REMARK VINA RESULT:      -6.7      2.190      3.575
REMARK  Name = 
REMARK  4 active torsions:
REMARK  status: ('A' for Active; 'I' for Inactive)
REMARK    1  A    between atoms: C_1  and  C_2
REMARK    2  A    between atoms: C_5  and  N_6
REMARK    3  A    between atoms: N_11  and  C_12
REMARK    4  A    between atoms: C_12  and  C_13
REMARK                            x       y       z     vdW  Elec       q    Type
REMARK                         _______ _______ _______ _____ _____    ______ ____
ROOT
ATOM      1  N   UNL     1       2.385   6.395  19.405  0.00  0.00    +0.000 N 
ATOM      2  C   UNL     1       3.557   6.004  18.770  0.00  0.00    +0.000 C 
ATOM      3  N   UNL     1       4.496   6.844  18.454  0.00  0.00    +0.000 NA
ATOM      4  C   UNL     1       5.459   6.195  17.758  0.00  0.00    +0.000 C 
ATOM      5  S   UNL     1       6.801   6.954  17.114  0.00  0.00    +0.000 S 
ATOM      6  N   UNL     1       5.133   4.852  17.658  0.00  0.00    +0.000 N 
ATOM      7  C   UNL     1       3.862   4.534  18.370  0.00  0.00    +0.000 C 
ATOM      8  C   UNL     1       2.716   3.990  17.500  0.00  0.00    +0.000 C 
ATOM      9  C   UNL     1       2.746   2.476  17.278  0.00  0.00    +0.000 C 
ATOM     10  C   UNL     1       2.941   1.675  18.560  0.00  0.00    +0.000 C 
ATOM     11  C   UNL     1       4.087   2.188  19.424  0.00  0.00    +0.000 C 
ATOM     12  C   UNL     1       4.036   3.699  19.652  0.00  0.00    +0.000 C 
ATOM     13  H   UNL     1       2.305   6.057  20.360  0.00  0.00    +0.000 HD
ENDROOT
BRANCH   1  18
ATOM     14  C   UNL     1       0.766  11.885  18.905  0.00  0.00    +0.000 C 
ATOM     15  C   UNL     1       1.117  10.431  19.023  0.00  0.00    +0.000 A 
ATOM     16  C   UNL     1       1.573   9.723  17.911  0.00  0.00    +0.000 A 
ATOM     17  C   UNL     1       1.949   8.387  18.036  0.00  0.00    +0.000 A 
ATOM     18  C   UNL     1       1.917   7.730  19.279  0.00  0.00    +0.000 A 
ATOM     19  C   UNL     1       1.391   8.421  20.375  0.00  0.00    +0.000 A 
ATOM     20  C   UNL     1       1.004   9.766  20.249  0.00  0.00    +0.000 A 
ENDBRANCH   1  18
BRANCH   6  21
ATOM     21  C   UNL     1       5.944   3.913  16.882  0.00  0.00    +0.000 C 
BRANCH  21  22
ATOM     22  C   UNL     1       5.765   4.044  15.378  0.00  0.00    +0.000 C 
ATOM     23  N   UNL     1       5.618   4.151  14.130  0.00  0.00    +0.000 NA
ENDBRANCH  21  22
ENDBRANCH   6  21
TORSDOF 3
ENDMDL
MODEL 5
REMARK VINA RESULT:      -6.6      2.788      4.982
REMARK  Name = 
REMARK  4 active torsions:
REMARK  status: ('A' for Active; 'I' for Inactive)
REMARK    1  A    between atoms: C_1  and  C_2
REMARK    2  A    between atoms: C_5  and  N_6
REMARK    3  A    between atoms: N_11  and  C_12
REMARK    4  A    between atoms: C_12  and  C_13
REMARK                            x       y       z     vdW  Elec       q    Type
REMARK                         _______ _______ _______ _____ _____    ______ ____
ROOT
ATOM      1  N   UNL     1       5.768   5.524  17.611  0.00  0.00    +0.000 N 
ATOM      2  C   UNL     1       4.519   5.548  18.219  0.00  0.00    +0.000 C 
ATOM      3  N   UNL     1       3.943   6.650  18.591  0.00  0.00    +0.000 NA
ATOM      4  C   UNL     1       2.793   6.354  19.243  0.00  0.00    +0.000 C 
ATOM      5  S   UNL     1       1.804   7.507  19.937  0.00  0.00    +0.000 S 
ATOM      6  N   UNL     1       2.605   4.981  19.251  0.00  0.00    +0.000 N 
ATOM      7  C   UNL     1       3.691   4.268  18.518  0.00  0.00    +0.000 C 
ATOM      8  C   UNL     1       4.540   3.290  19.348  0.00  0.00    +0.000 C 
ATOM      9  C   UNL     1       3.955   1.880  19.468  0.00  0.00    +0.000 C 
ATOM     10  C   UNL     1       3.513   1.288  18.134  0.00  0.00    +0.000 C 
ATOM     11  C   UNL     1       2.654   2.237  17.308  0.00  0.00    +0.000 C 
ATOM     12  C   UNL     1       3.256   3.637  17.182  0.00  0.00    +0.000 C 
ATOM     13  H   UNL     1       5.743   5.241  16.635  0.00  0.00    +0.000 HD
ENDROOT
BRANCH   1  18
ATOM     14  C   UNL     1       9.334   9.890  18.722  0.00  0.00    +0.000 C 
ATOM     15  C   UNL     1       8.449   8.728  18.375  0.00  0.00    +0.000 A 
ATOM     16  C   UNL     1       8.594   7.509  19.038  0.00  0.00    +0.000 A 
ATOM     17  C   UNL     1       7.735   6.450  18.752  0.00  0.00    +0.000 A 
ATOM     18  C   UNL     1       6.686   6.586  17.827  0.00  0.00    +0.000 A 
ATOM     19  C   UNL     1       6.589   7.785  17.113  0.00  0.00    +0.000 A 
ATOM     20  C   UNL     1       7.459   8.852  17.395  0.00  0.00    +0.000 A 
ENDBRANCH   1  18
BRANCH   6  21
ATOM     21  C   UNL     1       1.490   4.355  19.962  0.00  0.00    +0.000 C 
BRANCH  21  22
ATOM     22  C   UNL     1       1.896   3.663  21.253  0.00  0.00    +0.000 C 
ATOM     23  N   UNL     1       2.231   3.087  22.324  0.00  0.00    +0.000 NA
ENDBRANCH  21  22
ENDBRANCH   6  21
TORSDOF 3
ENDMDL
MODEL 6
REMARK VINA RESULT:      -6.5      1.548      2.100
REMARK  Name = 
REMARK  4 active torsions:
REMARK  status: ('A' for Active; 'I' for Inactive)
REMARK    1  A    between atoms: C_1  and  C_2
REMARK    2  A    between atoms: C_5  and  N_6
REMARK    3  A    between atoms: N_11  and  C_12
REMARK    4  A    between atoms: C_12  and  C_13
REMARK                            x       y       z     vdW  Elec       q    Type
REMARK                         _______ _______ _______ _____ _____    ______ ____
ROOT
ATOM      1  N   UNL     1       2.320   7.491  19.163  0.00  0.00    +0.000 N 
ATOM      2  C   UNL     1       2.532   6.162  19.511  0.00  0.00    +0.000 C 
ATOM      3  N   UNL     1       1.749   5.517  20.320  0.00  0.00    +0.000 NA
ATOM      4  C   UNL     1       2.263   4.285  20.550  0.00  0.00    +0.000 C 
ATOM      5  S   UNL     1       1.576   3.181  21.599  0.00  0.00    +0.000 S 
ATOM      6  N   UNL     1       3.424   4.122  19.811  0.00  0.00    +0.000 N 
ATOM      7  C   UNL     1       3.723   5.320  18.975  0.00  0.00    +0.000 C 
ATOM      8  C   UNL     1       5.044   6.047  19.279  0.00  0.00    +0.000 C 
ATOM      9  C   UNL     1       6.268   5.475  18.558  0.00  0.00    +0.000 C 
ATOM     10  C   UNL     1       6.049   5.255  17.066  0.00  0.00    +0.000 C 
ATOM     11  C   UNL     1       4.753   4.518  16.748  0.00  0.00    +0.000 C 
ATOM     12  C   UNL     1       3.537   5.108  17.461  0.00  0.00    +0.000 C 
ATOM     13  H   UNL     1       2.052   7.622  18.193  0.00  0.00    +0.000 HD
ENDROOT
BRANCH   1  18
ATOM     14  C   UNL     1      -0.830  10.741  22.703  0.00  0.00    +0.000 C 
ATOM     15  C   UNL     1       0.047   9.946  21.780  0.00  0.00    +0.000 A 
ATOM     16  C   UNL     1       0.910   8.975  22.290  0.00  0.00    +0.000 A 
ATOM     17  C   UNL     1       1.682   8.201  21.426  0.00  0.00    +0.000 A 
ATOM     18  C   UNL     1       1.590   8.346  20.031  0.00  0.00    +0.000 A 
ATOM     19  C   UNL     1       0.778   9.368  19.528  0.00  0.00    +0.000 A 
ATOM     20  C   UNL     1       0.004  10.155  20.397  0.00  0.00    +0.000 A 
ENDBRANCH   1  18
BRANCH   6  21
ATOM     21  C   UNL     1       4.252   2.921  19.923  0.00  0.00    +0.000 C 
BRANCH  21  22
ATOM     22  C   UNL     1       3.922   1.848  18.898  0.00  0.00    +0.000 C 
ATOM     23  N   UNL     1       3.648   0.959  18.047  0.00  0.00    +0.000 NA
ENDBRANCH  21  22
ENDBRANCH   6  21
TORSDOF 3
ENDMDL
MODEL 7
REMARK VINA RESULT:      -6.5      1.105      1.535
REMARK  Name = 
REMARK  4 active torsions:
REMARK  status: ('A' for Active; 'I' for Inactive)
REMARK    1  A    between atoms: C_1  and  C_2
REMARK    2  A    between atoms: C_5  and  N_6
REMARK    3  A    between atoms: N_11  and  C_12
REMARK    4  A    between atoms: C_12  and  C_13
REMARK                            x       y       z     vdW  Elec       q    Type
REMARK                         _______ _______ _______ _____ _____    ______ ____
ROOT
ATOM      1  N   UNL     1       2.804   7.445  18.133  0.00  0.00    +0.000 N 
ATOM      2  C   UNL     1       2.888   6.170  18.679  0.00  0.00    +0.000 C 
ATOM      3  N   UNL     1       1.931   5.645  19.382  0.00  0.00    +0.000 NA
ATOM      4  C   UNL     1       2.338   4.448  19.865  0.00  0.00    +0.000 C 
ATOM      5  S   UNL     1       1.408   3.497  20.877  0.00  0.00    +0.000 S 
ATOM      6  N   UNL     1       3.618   4.175  19.409  0.00  0.00    +0.000 N 
ATOM      7  C   UNL     1       4.129   5.251  18.511  0.00  0.00    +0.000 C 
ATOM      8  C   UNL     1       5.387   5.993  18.991  0.00  0.00    +0.000 C 
ATOM      9  C   UNL     1       6.709   5.318  18.616  0.00  0.00    +0.000 C 
ATOM     10  C   UNL     1       6.791   4.909  17.150  0.00  0.00    +0.000 C 
ATOM     11  C   UNL     1       5.560   4.153  16.664  0.00  0.00    +0.000 C 
ATOM     12  C   UNL     1       4.247   4.846  17.030  0.00  0.00    +0.000 C 
ATOM     13  H   UNL     1       2.744   7.452  17.119  0.00  0.00    +0.000 HD
ENDROOT
BRANCH   1  18
ATOM     14  C   UNL     1      -0.874  11.167  20.507  0.00  0.00    +0.000 C 
ATOM     15  C   UNL     1       0.141  10.248  19.893  0.00  0.00    +0.000 A 
ATOM     16  C   UNL     1       0.842   9.340  20.688  0.00  0.00    +0.000 A 
ATOM     17  C   UNL     1       1.744   8.451  20.107  0.00  0.00    +0.000 A 
ATOM     18  C   UNL     1       1.945   8.415  18.716  0.00  0.00    +0.000 A 
ATOM     19  C   UNL     1       1.296   9.374  17.932  0.00  0.00    +0.000 A 
ATOM     20  C   UNL     1       0.392  10.276  18.517  0.00  0.00    +0.000 A 
ENDBRANCH   1  18
BRANCH   6  21
ATOM     21  C   UNL     1       4.358   2.989  19.840  0.00  0.00    +0.000 C 
BRANCH  21  22
ATOM     22  C   UNL     1       4.081   1.753  18.999  0.00  0.00    +0.000 C 
ATOM     23  N   UNL     1       3.853   0.727  18.301  0.00  0.00    +0.000 NA
ENDBRANCH  21  22
ENDBRANCH   6  21
TORSDOF 3
ENDMDL
MODEL 8
REMARK VINA RESULT:      -6.4      1.435      1.656
REMARK  Name = 
REMARK  4 active torsions:
REMARK  status: ('A' for Active; 'I' for Inactive)
REMARK    1  A    between atoms: C_1  and  C_2
REMARK    2  A    between atoms: C_5  and  N_6
REMARK    3  A    between atoms: N_11  and  C_12
REMARK    4  A    between atoms: C_12  and  C_13
REMARK                            x       y       z     vdW  Elec       q    Type
REMARK                         _______ _______ _______ _____ _____    ______ ____
ROOT
ATOM      1  N   UNL     1       2.436   7.400  18.991  0.00  0.00    +0.000 N 
ATOM      2  C   UNL     1       2.621   6.079  19.382  0.00  0.00    +0.000 C 
ATOM      3  N   UNL     1       1.795   5.459  20.166  0.00  0.00    +0.000 NA
ATOM      4  C   UNL     1       2.288   4.230  20.452  0.00  0.00    +0.000 C 
ATOM      5  S   UNL     1       1.542   3.156  21.492  0.00  0.00    +0.000 S 
ATOM      6  N   UNL     1       3.482   4.042  19.775  0.00  0.00    +0.000 N 
ATOM      7  C   UNL     1       3.831   5.217  18.925  0.00  0.00    +0.000 C 
ATOM      8  C   UNL     1       5.140   5.943  19.277  0.00  0.00    +0.000 C 
ATOM      9  C   UNL     1       6.394   5.347  18.631  0.00  0.00    +0.000 C 
ATOM     10  C   UNL     1       6.247   5.091  17.135  0.00  0.00    +0.000 C 
ATOM     11  C   UNL     1       4.963   4.354  16.772  0.00  0.00    +0.000 C 
ATOM     12  C   UNL     1       3.717   4.969  17.409  0.00  0.00    +0.000 C 
ATOM     13  H   UNL     1       2.216   7.509  18.006  0.00  0.00    +0.000 HD
ENDROOT
BRANCH   1  18
ATOM     14  C   UNL     1      -0.439  11.144  22.268  0.00  0.00    +0.000 C 
ATOM     15  C   UNL     1       0.248  10.125  21.406  0.00  0.00    +0.000 A 
ATOM     16  C   UNL     1       0.333  10.312  20.026  0.00  0.00    +0.000 A 
ATOM     17  C   UNL     1       1.019   9.391  19.236  0.00  0.00    +0.000 A 
ATOM     18  C   UNL     1       1.670   8.281  19.801  0.00  0.00    +0.000 A 
ATOM     19  C   UNL     1       1.520   8.059  21.174  0.00  0.00    +0.000 A 
ATOM     20  C   UNL     1       0.823   8.982  21.971  0.00  0.00    +0.000 A 
ENDBRANCH   1  18
BRANCH   6  21
ATOM     21  C   UNL     1       4.295   2.840  19.957  0.00  0.00    +0.000 C 
BRANCH  21  22
ATOM     22  C   UNL     1       4.022   1.751  18.932  0.00  0.00    +0.000 C 
ATOM     23  N   UNL     1       3.793   0.848  18.082  0.00  0.00    +0.000 NA
ENDBRANCH  21  22
ENDBRANCH   6  21
TORSDOF 3
ENDMDL
MODEL 9
REMARK VINA RESULT:      -6.2      2.144      3.542
REMARK  Name = 
REMARK  4 active torsions:
REMARK  status: ('A' for Active; 'I' for Inactive)
REMARK    1  A    between atoms: C_1  and  C_2
REMARK    2  A    between atoms: C_5  and  N_6
REMARK    3  A    between atoms: N_11  and  C_12
REMARK    4  A    between atoms: C_12  and  C_13
REMARK                            x       y       z     vdW  Elec       q    Type
REMARK                         _______ _______ _______ _____ _____    ______ ____
ROOT
ATOM      1  N   UNL     1       2.222   6.439  20.055  0.00  0.00    +0.000 N 
ATOM      2  C   UNL     1       3.220   6.147  19.135  0.00  0.00    +0.000 C 
ATOM      3  N   UNL     1       4.030   7.048  18.670  0.00  0.00    +0.000 NA
ATOM      4  C   UNL     1       4.819   6.492  17.720  0.00  0.00    +0.000 C 
ATOM      5  S   UNL     1       5.945   7.353  16.836  0.00  0.00    +0.000 S 
ATOM      6  N   UNL     1       4.520   5.144  17.601  0.00  0.00    +0.000 N 
ATOM      7  C   UNL     1       3.465   4.721  18.567  0.00  0.00    +0.000 C 
ATOM      8  C   UNL     1       2.162   4.181  17.954  0.00  0.00    +0.000 C 
ATOM      9  C   UNL     1       2.185   2.687  17.620  0.00  0.00    +0.000 C 
ATOM     10  C   UNL     1       2.704   1.815  18.758  0.00  0.00    +0.000 C 
ATOM     11  C   UNL     1       4.007   2.325  19.363  0.00  0.00    +0.000 C 
ATOM     12  C   UNL     1       3.966   3.814  19.707  0.00  0.00    +0.000 C 
ATOM     13  H   UNL     1       2.382   6.038  20.975  0.00  0.00    +0.000 HD
ENDROOT
BRANCH   1  18
ATOM     14  C   UNL     1      -0.166  11.654  20.405  0.00  0.00    +0.000 C 
ATOM     15  C   UNL     1       0.526  10.325  20.323  0.00  0.00    +0.000 A 
ATOM     16  C   UNL     1       0.677   9.537  21.465  0.00  0.00    +0.000 A 
ATOM     17  C   UNL     1       1.271   8.280  21.375  0.00  0.00    +0.000 A 
ATOM     18  C   UNL     1       1.697   7.757  20.142  0.00  0.00    +0.000 A 
ATOM     19  C   UNL     1       1.610   8.579  19.013  0.00  0.00    +0.000 A 
ATOM     20  C   UNL     1       1.018   9.849  19.103  0.00  0.00    +0.000 A 
ENDBRANCH   1  18
BRANCH   6  21
ATOM     21  C   UNL     1       5.151   4.296  16.589  0.00  0.00    +0.000 C 
BRANCH  21  22
ATOM     22  C   UNL     1       6.668   4.254  16.680  0.00  0.00    +0.000 C 
ATOM     23  N   UNL     1       7.926   4.221  16.755  0.00  0.00    +0.000 NA
ENDBRANCH  21  22
ENDBRANCH   6  21
TORSDOF 3
ENDMDL
