MODEL 1
REMARK VINA RESULT:      -9.0      0.000      0.000
REMARK  Name = 
REMARK  8 active torsions:
REMARK  status: ('A' for Active; 'I' for Inactive)
REMARK    1  A    between atoms: C_1  and  C_2
REMARK    2  A    between atoms: C_7  and  C_8
REMARK    3  A    between atoms: C_8  and  N_9
REMARK    4  A    between atoms: C_10  and  C_12
REMARK    5  A    between atoms: C_12  and  C_13
REMARK    6  A    between atoms: C_13  and  N_14
REMARK    7  A    between atoms: C_13  and  C_15
REMARK    8  A    between atoms: C_15  and  C_16
REMARK                            x       y       z     vdW  Elec       q    Type
REMARK                         _______ _______ _______ _____ _____    ______ ____
ROOT
ATOM      1  C   UNL     1       3.345   5.482  19.415  0.00  0.00    +0.000 C 
ATOM      2  C   UNL     1       3.256   4.835  18.004  0.00  0.00    +0.000 C 
ATOM      3  C   UNL     1       1.949   4.160  17.626  0.00  0.00    +0.000 C 
ATOM      4  S   UNL     1       1.422   2.964  18.825  0.00  0.00    +0.000 S 
ATOM      5  O   UNL     1       0.022   2.680  18.568  0.00  0.00    +0.000 OA
ATOM      6  O   UNL     1       2.396   1.899  18.865  0.00  0.00    +0.000 OA
ATOM      7  C   UNL     1       1.512   3.874  20.350  0.00  0.00    +0.000 C 
ATOM      8  C   UNL     1       2.860   4.543  20.557  0.00  0.00    +0.000 C 
ENDROOT
BRANCH   1  15
ATOM      9  C   UNL     1      -0.791  12.007  18.708  0.00  0.00    +0.000 C 
ATOM     10  C   UNL     1      -0.127  10.764  19.231  0.00  0.00    +0.000 A 
ATOM     11  C   UNL     1      -0.355  10.310  20.532  0.00  0.00    +0.000 A 
ATOM     12  C   UNL     1       0.270   9.145  21.012  0.00  0.00    +0.000 A 
ATOM     13  C   UNL     1       1.143   8.408  20.175  0.00  0.00    +0.000 A 
ATOM     14  N   UNL     1       1.812   7.227  20.495  0.00  0.00    +0.000 NA
ATOM     15  C   UNL     1       2.517   6.797  19.461  0.00  0.00    +0.000 A 
ATOM     16  S   UNL     1       2.478   7.855  18.090  0.00  0.00    +0.000 S 
ATOM     17  C   UNL     1       1.367   8.890  18.888  0.00  0.00    +0.000 A 
ATOM     18  C   UNL     1       0.745  10.051  18.395  0.00  0.00    +0.000 A 
ENDBRANCH   1  15
BRANCH   1  19
ATOM     19  N   UNL     1       4.775   5.853  19.634  0.00  0.00    +0.000 N 
ATOM     20  C   UNL     1       5.829   4.985  19.474  0.00  0.00    +0.000 C 
ATOM     21  O   UNL     1       5.696   3.799  19.188  0.00  0.00    +0.000 OA
ATOM     22  H   UNL     1       4.989   6.844  19.667  0.00  0.00    +0.000 HD
BRANCH  20  23
ATOM     23  C   UNL     1       7.205   5.581  19.642  0.00  0.00    +0.000 C 
BRANCH  23  24
ATOM     24  C   UNL     1       7.729   6.322  18.406  0.00  0.00    +0.000 C 
BRANCH  24  25
ATOM     25  N   UNL     1       8.521   7.463  18.907  0.00  0.00    +0.000 NA
ATOM     26  H   UNL     1       8.428   7.526  19.922  0.00  0.00    +0.000 HD
ATOM     27  H   UNL     1       8.134   8.334  18.540  0.00  0.00    +0.000 HD
ENDBRANCH  24  25
BRANCH  24  28
ATOM     28  C   UNL     1       6.587   6.775  17.459  0.00  0.00    +0.000 C 
BRANCH  28  29
ATOM     29  C   UNL     1       6.368   5.835  16.293  0.00  0.00    +0.000 A 
ATOM     30  C   UNL     1       7.134   4.669  16.142  0.00  0.00    +0.000 A 
ATOM     31  C   UNL     1       6.864   3.771  15.104  0.00  0.00    +0.000 A 
ATOM     32  C   UNL     1       5.845   4.040  14.191  0.00  0.00    +0.000 A 
ATOM     33  C   UNL     1       5.100   5.211  14.310  0.00  0.00    +0.000 A 
ATOM     34  C   UNL     1       5.360   6.092  15.358  0.00  0.00    +0.000 A 
ATOM     35  F   UNL     1       4.620   7.205  15.466  0.00  0.00    +0.000 F 
ENDBRANCH  28  29
ENDBRANCH  24  28
ENDBRANCH  23  24
ENDBRANCH  20  23
ENDBRANCH   1  19
TORSDOF 7
ENDMDL
MODEL 2
REMARK VINA RESULT:      -8.9      1.211      1.413
REMARK  Name = 
REMARK  8 active torsions:
REMARK  status: ('A' for Active; 'I' for Inactive)
REMARK    1  A    between atoms: C_1  and  C_2
REMARK    2  A    between atoms: C_7  and  C_8
REMARK    3  A    between atoms: C_8  and  N_9
REMARK    4  A    between atoms: C_10  and  C_12
REMARK    5  A    between atoms: C_12  and  C_13
REMARK    6  A    between atoms: C_13  and  N_14
REMARK    7  A    between atoms: C_13  and  C_15
REMARK    8  A    between atoms: C_15  and  C_16
REMARK                            x       y       z     vdW  Elec       q    Type
REMARK                         _______ _______ _______ _____ _____    ______ ____
ROOT
ATOM      1  C   UNL     1       3.443   5.401  18.966  0.00  0.00    +0.000 C 
ATOM      2  C   UNL     1       2.902   4.739  17.667  0.00  0.00    +0.000 C 
ATOM      3  C   UNL     1       1.550   4.052  17.744  0.00  0.00    +0.000 C 
ATOM      4  S   UNL     1       1.457   2.865  19.059  0.00  0.00    +0.000 S 
ATOM      5  O   UNL     1       0.053   2.570  19.279  0.00  0.00    +0.000 OA
ATOM      6  O   UNL     1       2.400   1.807  18.786  0.00  0.00    +0.000 OA
ATOM      7  C   UNL     1       2.034   3.792  20.463  0.00  0.00    +0.000 C 
ATOM      8  C   UNL     1       3.369   4.471  20.211  0.00  0.00    +0.000 C 
ENDROOT
BRANCH   1  15
ATOM      9  C   UNL     1      -0.531  12.036  19.560  0.00  0.00    +0.000 C 
ATOM     10  C   UNL     1       0.136  10.720  19.842  0.00  0.00    +0.000 A 
ATOM     11  C   UNL     1       0.006  10.087  21.080  0.00  0.00    +0.000 A 
ATOM     12  C   UNL     1       0.633   8.854  21.333  0.00  0.00    +0.000 A 
ATOM     13  C   UNL     1       1.408   8.229  20.326  0.00  0.00    +0.000 A 
ATOM     14  N   UNL     1       2.065   7.002  20.415  0.00  0.00    +0.000 NA
ATOM     15  C   UNL     1       2.664   6.711  19.271  0.00  0.00    +0.000 A 
ATOM     16  S   UNL     1       2.540   7.955  18.072  0.00  0.00    +0.000 S 
ATOM     17  C   UNL     1       1.535   8.886  19.105  0.00  0.00    +0.000 A 
ATOM     18  C   UNL     1       0.909  10.117  18.838  0.00  0.00    +0.000 A 
ENDBRANCH   1  15
BRANCH   1  19
ATOM     19  N   UNL     1       4.862   5.784  18.699  0.00  0.00    +0.000 N 
ATOM     20  C   UNL     1       5.903   4.888  18.643  0.00  0.00    +0.000 C 
ATOM     21  O   UNL     1       5.780   3.687  18.861  0.00  0.00    +0.000 OA
ATOM     22  H   UNL     1       5.020   6.707  18.309  0.00  0.00    +0.000 HD
BRANCH  20  23
ATOM     23  C   UNL     1       7.246   5.461  18.259  0.00  0.00    +0.000 C 
BRANCH  23  24
ATOM     24  C   UNL     1       7.276   6.135  16.883  0.00  0.00    +0.000 C 
BRANCH  24  25
ATOM     25  N   UNL     1       7.381   7.587  17.131  0.00  0.00    +0.000 NA
ATOM     26  H   UNL     1       6.577   7.901  17.676  0.00  0.00    +0.000 HD
ATOM     27  H   UNL     1       7.327   8.089  16.243  0.00  0.00    +0.000 HD
ENDBRANCH  24  25
BRANCH  24  28
ATOM     28  C   UNL     1       6.036   5.778  16.022  0.00  0.00    +0.000 C 
BRANCH  28  29
ATOM     29  C   UNL     1       6.392   5.185  14.676  0.00  0.00    +0.000 A 
ATOM     30  C   UNL     1       7.531   5.606  13.972  0.00  0.00    +0.000 A 
ATOM     31  C   UNL     1       7.889   4.991  12.768  0.00  0.00    +0.000 A 
ATOM     32  C   UNL     1       7.100   3.969  12.240  0.00  0.00    +0.000 A 
ATOM     33  C   UNL     1       5.948   3.567  12.911  0.00  0.00    +0.000 A 
ATOM     34  C   UNL     1       5.607   4.169  14.121  0.00  0.00    +0.000 A 
ATOM     35  F   UNL     1       4.504   3.755  14.761  0.00  0.00    +0.000 F 
ENDBRANCH  28  29
ENDBRANCH  24  28
ENDBRANCH  23  24
ENDBRANCH  20  23
ENDBRANCH   1  19
TORSDOF 7
ENDMDL
MODEL 3
REMARK VINA RESULT:      -8.8      2.173      2.939
REMARK  Name = 
REMARK  8 active torsions:
REMARK  status: ('A' for Active; 'I' for Inactive)
REMARK    1  A    between atoms: C_1  and  C_2
REMARK    2  A    between atoms: C_7  and  C_8
REMARK    3  A    between atoms: C_8  and  N_9
REMARK    4  A    between atoms: C_10  and  C_12
REMARK    5  A    between atoms: C_12  and  C_13
REMARK    6  A    between atoms: C_13  and  N_14
REMARK    7  A    between atoms: C_13  and  C_15
REMARK    8  A    between atoms: C_15  and  C_16
REMARK                            x       y       z     vdW  Elec       q    Type
REMARK                         _______ _______ _______ _____ _____    ______ ____
ROOT
ATOM      1  C   UNL     1       3.096   5.380  18.334  0.00  0.00    +0.000 C 
ATOM      2  C   UNL     1       1.960   4.468  17.791  0.00  0.00    +0.000 C 
ATOM      3  C   UNL     1       1.076   3.772  18.812  0.00  0.00    +0.000 C 
ATOM      4  S   UNL     1       2.006   2.855  20.013  0.00  0.00    +0.000 S 
ATOM      5  O   UNL     1       1.116   2.568  21.123  0.00  0.00    +0.000 OA
ATOM      6  O   UNL     1       2.705   1.790  19.333  0.00  0.00    +0.000 OA
ATOM      7  C   UNL     1       3.198   4.048  20.577  0.00  0.00    +0.000 C 
ATOM      8  C   UNL     1       3.959   4.703  19.438  0.00  0.00    +0.000 C 
ENDROOT
BRANCH   1  15
ATOM      9  C   UNL     1      -0.072  12.192  20.269  0.00  0.00    +0.000 C 
ATOM     10  C   UNL     1       0.500  10.803  20.296  0.00  0.00    +0.000 A 
ATOM     11  C   UNL     1       0.507  10.041  21.467  0.00  0.00    +0.000 A 
ATOM     12  C   UNL     1       1.043   8.741  21.483  0.00  0.00    +0.000 A 
ATOM     13  C   UNL     1       1.585   8.180  20.301  0.00  0.00    +0.000 A 
ATOM     14  N   UNL     1       2.126   6.903  20.151  0.00  0.00    +0.000 NA
ATOM     15  C   UNL     1       2.506   6.703  18.900  0.00  0.00    +0.000 A 
ATOM     16  S   UNL     1       2.316   8.085  17.874  0.00  0.00    +0.000 S 
ATOM     17  C   UNL     1       1.581   8.964  19.150  0.00  0.00    +0.000 A 
ATOM     18  C   UNL     1       1.043  10.264  19.121  0.00  0.00    +0.000 A 
ENDBRANCH   1  15
BRANCH   1  19
ATOM     19  N   UNL     1       3.955   5.744  17.168  0.00  0.00    +0.000 N 
ATOM     20  C   UNL     1       4.745   4.851  16.485  0.00  0.00    +0.000 C 
ATOM     21  O   UNL     1       4.867   3.671  16.801  0.00  0.00    +0.000 OA
ATOM     22  H   UNL     1       3.761   6.633  16.718  0.00  0.00    +0.000 HD
BRANCH  20  23
ATOM     23  C   UNL     1       5.459   5.394  15.271  0.00  0.00    +0.000 C 
BRANCH  23  24
ATOM     24  C   UNL     1       6.576   4.491  14.737  0.00  0.00    +0.000 C 
BRANCH  24  25
ATOM     25  N   UNL     1       7.743   4.704  15.616  0.00  0.00    +0.000 NA
ATOM     26  H   UNL     1       7.936   3.850  16.142  0.00  0.00    +0.000 HD
ATOM     27  H   UNL     1       7.518   5.414  16.315  0.00  0.00    +0.000 HD
ENDBRANCH  24  25
BRANCH  24  28
ATOM     28  C   UNL     1       6.907   4.776  13.249  0.00  0.00    +0.000 C 
BRANCH  28  29
ATOM     29  C   UNL     1       6.659   3.590  12.342  0.00  0.00    +0.000 A 
ATOM     30  C   UNL     1       7.722   2.874  11.770  0.00  0.00    +0.000 A 
ATOM     31  C   UNL     1       7.477   1.733  11.000  0.00  0.00    +0.000 A 
ATOM     32  C   UNL     1       6.168   1.309  10.770  0.00  0.00    +0.000 A 
ATOM     33  C   UNL     1       5.103   2.031  11.303  0.00  0.00    +0.000 A 
ATOM     34  C   UNL     1       5.354   3.155  12.087  0.00  0.00    +0.000 A 
ATOM     35  F   UNL     1       4.316   3.826  12.606  0.00  0.00    +0.000 F 
ENDBRANCH  28  29
ENDBRANCH  24  28
ENDBRANCH  23  24
ENDBRANCH  20  23
ENDBRANCH   1  19
TORSDOF 7
ENDMDL
MODEL 4
REMARK VINA RESULT:      -8.7      0.760      1.144
REMARK  Name = 
REMARK  8 active torsions:
REMARK  status: ('A' for Active; 'I' for Inactive)
REMARK    1  A    between atoms: C_1  and  C_2
REMARK    2  A    between atoms: C_7  and  C_8
REMARK    3  A    between atoms: C_8  and  N_9
REMARK    4  A    between atoms: C_10  and  C_12
REMARK    5  A    between atoms: C_12  and  C_13
REMARK    6  A    between atoms: C_13  and  N_14
REMARK    7  A    between atoms: C_13  and  C_15
REMARK    8  A    between atoms: C_15  and  C_16
REMARK                            x       y       z     vdW  Elec       q    Type
REMARK                         _______ _______ _______ _____ _____    ______ ____
ROOT
ATOM      1  C   UNL     1       3.332   5.466  19.394  0.00  0.00    +0.000 C 
ATOM      2  C   UNL     1       3.253   4.832  17.976  0.00  0.00    +0.000 C 
ATOM      3  C   UNL     1       1.957   4.140  17.593  0.00  0.00    +0.000 C 
ATOM      4  S   UNL     1       1.452   2.922  18.780  0.00  0.00    +0.000 S 
ATOM      5  O   UNL     1       0.057   2.617  18.521  0.00  0.00    +0.000 OA
ATOM      6  O   UNL     1       2.444   1.873  18.809  0.00  0.00    +0.000 OA
ATOM      7  C   UNL     1       1.528   3.818  20.314  0.00  0.00    +0.000 C 
ATOM      8  C   UNL     1       2.865   4.508  20.527  0.00  0.00    +0.000 C 
ENDROOT
BRANCH   1  15
ATOM      9  C   UNL     1      -0.813  11.906  20.629  0.00  0.00    +0.000 C 
ATOM     10  C   UNL     1       0.002  10.808  20.008  0.00  0.00    +0.000 A 
ATOM     11  C   UNL     1       0.427  10.879  18.679  0.00  0.00    +0.000 A 
ATOM     12  C   UNL     1       1.192   9.846  18.107  0.00  0.00    +0.000 A 
ATOM     13  C   UNL     1       1.549   8.713  18.877  0.00  0.00    +0.000 A 
ATOM     14  N   UNL     1       2.320   7.627  18.463  0.00  0.00    +0.000 NA
ATOM     15  C   UNL     1       2.482   6.767  19.455  0.00  0.00    +0.000 A 
ATOM     16  S   UNL     1       1.626   7.186  20.901  0.00  0.00    +0.000 S 
ATOM     17  C   UNL     1       1.101   8.657  20.194  0.00  0.00    +0.000 A 
ATOM     18  C   UNL     1       0.339   9.686  20.779  0.00  0.00    +0.000 A 
ENDBRANCH   1  15
BRANCH   1  19
ATOM     19  N   UNL     1       4.756   5.860  19.615  0.00  0.00    +0.000 N 
ATOM     20  C   UNL     1       5.824   5.009  19.455  0.00  0.00    +0.000 C 
ATOM     21  O   UNL     1       5.709   3.822  19.167  0.00  0.00    +0.000 OA
ATOM     22  H   UNL     1       4.954   6.854  19.650  0.00  0.00    +0.000 HD
BRANCH  20  23
ATOM     23  C   UNL     1       7.190   5.626  19.626  0.00  0.00    +0.000 C 
BRANCH  23  24
ATOM     24  C   UNL     1       7.718   6.347  18.380  0.00  0.00    +0.000 C 
BRANCH  24  25
ATOM     25  N   UNL     1       8.523   7.486  18.866  0.00  0.00    +0.000 NA
ATOM     26  H   UNL     1       8.483   7.524  19.886  0.00  0.00    +0.000 HD
ATOM     27  H   UNL     1       8.109   8.360  18.541  0.00  0.00    +0.000 HD
ENDBRANCH  24  25
BRANCH  24  28
ATOM     28  C   UNL     1       6.579   6.801  17.431  0.00  0.00    +0.000 C 
BRANCH  28  29
ATOM     29  C   UNL     1       6.359   5.859  16.266  0.00  0.00    +0.000 A 
ATOM     30  C   UNL     1       7.125   4.693  16.117  0.00  0.00    +0.000 A 
ATOM     31  C   UNL     1       6.854   3.793  15.081  0.00  0.00    +0.000 A 
ATOM     32  C   UNL     1       5.834   4.060  14.168  0.00  0.00    +0.000 A 
ATOM     33  C   UNL     1       5.089   5.231  14.286  0.00  0.00    +0.000 A 
ATOM     34  C   UNL     1       5.350   6.114  15.332  0.00  0.00    +0.000 A 
ATOM     35  F   UNL     1       4.610   7.227  15.439  0.00  0.00    +0.000 F 
ENDBRANCH  28  29
ENDBRANCH  24  28
ENDBRANCH  23  24
ENDBRANCH  20  23
ENDBRANCH   1  19
TORSDOF 7
ENDMDL
MODEL 5
REMARK VINA RESULT:      -8.5      1.377      1.785
REMARK  Name = 
REMARK  8 active torsions:
REMARK  status: ('A' for Active; 'I' for Inactive)
REMARK    1  A    between atoms: C_1  and  C_2
REMARK    2  A    between atoms: C_7  and  C_8
REMARK    3  A    between atoms: C_8  and  N_9
REMARK    4  A    between atoms: C_10  and  C_12
REMARK    5  A    between atoms: C_12  and  C_13
REMARK    6  A    between atoms: C_13  and  N_14
REMARK    7  A    between atoms: C_13  and  C_15
REMARK    8  A    between atoms: C_15  and  C_16
REMARK                            x       y       z     vdW  Elec       q    Type
REMARK                         _______ _______ _______ _____ _____    ______ ____
ROOT
ATOM      1  C   UNL     1       3.375   5.420  18.975  0.00  0.00    +0.000 C 
ATOM      2  C   UNL     1       2.911   4.684  17.686  0.00  0.00    +0.000 C 
ATOM      3  C   UNL     1       1.571   3.972  17.733  0.00  0.00    +0.000 C 
ATOM      4  S   UNL     1       1.437   2.848  19.098  0.00  0.00    +0.000 S 
ATOM      5  O   UNL     1       0.031   2.533  19.265  0.00  0.00    +0.000 OA
ATOM      6  O   UNL     1       2.413   1.799  18.923  0.00  0.00    +0.000 OA
ATOM      7  C   UNL     1       1.927   3.854  20.481  0.00  0.00    +0.000 C 
ATOM      8  C   UNL     1       3.260   4.549  20.260  0.00  0.00    +0.000 C 
ENDROOT
BRANCH   1  15
ATOM      9  C   UNL     1      -0.541  11.831  20.908  0.00  0.00    +0.000 C 
ATOM     10  C   UNL     1       0.203  10.761  20.161  0.00  0.00    +0.000 A 
ATOM     11  C   UNL     1       0.524  10.905  18.809  0.00  0.00    +0.000 A 
ATOM     12  C   UNL     1       1.222   9.897  18.119  0.00  0.00    +0.000 A 
ATOM     13  C   UNL     1       1.617   8.716  18.791  0.00  0.00    +0.000 A 
ATOM     14  N   UNL     1       2.333   7.646  18.255  0.00  0.00    +0.000 NA
ATOM     15  C   UNL     1       2.557   6.726  19.179  0.00  0.00    +0.000 A 
ATOM     16  S   UNL     1       1.826   7.070  20.711  0.00  0.00    +0.000 S 
ATOM     17  C   UNL     1       1.273   8.588  20.134  0.00  0.00    +0.000 A 
ATOM     18  C   UNL     1       0.579   9.590  20.837  0.00  0.00    +0.000 A 
ENDBRANCH   1  15
BRANCH   1  19
ATOM     19  N   UNL     1       4.798   5.820  18.758  0.00  0.00    +0.000 N 
ATOM     20  C   UNL     1       5.847   4.934  18.701  0.00  0.00    +0.000 C 
ATOM     21  O   UNL     1       5.727   3.726  18.879  0.00  0.00    +0.000 OA
ATOM     22  H   UNL     1       4.959   6.756  18.401  0.00  0.00    +0.000 HD
BRANCH  20  23
ATOM     23  C   UNL     1       7.195   5.528  18.371  0.00  0.00    +0.000 C 
BRANCH  23  24
ATOM     24  C   UNL     1       7.317   6.062  16.940  0.00  0.00    +0.000 C 
BRANCH  24  25
ATOM     25  N   UNL     1       7.570   7.513  17.055  0.00  0.00    +0.000 NA
ATOM     26  H   UNL     1       6.681   8.011  17.123  0.00  0.00    +0.000 HD
ATOM     27  H   UNL     1       8.011   7.850  16.198  0.00  0.00    +0.000 HD
ENDBRANCH  24  25
BRANCH  24  28
ATOM     28  C   UNL     1       6.060   5.755  16.084  0.00  0.00    +0.000 C 
BRANCH  28  29
ATOM     29  C   UNL     1       6.387   5.167  14.728  0.00  0.00    +0.000 A 
ATOM     30  C   UNL     1       7.522   5.576  14.011  0.00  0.00    +0.000 A 
ATOM     31  C   UNL     1       7.853   4.965  12.797  0.00  0.00    +0.000 A 
ATOM     32  C   UNL     1       7.041   3.959  12.274  0.00  0.00    +0.000 A 
ATOM     33  C   UNL     1       5.894   3.568  12.960  0.00  0.00    +0.000 A 
ATOM     34  C   UNL     1       5.580   4.166  14.179  0.00  0.00    +0.000 A 
ATOM     35  F   UNL     1       4.481   3.763  14.832  0.00  0.00    +0.000 F 
ENDBRANCH  28  29
ENDBRANCH  24  28
ENDBRANCH  23  24
ENDBRANCH  20  23
ENDBRANCH   1  19
TORSDOF 7
ENDMDL
MODEL 6
REMARK VINA RESULT:      -8.3      0.837      1.194
REMARK  Name = 
REMARK  8 active torsions:
REMARK  status: ('A' for Active; 'I' for Inactive)
REMARK    1  A    between atoms: C_1  and  C_2
REMARK    2  A    between atoms: C_7  and  C_8
REMARK    3  A    between atoms: C_8  and  N_9
REMARK    4  A    between atoms: C_10  and  C_12
REMARK    5  A    between atoms: C_12  and  C_13
REMARK    6  A    between atoms: C_13  and  N_14
REMARK    7  A    between atoms: C_13  and  C_15
REMARK    8  A    between atoms: C_15  and  C_16
REMARK                            x       y       z     vdW  Elec       q    Type
REMARK                         _______ _______ _______ _____ _____    ______ ____
ROOT
ATOM      1  C   UNL     1       3.277   5.422  19.482  0.00  0.00    +0.000 C 
ATOM      2  C   UNL     1       3.202   4.769  18.072  0.00  0.00    +0.000 C 
ATOM      3  C   UNL     1       1.895   4.105  17.679  0.00  0.00    +0.000 C 
ATOM      4  S   UNL     1       1.341   2.918  18.876  0.00  0.00    +0.000 S 
ATOM      5  O   UNL     1      -0.058   2.645  18.601  0.00  0.00    +0.000 OA
ATOM      6  O   UNL     1       2.305   1.845  18.935  0.00  0.00    +0.000 OA
ATOM      7  C   UNL     1       1.418   3.835  20.398  0.00  0.00    +0.000 C 
ATOM      8  C   UNL     1       2.769   4.492  20.621  0.00  0.00    +0.000 C 
ENDROOT
BRANCH   1  15
ATOM      9  C   UNL     1      -0.812  11.966  18.690  0.00  0.00    +0.000 C 
ATOM     10  C   UNL     1      -0.154  10.728  19.230  0.00  0.00    +0.000 A 
ATOM     11  C   UNL     1      -0.375  10.299  20.541  0.00  0.00    +0.000 A 
ATOM     12  C   UNL     1       0.244   9.137  21.036  0.00  0.00    +0.000 A 
ATOM     13  C   UNL     1       1.105   8.379  20.207  0.00  0.00    +0.000 A 
ATOM     14  N   UNL     1       1.767   7.199  20.542  0.00  0.00    +0.000 NA
ATOM     15  C   UNL     1       2.460   6.745  19.511  0.00  0.00    +0.000 A 
ATOM     16  S   UNL     1       2.419   7.778  18.121  0.00  0.00    +0.000 S 
ATOM     17  C   UNL     1       1.323   8.836  18.909  0.00  0.00    +0.000 A 
ATOM     18  C   UNL     1       0.706   9.993  18.400  0.00  0.00    +0.000 A 
ENDBRANCH   1  15
BRANCH   1  19
ATOM     19  N   UNL     1       4.708   5.782  19.718  0.00  0.00    +0.000 N 
ATOM     20  C   UNL     1       5.765   4.939  19.471  0.00  0.00    +0.000 C 
ATOM     21  O   UNL     1       5.635   3.782  19.083  0.00  0.00    +0.000 OA
ATOM     22  H   UNL     1       4.916   6.768  19.837  0.00  0.00    +0.000 HD
BRANCH  20  23
ATOM     23  C   UNL     1       7.139   5.526  19.678  0.00  0.00    +0.000 C 
BRANCH  23  24
ATOM     24  C   UNL     1       7.710   6.247  18.451  0.00  0.00    +0.000 C 
BRANCH  24  25
ATOM     25  N   UNL     1       8.564   7.336  18.965  0.00  0.00    +0.000 NA
ATOM     26  H   UNL     1       9.540   7.035  18.965  0.00  0.00    +0.000 HD
ATOM     27  H   UNL     1       8.332   7.519  19.942  0.00  0.00    +0.000 HD
ENDBRANCH  24  25
BRANCH  24  28
ATOM     28  C   UNL     1       6.600   6.773  17.504  0.00  0.00    +0.000 C 
BRANCH  28  29
ATOM     29  C   UNL     1       6.295   5.833  16.358  0.00  0.00    +0.000 A 
ATOM     30  C   UNL     1       5.272   6.112  15.438  0.00  0.00    +0.000 A 
ATOM     31  C   UNL     1       5.056   5.275  14.340  0.00  0.00    +0.000 A 
ATOM     32  C   UNL     1       5.841   4.135  14.161  0.00  0.00    +0.000 A 
ATOM     33  C   UNL     1       6.836   3.828  15.085  0.00  0.00    +0.000 A 
ATOM     34  C   UNL     1       7.061   4.678  16.167  0.00  0.00    +0.000 A 
ATOM     35  F   UNL     1       8.036   4.375  17.036  0.00  0.00    +0.000 F 
ENDBRANCH  28  29
ENDBRANCH  24  28
ENDBRANCH  23  24
ENDBRANCH  20  23
ENDBRANCH   1  19
TORSDOF 7
ENDMDL
MODEL 7
REMARK VINA RESULT:      -8.3      1.636      1.959
REMARK  Name = 
REMARK  8 active torsions:
REMARK  status: ('A' for Active; 'I' for Inactive)
REMARK    1  A    between atoms: C_1  and  C_2
REMARK    2  A    between atoms: C_7  and  C_8
REMARK    3  A    between atoms: C_8  and  N_9
REMARK    4  A    between atoms: C_10  and  C_12
REMARK    5  A    between atoms: C_12  and  C_13
REMARK    6  A    between atoms: C_13  and  N_14
REMARK    7  A    between atoms: C_13  and  C_15
REMARK    8  A    between atoms: C_15  and  C_16
REMARK                            x       y       z     vdW  Elec       q    Type
REMARK                         _______ _______ _______ _____ _____    ______ ____
ROOT
ATOM      1  C   UNL     1       3.260   5.134  18.634  0.00  0.00    +0.000 C 
ATOM      2  C   UNL     1       2.408   4.481  17.508  0.00  0.00    +0.000 C 
ATOM      3  C   UNL     1       1.092   3.840  17.912  0.00  0.00    +0.000 C 
ATOM      4  S   UNL     1       1.275   2.666  19.229  0.00  0.00    +0.000 S 
ATOM      5  O   UNL     1      -0.046   2.419  19.776  0.00  0.00    +0.000 OA
ATOM      6  O   UNL     1       2.095   1.575  18.757  0.00  0.00    +0.000 OA
ATOM      7  C   UNL     1       2.195   3.583  20.443  0.00  0.00    +0.000 C 
ATOM      8  C   UNL     1       3.453   4.216  19.875  0.00  0.00    +0.000 C 
ENDROOT
BRANCH   1  15
ATOM      9  C   UNL     1      -0.127  11.974  20.023  0.00  0.00    +0.000 C 
ATOM     10  C   UNL     1       0.462  10.598  20.156  0.00  0.00    +0.000 A 
ATOM     11  C   UNL     1       0.403   9.894  21.361  0.00  0.00    +0.000 A 
ATOM     12  C   UNL     1       0.956   8.606  21.474  0.00  0.00    +0.000 A 
ATOM     13  C   UNL     1       1.582   7.998  20.359  0.00  0.00    +0.000 A 
ATOM     14  N   UNL     1       2.150   6.725  20.307  0.00  0.00    +0.000 NA
ATOM     15  C   UNL     1       2.614   6.472  19.095  0.00  0.00    +0.000 A 
ATOM     16  S   UNL     1       2.472   7.800  17.992  0.00  0.00    +0.000 S 
ATOM     17  C   UNL     1       1.643   8.726  19.174  0.00  0.00    +0.000 A 
ATOM     18  C   UNL     1       1.090  10.013  19.046  0.00  0.00    +0.000 A 
ENDBRANCH   1  15
BRANCH   1  19
ATOM     19  N   UNL     1       4.587   5.468  18.036  0.00  0.00    +0.000 N 
ATOM     20  C   UNL     1       5.742   5.626  18.764  0.00  0.00    +0.000 C 
ATOM     21  O   UNL     1       5.787   5.562  19.989  0.00  0.00    +0.000 OA
ATOM     22  H   UNL     1       4.683   5.336  17.034  0.00  0.00    +0.000 HD
BRANCH  20  23
ATOM     23  C   UNL     1       7.000   5.860  17.964  0.00  0.00    +0.000 C 
BRANCH  23  24
ATOM     24  C   UNL     1       7.180   4.907  16.777  0.00  0.00    +0.000 C 
BRANCH  24  25
ATOM     25  N   UNL     1       8.300   4.010  17.126  0.00  0.00    +0.000 NA
ATOM     26  H   UNL     1       9.005   4.531  17.650  0.00  0.00    +0.000 HD
ATOM     27  H   UNL     1       8.765   3.697  16.273  0.00  0.00    +0.000 HD
ENDBRANCH  24  25
BRANCH  24  28
ATOM     28  C   UNL     1       7.430   5.662  15.445  0.00  0.00    +0.000 C 
BRANCH  28  29
ATOM     29  C   UNL     1       6.994   4.882  14.223  0.00  0.00    +0.000 A 
ATOM     30  C   UNL     1       5.856   4.061  14.250  0.00  0.00    +0.000 A 
ATOM     31  C   UNL     1       5.421   3.411  13.091  0.00  0.00    +0.000 A 
ATOM     32  C   UNL     1       6.133   3.552  11.899  0.00  0.00    +0.000 A 
ATOM     33  C   UNL     1       7.284   4.335  11.868  0.00  0.00    +0.000 A 
ATOM     34  C   UNL     1       7.700   4.997  13.021  0.00  0.00    +0.000 A 
ATOM     35  F   UNL     1       8.800   5.762  12.967  0.00  0.00    +0.000 F 
ENDBRANCH  28  29
ENDBRANCH  24  28
ENDBRANCH  23  24
ENDBRANCH  20  23
ENDBRANCH   1  19
TORSDOF 7
ENDMDL
MODEL 8
REMARK VINA RESULT:      -8.2      2.244      3.118
REMARK  Name = 
REMARK  8 active torsions:
REMARK  status: ('A' for Active; 'I' for Inactive)
REMARK    1  A    between atoms: C_1  and  C_2
REMARK    2  A    between atoms: C_7  and  C_8
REMARK    3  A    between atoms: C_8  and  N_9
REMARK    4  A    between atoms: C_10  and  C_12
REMARK    5  A    between atoms: C_12  and  C_13
REMARK    6  A    between atoms: C_13  and  N_14
REMARK    7  A    between atoms: C_13  and  C_15
REMARK    8  A    between atoms: C_15  and  C_16
REMARK                            x       y       z     vdW  Elec       q    Type
REMARK                         _______ _______ _______ _____ _____    ______ ____
ROOT
ATOM      1  C   UNL     1       3.057   5.547  18.327  0.00  0.00    +0.000 C 
ATOM      2  C   UNL     1       1.988   4.552  17.794  0.00  0.00    +0.000 C 
ATOM      3  C   UNL     1       1.098   3.869  18.817  0.00  0.00    +0.000 C 
ATOM      4  S   UNL     1       2.020   3.065  20.102  0.00  0.00    +0.000 S 
ATOM      5  O   UNL     1       1.101   2.795  21.192  0.00  0.00    +0.000 OA
ATOM      6  O   UNL     1       2.796   2.002  19.510  0.00  0.00    +0.000 OA
ATOM      7  C   UNL     1       3.130   4.345  20.643  0.00  0.00    +0.000 C 
ATOM      8  C   UNL     1       3.906   4.974  19.499  0.00  0.00    +0.000 C 
ENDROOT
BRANCH   1  15
ATOM      9  C   UNL     1      -0.099  11.866  21.537  0.00  0.00    +0.000 C 
ATOM     10  C   UNL     1       0.493  10.873  20.576  0.00  0.00    +0.000 A 
ATOM     11  C   UNL     1       0.745  11.210  19.244  0.00  0.00    +0.000 A 
ATOM     12  C   UNL     1       1.301  10.274  18.354  0.00  0.00    +0.000 A 
ATOM     13  C   UNL     1       1.619   8.968  18.799  0.00  0.00    +0.000 A 
ATOM     14  N   UNL     1       2.195   7.943  18.048  0.00  0.00    +0.000 NA
ATOM     15  C   UNL     1       2.382   6.868  18.795  0.00  0.00    +0.000 A 
ATOM     16  S   UNL     1       1.779   7.017  20.412  0.00  0.00    +0.000 S 
ATOM     17  C   UNL     1       1.344   8.651  20.126  0.00  0.00    +0.000 A 
ATOM     18  C   UNL     1       0.792   9.580  21.028  0.00  0.00    +0.000 A 
ENDBRANCH   1  15
BRANCH   1  19
ATOM     19  N   UNL     1       3.944   5.890  17.176  0.00  0.00    +0.000 N 
ATOM     20  C   UNL     1       4.780   4.993  16.554  0.00  0.00    +0.000 C 
ATOM     21  O   UNL     1       4.922   3.830  16.921  0.00  0.00    +0.000 OA
ATOM     22  H   UNL     1       3.741   6.754  16.684  0.00  0.00    +0.000 HD
BRANCH  20  23
ATOM     23  C   UNL     1       5.518   5.509  15.343  0.00  0.00    +0.000 C 
BRANCH  23  24
ATOM     24  C   UNL     1       6.554   4.535  14.772  0.00  0.00    +0.000 C 
BRANCH  24  25
ATOM     25  N   UNL     1       7.748   4.639  15.635  0.00  0.00    +0.000 NA
ATOM     26  H   UNL     1       7.508   4.359  16.587  0.00  0.00    +0.000 HD
ATOM     27  H   UNL     1       8.038   5.616  15.698  0.00  0.00    +0.000 HD
ENDBRANCH  24  25
BRANCH  24  28
ATOM     28  C   UNL     1       6.882   4.825  13.284  0.00  0.00    +0.000 C 
BRANCH  28  29
ATOM     29  C   UNL     1       6.648   3.637  12.375  0.00  0.00    +0.000 A 
ATOM     30  C   UNL     1       7.719   2.953  11.779  0.00  0.00    +0.000 A 
ATOM     31  C   UNL     1       7.489   1.809  11.008  0.00  0.00    +0.000 A 
ATOM     32  C   UNL     1       6.188   1.352  10.801  0.00  0.00    +0.000 A 
ATOM     33  C   UNL     1       5.114   2.042  11.359  0.00  0.00    +0.000 A 
ATOM     34  C   UNL     1       5.350   3.169  12.144  0.00  0.00    +0.000 A 
ATOM     35  F   UNL     1       4.305   3.810  12.687  0.00  0.00    +0.000 F 
ENDBRANCH  28  29
ENDBRANCH  24  28
ENDBRANCH  23  24
ENDBRANCH  20  23
ENDBRANCH   1  19
TORSDOF 7
ENDMDL
MODEL 9
REMARK VINA RESULT:      -8.0      2.679      3.847
REMARK  Name = 
REMARK  8 active torsions:
REMARK  status: ('A' for Active; 'I' for Inactive)
REMARK    1  A    between atoms: C_1  and  C_2
REMARK    2  A    between atoms: C_7  and  C_8
REMARK    3  A    between atoms: C_8  and  N_9
REMARK    4  A    between atoms: C_10  and  C_12
REMARK    5  A    between atoms: C_12  and  C_13
REMARK    6  A    between atoms: C_13  and  N_14
REMARK    7  A    between atoms: C_13  and  C_15
REMARK    8  A    between atoms: C_15  and  C_16
REMARK                            x       y       z     vdW  Elec       q    Type
REMARK                         _______ _______ _______ _____ _____    ______ ____
ROOT
ATOM      1  C   UNL     1       3.929   5.779  18.417  0.00  0.00    +0.000 C 
ATOM      2  C   UNL     1       3.256   4.940  17.294  0.00  0.00    +0.000 C 
ATOM      3  C   UNL     1       2.181   3.951  17.710  0.00  0.00    +0.000 C 
ATOM      4  S   UNL     1       2.723   2.846  18.988  0.00  0.00    +0.000 S 
ATOM      5  O   UNL     1       1.539   2.231  19.560  0.00  0.00    +0.000 OA
ATOM      6  O   UNL     1       3.796   2.035  18.465  0.00  0.00    +0.000 OA
ATOM      7  C   UNL     1       3.391   3.956  20.206  0.00  0.00    +0.000 C 
ATOM      8  C   UNL     1       4.407   4.924  19.625  0.00  0.00    +0.000 C 
ENDROOT
BRANCH   1  15
ATOM      9  C   UNL     1      -1.102  11.444  20.082  0.00  0.00    +0.000 C 
ATOM     10  C   UNL     1      -0.194  10.249  20.152  0.00  0.00    +0.000 A 
ATOM     11  C   UNL     1      -0.121   9.457  21.301  0.00  0.00    +0.000 A 
ATOM     12  C   UNL     1       0.731   8.339  21.356  0.00  0.00    +0.000 A 
ATOM     13  C   UNL     1       1.530   7.995  20.238  0.00  0.00    +0.000 A 
ATOM     14  N   UNL     1       2.398   6.909  20.131  0.00  0.00    +0.000 NA
ATOM     15  C   UNL     1       2.955   6.876  18.931  0.00  0.00    +0.000 A 
ATOM     16  S   UNL     1       2.527   8.212  17.916  0.00  0.00    +0.000 S 
ATOM     17  C   UNL     1       1.451   8.808  19.111  0.00  0.00    +0.000 A 
ATOM     18  C   UNL     1       0.599   9.926  19.041  0.00  0.00    +0.000 A 
ENDBRANCH   1  15
BRANCH   1  19
ATOM     19  N   UNL     1       5.094   6.480  17.796  0.00  0.00    +0.000 N 
ATOM     20  C   UNL     1       6.301   5.879  17.530  0.00  0.00    +0.000 C 
ATOM     21  O   UNL     1       6.563   4.717  17.827  0.00  0.00    +0.000 OA
ATOM     22  H   UNL     1       4.902   7.364  17.337  0.00  0.00    +0.000 HD
BRANCH  20  23
ATOM     23  C   UNL     1       7.316   6.730  16.806  0.00  0.00    +0.000 C 
BRANCH  23  24
ATOM     24  C   UNL     1       8.109   7.677  17.714  0.00  0.00    +0.000 C 
BRANCH  24  25
ATOM     25  N   UNL     1       8.164   7.035  19.042  0.00  0.00    +0.000 NA
ATOM     26  H   UNL     1       8.281   7.749  19.763  0.00  0.00    +0.000 HD
ATOM     27  H   UNL     1       8.994   6.444  19.101  0.00  0.00    +0.000 HD
ENDBRANCH  24  25
BRANCH  24  28
ATOM     28  C   UNL     1       7.487   9.096  17.777  0.00  0.00    +0.000 C 
BRANCH  28  29
ATOM     29  C   UNL     1       8.451  10.152  18.274  0.00  0.00    +0.000 A 
ATOM     30  C   UNL     1       9.429   9.852  19.235  0.00  0.00    +0.000 A 
ATOM     31  C   UNL     1      10.363  10.817  19.623  0.00  0.00    +0.000 A 
ATOM     32  C   UNL     1      10.314  12.100  19.077  0.00  0.00    +0.000 A 
ATOM     33  C   UNL     1       9.327  12.420  18.148  0.00  0.00    +0.000 A 
ATOM     34  C   UNL     1       8.412  11.448  17.749  0.00  0.00    +0.000 A 
ATOM     35  F   UNL     1       7.481  11.770  16.840  0.00  0.00    +0.000 F 
ENDBRANCH  28  29
ENDBRANCH  24  28
ENDBRANCH  23  24
ENDBRANCH  20  23
ENDBRANCH   1  19
TORSDOF 7
ENDMDL
