MODEL 1
REMARK VINA RESULT:      -5.7      0.000      0.000
REMARK  Name = 
REMARK  11 active torsions:
REMARK  status: ('A' for Active; 'I' for Inactive)
REMARK    1  A    between atoms: C_1  and  O_2
REMARK    2  A    between atoms: O_2  and  C_3
REMARK    3  A    between atoms: C_7  and  O_8
REMARK    4  A    between atoms: C_10  and  C_11
REMARK    5  A    between atoms: C_11  and  C_12
REMARK    6  A    between atoms: C_11  and  C_13
REMARK    7  A    between atoms: C_11  and  C_14
REMARK    8  A    between atoms: C_15  and  O_16
REMARK    9  A    between atoms: C_22  and  O_23
REMARK   10  A    between atoms: C_24  and  C_25
REMARK   11  A    between atoms: C_30  and  O_31
REMARK                            x       y       z     vdW  Elec       q    Type
REMARK                         _______ _______ _______ _____ _____    ______ ____
ROOT
ATOM      1  C   UNL     1      -0.678  11.853  20.693  0.00  0.00    +0.000 C 
ATOM      2  O   UNL     1      -1.178  11.107  19.588  0.00  0.00    +0.000 OA
ATOM      3  C   UNL     1      -2.291  11.767  19.170  0.00  0.00    +0.000 C 
ATOM      4  O   UNL     1      -3.274  11.251  18.681  0.00  0.00    +0.000 OA
ATOM      5  C   UNL     1      -1.989  13.230  19.309  0.00  0.00    +0.000 C 
ATOM      6  C   UNL     1      -1.235  13.357  20.638  0.00  0.00    +0.000 C 
ATOM      7  C   UNL     1      -0.229  14.606  20.719  0.00  0.00    +0.000 C 
ATOM      8  C   UNL     1       0.431  14.303  22.085  0.00  0.00    +0.000 C 
ATOM      9  C   UNL     1      -0.792  14.035  22.996  0.00  0.00    +0.000 C 
ATOM     10  O   UNL     1      -1.100  15.438  23.399  0.00  0.00    +0.000 OA
ATOM     11  C   UNL     1      -2.299  15.822  22.854  0.00  0.00    +0.000 C 
ATOM     12  O   UNL     1      -2.665  16.944  22.612  0.00  0.00    +0.000 OA
ATOM     13  C   UNL     1      -2.979  14.540  22.727  0.00  0.00    +0.000 C 
ATOM     14  C   UNL     1      -4.411  14.244  22.544  0.00  0.00    +0.000 C 
ATOM     15  C   UNL     1      -4.956  14.088  21.153  0.00  0.00    +0.000 C 
ATOM     16  C   UNL     1      -5.068  15.363  20.361  0.00  0.00    +0.000 C 
ATOM     17  C   UNL     1      -6.112  13.212  21.530  0.00  0.00    +0.000 C 
ATOM     18  O   UNL     1      -7.273  13.286  21.184  0.00  0.00    +0.000 OA
ATOM     19  O   UNL     1      -5.594  12.256  22.402  0.00  0.00    +0.000 OA
ATOM     20  C   UNL     1      -4.406  12.796  23.010  0.00  0.00    +0.000 C 
ATOM     21  C   UNL     1      -3.008  12.256  22.481  0.00  0.00    +0.000 C 
ATOM     22  C   UNL     1      -2.031  13.497  22.126  0.00  0.00    +0.000 C 
ENDROOT
BRANCH   7  23
ATOM     23  C   UNL     1       0.667  15.303  19.584  0.00  0.00    +0.000 C 
ATOM     24  C   UNL     1      -0.191  16.137  18.575  0.00  0.00    +0.000 C 
ATOM     25  C   UNL     1       1.602  16.394  20.206  0.00  0.00    +0.000 C 
ATOM     26  C   UNL     1       1.600  14.344  18.839  0.00  0.00    +0.000 C 
ENDBRANCH   7  23
BRANCH   1  28
ATOM     27  C   UNL     1       0.864  10.288  21.450  0.00  0.00    +0.000 C 
ATOM     28  O   UNL     1       0.695  11.616  20.910  0.00  0.00    +0.000 OA
ENDBRANCH   1  28
BRANCH   5  29
ATOM     29  O   UNL     1      -1.132  13.381  18.163  0.00  0.00    +0.000 OA
ATOM     30  H   UNL     1      -0.254  12.981  18.340  0.00  0.00    +0.000 HD
ENDBRANCH   5  29
BRANCH   8  31
ATOM     31  O   UNL     1       1.213  15.360  22.626  0.00  0.00    +0.000 OA
ATOM     32  H   UNL     1       0.749  15.688  23.422  0.00  0.00    +0.000 HD
ENDBRANCH   8  31
BRANCH  14  33
ATOM     33  O   UNL     1      -5.204  15.066  23.392  0.00  0.00    +0.000 OA
ATOM     34  H   UNL     1      -5.967  15.446  22.915  0.00  0.00    +0.000 HD
ENDBRANCH  14  33
BRANCH  21  35
ATOM     35  O   UNL     1      -2.389  11.430  23.450  0.00  0.00    +0.000 OA
ATOM     36  H   UNL     1      -2.000  12.005  24.139  0.00  0.00    +0.000 HD
ENDBRANCH  21  35
TORSDOF 6
ENDMDL
MODEL 2
REMARK VINA RESULT:      -5.5      1.671      5.482
REMARK  Name = 
REMARK  11 active torsions:
REMARK  status: ('A' for Active; 'I' for Inactive)
REMARK    1  A    between atoms: C_1  and  O_2
REMARK    2  A    between atoms: O_2  and  C_3
REMARK    3  A    between atoms: C_7  and  O_8
REMARK    4  A    between atoms: C_10  and  C_11
REMARK    5  A    between atoms: C_11  and  C_12
REMARK    6  A    between atoms: C_11  and  C_13
REMARK    7  A    between atoms: C_11  and  C_14
REMARK    8  A    between atoms: C_15  and  O_16
REMARK    9  A    between atoms: C_22  and  O_23
REMARK   10  A    between atoms: C_24  and  C_25
REMARK   11  A    between atoms: C_30  and  O_31
REMARK                            x       y       z     vdW  Elec       q    Type
REMARK                         _______ _______ _______ _____ _____    ______ ____
ROOT
ATOM      1  C   UNL     1      -1.342  14.484  23.770  0.00  0.00    +0.000 C 
ATOM      2  O   UNL     1      -0.095  15.171  23.839  0.00  0.00    +0.000 OA
ATOM      3  C   UNL     1       0.389  15.187  22.569  0.00  0.00    +0.000 C 
ATOM      4  O   UNL     1       1.561  15.153  22.262  0.00  0.00    +0.000 OA
ATOM      5  C   UNL     1      -0.796  15.390  21.671  0.00  0.00    +0.000 C 
ATOM      6  C   UNL     1      -1.905  14.518  22.269  0.00  0.00    +0.000 C 
ATOM      7  C   UNL     1      -3.396  15.031  21.965  0.00  0.00    +0.000 C 
ATOM      8  C   UNL     1      -4.185  14.027  22.838  0.00  0.00    +0.000 C 
ATOM      9  C   UNL     1      -3.570  12.668  22.424  0.00  0.00    +0.000 C 
ATOM     10  O   UNL     1      -4.417  12.375  21.231  0.00  0.00    +0.000 OA
ATOM     11  C   UNL     1      -3.650  12.432  20.095  0.00  0.00    +0.000 C 
ATOM     12  O   UNL     1      -4.024  12.658  18.973  0.00  0.00    +0.000 OA
ATOM     13  C   UNL     1      -2.336  12.088  20.621  0.00  0.00    +0.000 C 
ATOM     14  C   UNL     1      -1.127  11.627  19.915  0.00  0.00    +0.000 C 
ATOM     15  C   UNL     1      -0.113  12.637  19.460  0.00  0.00    +0.000 C 
ATOM     16  C   UNL     1      -0.532  13.484  18.289  0.00  0.00    +0.000 C 
ATOM     17  C   UNL     1       1.058  11.700  19.461  0.00  0.00    +0.000 C 
ATOM     18  O   UNL     1       1.917  11.549  18.617  0.00  0.00    +0.000 OA
ATOM     19  O   UNL     1       0.975  10.991  20.658  0.00  0.00    +0.000 OA
ATOM     20  C   UNL     1      -0.397  11.005  21.095  0.00  0.00    +0.000 C 
ATOM     21  C   UNL     1      -0.768  11.977  22.297  0.00  0.00    +0.000 C 
ATOM     22  C   UNL     1      -2.061  12.870  21.909  0.00  0.00    +0.000 C 
ENDROOT
BRANCH   7  23
ATOM     23  C   UNL     1      -3.979  16.520  21.811  0.00  0.00    +0.000 C 
ATOM     24  C   UNL     1      -3.541  17.195  20.469  0.00  0.00    +0.000 C 
ATOM     25  C   UNL     1      -5.538  16.494  21.676  0.00  0.00    +0.000 C 
ATOM     26  C   UNL     1      -3.688  17.438  23.001  0.00  0.00    +0.000 C 
ENDBRANCH   7  23
BRANCH   1  28
ATOM     27  C   UNL     1      -1.442  15.597  25.808  0.00  0.00    +0.000 C 
ATOM     28  O   UNL     1      -2.186  14.815  24.850  0.00  0.00    +0.000 OA
ENDBRANCH   1  28
BRANCH   5  29
ATOM     29  O   UNL     1      -1.002  16.795  21.904  0.00  0.00    +0.000 OA
ATOM     30  H   UNL     1      -1.922  16.959  22.203  0.00  0.00    +0.000 HD
ENDBRANCH   5  29
BRANCH   8  31
ATOM     31  O   UNL     1      -5.589  14.007  22.616  0.00  0.00    +0.000 OA
ATOM     32  H   UNL     1      -5.860  13.070  22.541  0.00  0.00    +0.000 HD
ENDBRANCH   8  31
BRANCH  14  33
ATOM     33  O   UNL     1      -1.462  10.653  18.933  0.00  0.00    +0.000 OA
ATOM     34  H   UNL     1      -1.906   9.879  19.330  0.00  0.00    +0.000 HD
ENDBRANCH  14  33
BRANCH  21  35
ATOM     35  O   UNL     1      -1.040  11.239  23.475  0.00  0.00    +0.000 OA
ATOM     36  H   UNL     1      -0.200  11.121  23.962  0.00  0.00    +0.000 HD
ENDBRANCH  21  35
TORSDOF 6
ENDMDL
MODEL 3
REMARK VINA RESULT:      -5.5      7.839     11.456
REMARK  Name = 
REMARK  11 active torsions:
REMARK  status: ('A' for Active; 'I' for Inactive)
REMARK    1  A    between atoms: C_1  and  O_2
REMARK    2  A    between atoms: O_2  and  C_3
REMARK    3  A    between atoms: C_7  and  O_8
REMARK    4  A    between atoms: C_10  and  C_11
REMARK    5  A    between atoms: C_11  and  C_12
REMARK    6  A    between atoms: C_11  and  C_13
REMARK    7  A    between atoms: C_11  and  C_14
REMARK    8  A    between atoms: C_15  and  O_16
REMARK    9  A    between atoms: C_22  and  O_23
REMARK   10  A    between atoms: C_24  and  C_25
REMARK   11  A    between atoms: C_30  and  O_31
REMARK                            x       y       z     vdW  Elec       q    Type
REMARK                         _______ _______ _______ _____ _____    ______ ____
ROOT
ATOM      1  C   UNL     1      10.551  15.692  21.034  0.00  0.00    +0.000 C 
ATOM      2  O   UNL     1      10.630  15.624  22.455  0.00  0.00    +0.000 OA
ATOM      3  C   UNL     1       9.386  15.272  22.877  0.00  0.00    +0.000 C 
ATOM      4  O   UNL     1       8.873  15.619  23.920  0.00  0.00    +0.000 OA
ATOM      5  C   UNL     1       8.866  14.284  21.874  0.00  0.00    +0.000 C 
ATOM      6  C   UNL     1       9.302  14.832  20.511  0.00  0.00    +0.000 C 
ATOM      7  C   UNL     1       9.494  13.716  19.373  0.00  0.00    +0.000 C 
ATOM      8  C   UNL     1      10.071  14.608  18.248  0.00  0.00    +0.000 C 
ATOM      9  C   UNL     1       9.080  15.797  18.222  0.00  0.00    +0.000 C 
ATOM     10  O   UNL     1       8.046  15.227  17.310  0.00  0.00    +0.000 OA
ATOM     11  C   UNL     1       6.887  15.004  18.009  0.00  0.00    +0.000 C 
ATOM     12  O   UNL     1       6.018  14.213  17.747  0.00  0.00    +0.000 OA
ATOM     13  C   UNL     1       6.992  16.004  19.063  0.00  0.00    +0.000 C 
ATOM     14  C   UNL     1       5.951  16.554  19.949  0.00  0.00    +0.000 C 
ATOM     15  C   UNL     1       5.715  15.915  21.288  0.00  0.00    +0.000 C 
ATOM     16  C   UNL     1       5.037  14.572  21.247  0.00  0.00    +0.000 C 
ATOM     17  C   UNL     1       5.152  17.137  21.952  0.00  0.00    +0.000 C 
ATOM     18  O   UNL     1       4.165  17.241  22.650  0.00  0.00    +0.000 OA
ATOM     19  O   UNL     1       5.999  18.185  21.597  0.00  0.00    +0.000 OA
ATOM     20  C   UNL     1       6.662  17.833  20.368  0.00  0.00    +0.000 C 
ATOM     21  C   UNL     1       8.182  17.381  20.465  0.00  0.00    +0.000 C 
ATOM     22  C   UNL     1       8.400  15.990  19.666  0.00  0.00    +0.000 C 
ENDROOT
BRANCH   7  23
ATOM     23  C   UNL     1      10.009  12.198  19.473  0.00  0.00    +0.000 C 
ATOM     24  C   UNL     1       9.079  11.312  20.367  0.00  0.00    +0.000 C 
ATOM     25  C   UNL     1       9.911  11.485  18.083  0.00  0.00    +0.000 C 
ATOM     26  C   UNL     1      11.471  12.054  19.902  0.00  0.00    +0.000 C 
ENDBRANCH   7  23
BRANCH   1  28
ATOM     27  C   UNL     1      12.333  16.844  20.087  0.00  0.00    +0.000 C 
ATOM     28  O   UNL     1      11.815  15.542  20.429  0.00  0.00    +0.000 OA
ENDBRANCH   1  28
BRANCH   5  29
ATOM     29  O   UNL     1       9.632  13.138  22.288  0.00  0.00    +0.000 OA
ATOM     30  H   UNL     1      10.591  13.346  22.271  0.00  0.00    +0.000 HD
ENDBRANCH   5  29
BRANCH   8  31
ATOM     31  O   UNL     1      10.127  14.000  16.964  0.00  0.00    +0.000 OA
ATOM     32  H   UNL     1       9.683  13.131  17.033  0.00  0.00    +0.000 HD
ENDBRANCH   8  31
BRANCH  14  33
ATOM     33  O   UNL     1       4.763  16.830  19.216  0.00  0.00    +0.000 OA
ATOM     34  H   UNL     1       3.977  16.837  19.795  0.00  0.00    +0.000 HD
ENDBRANCH  14  33
BRANCH  21  35
ATOM     35  O   UNL     1       9.037  18.373  19.927  0.00  0.00    +0.000 OA
ATOM     36  H   UNL     1       8.949  18.358  18.953  0.00  0.00    +0.000 HD
ENDBRANCH  21  35
TORSDOF 6
ENDMDL
MODEL 4
REMARK VINA RESULT:      -5.4      1.715      2.097
REMARK  Name = 
REMARK  11 active torsions:
REMARK  status: ('A' for Active; 'I' for Inactive)
REMARK    1  A    between atoms: C_1  and  O_2
REMARK    2  A    between atoms: O_2  and  C_3
REMARK    3  A    between atoms: C_7  and  O_8
REMARK    4  A    between atoms: C_10  and  C_11
REMARK    5  A    between atoms: C_11  and  C_12
REMARK    6  A    between atoms: C_11  and  C_13
REMARK    7  A    between atoms: C_11  and  C_14
REMARK    8  A    between atoms: C_15  and  O_16
REMARK    9  A    between atoms: C_22  and  O_23
REMARK   10  A    between atoms: C_24  and  C_25
REMARK   11  A    between atoms: C_30  and  O_31
REMARK                            x       y       z     vdW  Elec       q    Type
REMARK                         _______ _______ _______ _____ _____    ______ ____
ROOT
ATOM      1  C   UNL     1      -1.814  12.374  22.291  0.00  0.00    +0.000 C 
ATOM      2  O   UNL     1      -1.873  11.756  21.009  0.00  0.00    +0.000 OA
ATOM      3  C   UNL     1      -2.664  12.558  20.248  0.00  0.00    +0.000 C 
ATOM      4  O   UNL     1      -3.396  12.183  19.357  0.00  0.00    +0.000 OA
ATOM      5  C   UNL     1      -2.337  13.968  20.644  0.00  0.00    +0.000 C 
ATOM      6  C   UNL     1      -2.186  13.930  22.168  0.00  0.00    +0.000 C 
ATOM      7  C   UNL     1      -1.212  15.055  22.771  0.00  0.00    +0.000 C 
ATOM      8  C   UNL     1      -1.193  14.598  24.249  0.00  0.00    +0.000 C 
ATOM      9  C   UNL     1      -2.698  14.411  24.561  0.00  0.00    +0.000 C 
ATOM     10  O   UNL     1      -3.039  15.812  24.945  0.00  0.00    +0.000 OA
ATOM     11  C   UNL     1      -3.877  16.357  24.005  0.00  0.00    +0.000 C 
ATOM     12  O   UNL     1      -4.027  17.524  23.751  0.00  0.00    +0.000 OA
ATOM     13  C   UNL     1      -4.538  15.167  23.488  0.00  0.00    +0.000 C 
ATOM     14  C   UNL     1      -5.788  15.041  22.716  0.00  0.00    +0.000 C 
ATOM     15  C   UNL     1      -5.725  15.031  21.216  0.00  0.00    +0.000 C 
ATOM     16  C   UNL     1      -5.408  16.356  20.578  0.00  0.00    +0.000 C 
ATOM     17  C   UNL     1      -6.997  14.264  21.007  0.00  0.00    +0.000 C 
ATOM     18  O   UNL     1      -7.905  14.486  20.233  0.00  0.00    +0.000 OA
ATOM     19  O   UNL     1      -6.954  13.206  21.912  0.00  0.00    +0.000 OA
ATOM     20  C   UNL     1      -6.082  13.575  22.997  0.00  0.00    +0.000 C 
ATOM     21  C   UNL     1      -4.635  12.919  23.023  0.00  0.00    +0.000 C 
ATOM     22  C   UNL     1      -3.509  14.065  23.217  0.00  0.00    +0.000 C 
ENDROOT
BRANCH   7  23
ATOM     23  C   UNL     1       0.121  15.718  22.168  0.00  0.00    +0.000 C 
ATOM     24  C   UNL     1      -0.182  16.683  20.974  0.00  0.00    +0.000 C 
ATOM     25  C   UNL     1       0.785  16.678  23.210  0.00  0.00    +0.000 C 
ATOM     26  C   UNL     1       1.210  14.711  21.789  0.00  0.00    +0.000 C 
ENDBRANCH   7  23
BRANCH   1  28
ATOM     27  C   UNL     1      -0.515  10.546  22.898  0.00  0.00    +0.000 C 
ATOM     28  O   UNL     1      -0.673  11.975  23.017  0.00  0.00    +0.000 OA
ENDBRANCH   1  28
BRANCH   5  29
ATOM     29  O   UNL     1      -1.077  14.094  19.959  0.00  0.00    +0.000 OA
ATOM     30  H   UNL     1      -0.487  14.711  20.443  0.00  0.00    +0.000 HD
ENDBRANCH   5  29
BRANCH   8  31
ATOM     31  O   UNL     1      -0.625  15.528  25.162  0.00  0.00    +0.000 OA
ATOM     32  H   UNL     1      -0.033  16.116  24.650  0.00  0.00    +0.000 HD
ENDBRANCH   8  31
BRANCH  14  33
ATOM     33  O   UNL     1      -6.795  15.891  23.252  0.00  0.00    +0.000 OA
ATOM     34  H   UNL     1      -6.565  16.834  23.145  0.00  0.00    +0.000 HD
ENDBRANCH  14  33
BRANCH  21  35
ATOM     35  O   UNL     1      -4.531  11.972  24.071  0.00  0.00    +0.000 OA
ATOM     36  H   UNL     1      -4.433  12.458  24.914  0.00  0.00    +0.000 HD
ENDBRANCH  21  35
TORSDOF 6
ENDMDL
MODEL 5
REMARK VINA RESULT:      -5.1      1.891      6.315
REMARK  Name = 
REMARK  11 active torsions:
REMARK  status: ('A' for Active; 'I' for Inactive)
REMARK    1  A    between atoms: C_1  and  O_2
REMARK    2  A    between atoms: O_2  and  C_3
REMARK    3  A    between atoms: C_7  and  O_8
REMARK    4  A    between atoms: C_10  and  C_11
REMARK    5  A    between atoms: C_11  and  C_12
REMARK    6  A    between atoms: C_11  and  C_13
REMARK    7  A    between atoms: C_11  and  C_14
REMARK    8  A    between atoms: C_15  and  O_16
REMARK    9  A    between atoms: C_22  and  O_23
REMARK   10  A    between atoms: C_24  and  C_25
REMARK   11  A    between atoms: C_30  and  O_31
REMARK                            x       y       z     vdW  Elec       q    Type
REMARK                         _______ _______ _______ _____ _____    ______ ____
ROOT
ATOM      1  C   UNL     1      -6.030  14.891  23.184  0.00  0.00    +0.000 C 
ATOM      2  O   UNL     1      -5.531  16.037  23.868  0.00  0.00    +0.000 OA
ATOM      3  C   UNL     1      -4.340  16.329  23.280  0.00  0.00    +0.000 C 
ATOM      4  O   UNL     1      -3.379  16.814  23.839  0.00  0.00    +0.000 OA
ATOM      5  C   UNL     1      -4.518  16.061  21.814  0.00  0.00    +0.000 C 
ATOM      6  C   UNL     1      -5.338  14.768  21.742  0.00  0.00    +0.000 C 
ATOM      7  C   UNL     1      -6.230  14.616  20.415  0.00  0.00    +0.000 C 
ATOM      8  C   UNL     1      -6.998  13.324  20.782  0.00  0.00    +0.000 C 
ATOM      9  C   UNL     1      -5.863  12.380  21.248  0.00  0.00    +0.000 C 
ATOM     10  O   UNL     1      -5.455  11.824  19.925  0.00  0.00    +0.000 OA
ATOM     11  C   UNL     1      -4.196  12.265  19.608  0.00  0.00    +0.000 C 
ATOM     12  O   UNL     1      -3.716  12.375  18.508  0.00  0.00    +0.000 OA
ATOM     13  C   UNL     1      -3.627  12.483  20.931  0.00  0.00    +0.000 C 
ATOM     14  C   UNL     1      -2.219  12.619  21.343  0.00  0.00    +0.000 C 
ATOM     15  C   UNL     1      -1.605  13.988  21.419  0.00  0.00    +0.000 C 
ATOM     16  C   UNL     1      -1.331  14.643  20.092  0.00  0.00    +0.000 C 
ATOM     17  C   UNL     1      -0.557  13.639  22.433  0.00  0.00    +0.000 C 
ATOM     18  O   UNL     1       0.624  13.915  22.438  0.00  0.00    +0.000 OA
ATOM     19  O   UNL     1      -1.212  12.895  23.413  0.00  0.00    +0.000 OA
ATOM     20  C   UNL     1      -2.382  12.300  22.822  0.00  0.00    +0.000 C 
ATOM     21  C   UNL     1      -3.788  12.953  23.174  0.00  0.00    +0.000 C 
ATOM     22  C   UNL     1      -4.626  13.233  21.818  0.00  0.00    +0.000 C 
ENDROOT
BRANCH   7  23
ATOM     23  C   UNL     1      -6.989  15.722  19.533  0.00  0.00    +0.000 C 
ATOM     24  C   UNL     1      -7.866  16.681  20.405  0.00  0.00    +0.000 C 
ATOM     25  C   UNL     1      -5.965  16.710  18.880  0.00  0.00    +0.000 C 
ATOM     26  C   UNL     1      -7.803  15.151  18.368  0.00  0.00    +0.000 C 
ENDBRANCH   7  23
BRANCH   1  28
ATOM     27  C   UNL     1      -7.729  13.790  24.324  0.00  0.00    +0.000 C 
ATOM     28  O   UNL     1      -7.429  14.771  23.309  0.00  0.00    +0.000 OA
ENDBRANCH   1  28
BRANCH   5  29
ATOM     29  O   UNL     1      -5.286  17.230  21.476  0.00  0.00    +0.000 OA
ATOM     30  H   UNL     1      -4.865  18.033  21.852  0.00  0.00    +0.000 HD
ENDBRANCH   5  29
BRANCH   8  31
ATOM     31  O   UNL     1      -7.714  12.722  19.711  0.00  0.00    +0.000 OA
ATOM     32  H   UNL     1      -7.269  12.983  18.879  0.00  0.00    +0.000 HD
ENDBRANCH   8  31
BRANCH  14  33
ATOM     33  O   UNL     1      -1.408  11.653  20.684  0.00  0.00    +0.000 OA
ATOM     34  H   UNL     1      -1.431  11.765  19.714  0.00  0.00    +0.000 HD
ENDBRANCH  14  33
BRANCH  21  35
ATOM     35  O   UNL     1      -4.537  12.104  24.025  0.00  0.00    +0.000 OA
ATOM     36  H   UNL     1      -4.030  11.277  24.157  0.00  0.00    +0.000 HD
ENDBRANCH  21  35
TORSDOF 6
ENDMDL
MODEL 6
REMARK VINA RESULT:      -5.1      1.932      6.027
REMARK  Name = 
REMARK  11 active torsions:
REMARK  status: ('A' for Active; 'I' for Inactive)
REMARK    1  A    between atoms: C_1  and  O_2
REMARK    2  A    between atoms: O_2  and  C_3
REMARK    3  A    between atoms: C_7  and  O_8
REMARK    4  A    between atoms: C_10  and  C_11
REMARK    5  A    between atoms: C_11  and  C_12
REMARK    6  A    between atoms: C_11  and  C_13
REMARK    7  A    between atoms: C_11  and  C_14
REMARK    8  A    between atoms: C_15  and  O_16
REMARK    9  A    between atoms: C_22  and  O_23
REMARK   10  A    between atoms: C_24  and  C_25
REMARK   11  A    between atoms: C_30  and  O_31
REMARK                            x       y       z     vdW  Elec       q    Type
REMARK                         _______ _______ _______ _____ _____    ______ ____
ROOT
ATOM      1  C   UNL     1      -5.578  14.514  20.157  0.00  0.00    +0.000 C 
ATOM      2  O   UNL     1      -5.563  13.482  19.173  0.00  0.00    +0.000 OA
ATOM      3  C   UNL     1      -4.632  12.584  19.594  0.00  0.00    +0.000 C 
ATOM      4  O   UNL     1      -3.931  11.908  18.873  0.00  0.00    +0.000 OA
ATOM      5  C   UNL     1      -4.762  12.515  21.088  0.00  0.00    +0.000 C 
ATOM      6  C   UNL     1      -4.975  13.964  21.538  0.00  0.00    +0.000 C 
ATOM      7  C   UNL     1      -5.794  14.124  22.910  0.00  0.00    +0.000 C 
ATOM      8  C   UNL     1      -5.937  15.664  22.934  0.00  0.00    +0.000 C 
ATOM      9  C   UNL     1      -4.490  16.139  22.657  0.00  0.00    +0.000 C 
ATOM     10  O   UNL     1      -3.960  16.115  24.051  0.00  0.00    +0.000 OA
ATOM     11  C   UNL     1      -3.015  15.128  24.170  0.00  0.00    +0.000 C 
ATOM     12  O   UNL     1      -2.684  14.551  25.174  0.00  0.00    +0.000 OA
ATOM     13  C   UNL     1      -2.518  15.044  22.803  0.00  0.00    +0.000 C 
ATOM     14  C   UNL     1      -1.272  14.449  22.286  0.00  0.00    +0.000 C 
ATOM     15  C   UNL     1      -1.278  13.019  21.826  0.00  0.00    +0.000 C 
ATOM     16  C   UNL     1      -1.371  11.993  22.922  0.00  0.00    +0.000 C 
ATOM     17  C   UNL     1      -0.127  13.152  20.874  0.00  0.00    +0.000 C 
ATOM     18  O   UNL     1       0.833  12.424  20.729  0.00  0.00    +0.000 OA
ATOM     19  O   UNL     1      -0.361  14.325  20.159  0.00  0.00    +0.000 OA
ATOM     20  C   UNL     1      -1.210  15.176  20.952  0.00  0.00    +0.000 C 
ATOM     21  C   UNL     1      -2.738  15.278  20.528  0.00  0.00    +0.000 C 
ATOM     22  C   UNL     1      -3.688  15.030  21.815  0.00  0.00    +0.000 C 
ENDROOT
BRANCH   7  23
ATOM     23  C   UNL     1      -6.990  13.244  23.523  0.00  0.00    +0.000 C 
ATOM     24  C   UNL     1      -6.476  12.158  24.525  0.00  0.00    +0.000 C 
ATOM     25  C   UNL     1      -7.916  14.121  24.430  0.00  0.00    +0.000 C 
ATOM     26  C   UNL     1      -7.916  12.621  22.476  0.00  0.00    +0.000 C 
ENDBRANCH   7  23
BRANCH   1  28
ATOM     27  C   UNL     1      -7.791  14.457  19.452  0.00  0.00    +0.000 C 
ATOM     28  O   UNL     1      -6.792  15.229  20.150  0.00  0.00    +0.000 OA
ENDBRANCH   1  28
BRANCH   5  29
ATOM     29  O   UNL     1      -5.962  11.723  21.161  0.00  0.00    +0.000 OA
ATOM     30  H   UNL     1      -6.530  11.895  20.380  0.00  0.00    +0.000 HD
ENDBRANCH   5  29
BRANCH   8  31
ATOM     31  O   UNL     1      -6.396  16.209  24.164  0.00  0.00    +0.000 OA
ATOM     32  H   UNL     1      -5.783  16.930  24.410  0.00  0.00    +0.000 HD
ENDBRANCH   8  31
BRANCH  14  33
ATOM     33  O   UNL     1      -0.171  14.789  23.121  0.00  0.00    +0.000 OA
ATOM     34  H   UNL     1      -0.183  15.734  23.365  0.00  0.00    +0.000 HD
ENDBRANCH  14  33
BRANCH  21  35
ATOM     35  O   UNL     1      -3.022  16.548  19.969  0.00  0.00    +0.000 OA
ATOM     36  H   UNL     1      -3.942  16.538  19.638  0.00  0.00    +0.000 HD
ENDBRANCH  21  35
TORSDOF 6
ENDMDL
MODEL 7
REMARK VINA RESULT:      -5.1      8.491     12.417
REMARK  Name = 
REMARK  11 active torsions:
REMARK  status: ('A' for Active; 'I' for Inactive)
REMARK    1  A    between atoms: C_1  and  O_2
REMARK    2  A    between atoms: O_2  and  C_3
REMARK    3  A    between atoms: C_7  and  O_8
REMARK    4  A    between atoms: C_10  and  C_11
REMARK    5  A    between atoms: C_11  and  C_12
REMARK    6  A    between atoms: C_11  and  C_13
REMARK    7  A    between atoms: C_11  and  C_14
REMARK    8  A    between atoms: C_15  and  O_16
REMARK    9  A    between atoms: C_22  and  O_23
REMARK   10  A    between atoms: C_24  and  C_25
REMARK   11  A    between atoms: C_30  and  O_31
REMARK                            x       y       z     vdW  Elec       q    Type
REMARK                         _______ _______ _______ _____ _____    ______ ____
ROOT
ATOM      1  C   UNL     1       8.754  17.371  21.139  0.00  0.00    +0.000 C 
ATOM      2  O   UNL     1       8.506  18.181  19.993  0.00  0.00    +0.000 OA
ATOM      3  C   UNL     1       8.374  17.317  18.951  0.00  0.00    +0.000 C 
ATOM      4  O   UNL     1       8.696  17.543  17.805  0.00  0.00    +0.000 OA
ATOM      5  C   UNL     1       7.640  16.123  19.487  0.00  0.00    +0.000 C 
ATOM      6  C   UNL     1       8.240  15.874  20.875  0.00  0.00    +0.000 C 
ATOM      7  C   UNL     1       7.249  15.154  21.913  0.00  0.00    +0.000 C 
ATOM      8  C   UNL     1       8.126  15.229  23.184  0.00  0.00    +0.000 C 
ATOM      9  C   UNL     1       9.490  14.696  22.683  0.00  0.00    +0.000 C 
ATOM     10  O   UNL     1       9.258  13.234  22.867  0.00  0.00    +0.000 OA
ATOM     11  C   UNL     1       9.201  12.617  21.644  0.00  0.00    +0.000 C 
ATOM     12  O   UNL     1       8.644  11.585  21.372  0.00  0.00    +0.000 OA
ATOM     13  C   UNL     1      10.027  13.506  20.838  0.00  0.00    +0.000 C 
ATOM     14  C   UNL     1      10.675  13.270  19.535  0.00  0.00    +0.000 C 
ATOM     15  C   UNL     1       9.948  13.645  18.275  0.00  0.00    +0.000 C 
ATOM     16  C   UNL     1       8.789  12.755  17.915  0.00  0.00    +0.000 C 
ATOM     17  C   UNL     1      11.174  13.836  17.433  0.00  0.00    +0.000 C 
ATOM     18  O   UNL     1      11.399  13.438  16.309  0.00  0.00    +0.000 OA
ATOM     19  O   UNL     1      12.057  14.581  18.213  0.00  0.00    +0.000 OA
ATOM     20  C   UNL     1      11.720  14.374  19.598  0.00  0.00    +0.000 C 
ATOM     21  C   UNL     1      10.954  15.550  20.343  0.00  0.00    +0.000 C 
ATOM     22  C   UNL     1       9.651  14.966  21.107  0.00  0.00    +0.000 C 
ENDROOT
BRANCH   7  23
ATOM     23  C   UNL     1       5.656  15.263  22.085  0.00  0.00    +0.000 C 
ATOM     24  C   UNL     1       4.882  14.682  20.855  0.00  0.00    +0.000 C 
ATOM     25  C   UNL     1       5.159  14.346  23.253  0.00  0.00    +0.000 C 
ATOM     26  C   UNL     1       5.153  16.668  22.428  0.00  0.00    +0.000 C 
ENDBRANCH   7  23
BRANCH   1  28
ATOM     27  C   UNL     1       9.603  18.630  22.897  0.00  0.00    +0.000 C 
ATOM     28  O   UNL     1       8.416  18.034  22.336  0.00  0.00    +0.000 OA
ENDBRANCH   1  28
BRANCH   5  29
ATOM     29  O   UNL     1       6.319  16.692  19.542  0.00  0.00    +0.000 OA
ATOM     30  H   UNL     1       5.643  15.997  19.390  0.00  0.00    +0.000 HD
ENDBRANCH   5  29
BRANCH   8  31
ATOM     31  O   UNL     1       7.674  14.441  24.278  0.00  0.00    +0.000 OA
ATOM     32  H   UNL     1       7.155  13.699  23.908  0.00  0.00    +0.000 HD
ENDBRANCH   8  31
BRANCH  14  33
ATOM     33  O   UNL     1      11.276  11.981  19.501  0.00  0.00    +0.000 OA
ATOM     34  H   UNL     1      11.969  11.924  18.815  0.00  0.00    +0.000 HD
ENDBRANCH  14  33
BRANCH  21  35
ATOM     35  O   UNL     1      11.802  16.189  21.279  0.00  0.00    +0.000 OA
ATOM     36  H   UNL     1      12.687  15.776  21.222  0.00  0.00    +0.000 HD
ENDBRANCH  21  35
TORSDOF 6
ENDMDL
MODEL 8
REMARK VINA RESULT:      -5.1      2.059      6.079
REMARK  Name = 
REMARK  11 active torsions:
REMARK  status: ('A' for Active; 'I' for Inactive)
REMARK    1  A    between atoms: C_1  and  O_2
REMARK    2  A    between atoms: O_2  and  C_3
REMARK    3  A    between atoms: C_7  and  O_8
REMARK    4  A    between atoms: C_10  and  C_11
REMARK    5  A    between atoms: C_11  and  C_12
REMARK    6  A    between atoms: C_11  and  C_13
REMARK    7  A    between atoms: C_11  and  C_14
REMARK    8  A    between atoms: C_15  and  O_16
REMARK    9  A    between atoms: C_22  and  O_23
REMARK   10  A    between atoms: C_24  and  C_25
REMARK   11  A    between atoms: C_30  and  O_31
REMARK                            x       y       z     vdW  Elec       q    Type
REMARK                         _______ _______ _______ _____ _____    ______ ____
ROOT
ATOM      1  C   UNL     1      -2.325  16.734  22.643  0.00  0.00    +0.000 C 
ATOM      2  O   UNL     1      -2.389  17.806  21.706  0.00  0.00    +0.000 OA
ATOM      3  C   UNL     1      -1.940  17.295  20.529  0.00  0.00    +0.000 C 
ATOM      4  O   UNL     1      -1.332  17.912  19.680  0.00  0.00    +0.000 OA
ATOM      5  C   UNL     1      -2.466  15.892  20.452  0.00  0.00    +0.000 C 
ATOM      6  C   UNL     1      -2.310  15.329  21.869  0.00  0.00    +0.000 C 
ATOM      7  C   UNL     1      -3.359  14.173  22.248  0.00  0.00    +0.000 C 
ATOM      8  C   UNL     1      -2.999  13.995  23.742  0.00  0.00    +0.000 C 
ATOM      9  C   UNL     1      -1.457  13.871  23.703  0.00  0.00    +0.000 C 
ATOM     10  O   UNL     1      -1.342  12.405  23.447  0.00  0.00    +0.000 OA
ATOM     11  C   UNL     1      -0.829  12.195  22.193  0.00  0.00    +0.000 C 
ATOM     12  O   UNL     1      -0.972  11.220  21.500  0.00  0.00    +0.000 OA
ATOM     13  C   UNL     1      -0.051  13.409  21.994  0.00  0.00    +0.000 C 
ATOM     14  C   UNL     1       1.026  13.694  21.029  0.00  0.00    +0.000 C 
ATOM     15  C   UNL     1       0.680  14.315  19.706  0.00  0.00    +0.000 C 
ATOM     16  C   UNL     1      -0.018  13.404  18.733  0.00  0.00    +0.000 C 
ATOM     17  C   UNL     1       2.017  14.952  19.472  0.00  0.00    +0.000 C 
ATOM     18  O   UNL     1       2.694  14.961  18.466  0.00  0.00    +0.000 OA
ATOM     19  O   UNL     1       2.366  15.554  20.680  0.00  0.00    +0.000 OA
ATOM     20  C   UNL     1       1.662  14.879  21.740  0.00  0.00    +0.000 C 
ATOM     21  C   UNL     1       0.411  15.628  22.374  0.00  0.00    +0.000 C 
ATOM     22  C   UNL     1      -0.866  14.635  22.418  0.00  0.00    +0.000 C 
ENDROOT
BRANCH   7  23
ATOM     23  C   UNL     1      -4.889  13.964  21.808  0.00  0.00    +0.000 C 
ATOM     24  C   UNL     1      -5.018  13.372  20.366  0.00  0.00    +0.000 C 
ATOM     25  C   UNL     1      -5.573  12.861  22.683  0.00  0.00    +0.000 C 
ATOM     26  C   UNL     1      -5.766  15.210  21.964  0.00  0.00    +0.000 C 
ENDBRANCH   7  23
BRANCH   1  28
ATOM     27  C   UNL     1      -2.460  17.493  24.835  0.00  0.00    +0.000 C 
ATOM     28  O   UNL     1      -3.200  16.933  23.730  0.00  0.00    +0.000 OA
ENDBRANCH   1  28
BRANCH   5  29
ATOM     29  O   UNL     1      -3.832  16.194  20.117  0.00  0.00    +0.000 OA
ATOM     30  H   UNL     1      -3.877  17.015  19.581  0.00  0.00    +0.000 HD
ENDBRANCH   5  29
BRANCH   8  31
ATOM     31  O   UNL     1      -3.559  12.846  24.365  0.00  0.00    +0.000 OA
ATOM     32  H   UNL     1      -3.389  12.083  23.778  0.00  0.00    +0.000 HD
ENDBRANCH   8  31
BRANCH  14  33
ATOM     33  O   UNL     1       1.923  12.593  20.940  0.00  0.00    +0.000 OA
ATOM     34  H   UNL     1       1.537  11.855  20.429  0.00  0.00    +0.000 HD
ENDBRANCH  14  33
BRANCH  21  35
ATOM     35  O   UNL     1       0.706  16.077  23.684  0.00  0.00    +0.000 OA
ATOM     36  H   UNL     1       1.663  16.277  23.732  0.00  0.00    +0.000 HD
ENDBRANCH  21  35
TORSDOF 6
ENDMDL
MODEL 9
REMARK VINA RESULT:      -5.0      1.844      3.336
REMARK  Name = 
REMARK  11 active torsions:
REMARK  status: ('A' for Active; 'I' for Inactive)
REMARK    1  A    between atoms: C_1  and  O_2
REMARK    2  A    between atoms: O_2  and  C_3
REMARK    3  A    between atoms: C_7  and  O_8
REMARK    4  A    between atoms: C_10  and  C_11
REMARK    5  A    between atoms: C_11  and  C_12
REMARK    6  A    between atoms: C_11  and  C_13
REMARK    7  A    between atoms: C_11  and  C_14
REMARK    8  A    between atoms: C_15  and  O_16
REMARK    9  A    between atoms: C_22  and  O_23
REMARK   10  A    between atoms: C_24  and  C_25
REMARK   11  A    between atoms: C_30  and  O_31
REMARK                            x       y       z     vdW  Elec       q    Type
REMARK                         _______ _______ _______ _____ _____    ______ ____
ROOT
ATOM      1  C   UNL     1      -1.257  12.415  22.863  0.00  0.00    +0.000 C 
ATOM      2  O   UNL     1      -2.518  11.759  22.967  0.00  0.00    +0.000 OA
ATOM      3  C   UNL     1      -3.408  12.566  22.329  0.00  0.00    +0.000 C 
ATOM      4  O   UNL     1      -4.576  12.698  22.626  0.00  0.00    +0.000 OA
ATOM      5  C   UNL     1      -2.687  13.125  21.137  0.00  0.00    +0.000 C 
ATOM      6  C   UNL     1      -1.277  13.454  21.640  0.00  0.00    +0.000 C 
ATOM      7  C   UNL     1      -0.138  13.411  20.510  0.00  0.00    +0.000 C 
ATOM      8  C   UNL     1       1.106  13.623  21.405  0.00  0.00    +0.000 C 
ATOM      9  C   UNL     1       0.696  14.845  22.263  0.00  0.00    +0.000 C 
ATOM     10  O   UNL     1       1.113  15.938  21.337  0.00  0.00    +0.000 OA
ATOM     11  C   UNL     1       0.004  16.599  20.874  0.00  0.00    +0.000 C 
ATOM     12  O   UNL     1      -0.099  17.224  19.850  0.00  0.00    +0.000 OA
ATOM     13  C   UNL     1      -0.934  16.383  21.967  0.00  0.00    +0.000 C 
ATOM     14  C   UNL     1      -2.182  17.095  22.295  0.00  0.00    +0.000 C 
ATOM     15  C   UNL     1      -3.486  16.577  21.758  0.00  0.00    +0.000 C 
ATOM     16  C   UNL     1      -3.699  16.783  20.283  0.00  0.00    +0.000 C 
ATOM     17  C   UNL     1      -4.348  17.161  22.837  0.00  0.00    +0.000 C 
ATOM     18  O   UNL     1      -5.393  17.769  22.734  0.00  0.00    +0.000 OA
ATOM     19  O   UNL     1      -3.698  16.878  24.036  0.00  0.00    +0.000 OA
ATOM     20  C   UNL     1      -2.298  16.690  23.757  0.00  0.00    +0.000 C 
ATOM     21  C   UNL     1      -1.750  15.198  23.758  0.00  0.00    +0.000 C 
ATOM     22  C   UNL     1      -0.903  14.916  22.408  0.00  0.00    +0.000 C 
ENDROOT
BRANCH   7  23
ATOM     23  C   UNL     1       0.015  12.475  19.214  0.00  0.00    +0.000 C 
ATOM     24  C   UNL     1      -1.010  12.842  18.090  0.00  0.00    +0.000 C 
ATOM     25  C   UNL     1       1.388  12.727  18.505  0.00  0.00    +0.000 C 
ATOM     26  C   UNL     1      -0.020  10.974  19.511  0.00  0.00    +0.000 C 
ENDBRANCH   7  23
BRANCH   1  28
ATOM     27  C   UNL     1      -0.701  10.173  23.107  0.00  0.00    +0.000 C 
ATOM     28  O   UNL     1      -0.182  11.515  23.008  0.00  0.00    +0.000 OA
ENDBRANCH   1  28
BRANCH   5  29
ATOM     29  O   UNL     1      -2.724  11.956  20.298  0.00  0.00    +0.000 OA
ATOM     30  H   UNL     1      -2.184  12.099  19.492  0.00  0.00    +0.000 HD
ENDBRANCH   5  29
BRANCH   8  31
ATOM     31  O   UNL     1       2.311  13.907  20.708  0.00  0.00    +0.000 OA
ATOM     32  H   UNL     1       2.856  13.095  20.723  0.00  0.00    +0.000 HD
ENDBRANCH   8  31
BRANCH  14  33
ATOM     33  O   UNL     1      -2.009  18.500  22.152  0.00  0.00    +0.000 OA
ATOM     34  H   UNL     1      -2.444  18.991  22.876  0.00  0.00    +0.000 HD
ENDBRANCH  14  33
BRANCH  21  35
ATOM     35  O   UNL     1      -0.929  14.964  24.888  0.00  0.00    +0.000 OA
ATOM     36  H   UNL     1      -0.435  15.786  25.082  0.00  0.00    +0.000 HD
ENDBRANCH  21  35
TORSDOF 6
ENDMDL
