MODEL 1
REMARK VINA RESULT:      -7.8      0.000      0.000
REMARK  Name = 
REMARK  8 active torsions:
REMARK  status: ('A' for Active; 'I' for Inactive)
REMARK    1  A    between atoms: C_1  and  O_2
REMARK    2  A    between atoms: O_2  and  C_3
REMARK    3  A    between atoms: C_5  and  C_6
REMARK    4  A    between atoms: N_7  and  N_8
REMARK    5  A    between atoms: N_8  and  C_9
REMARK    6  A    between atoms: C_20  and  O_21
REMARK    7  A    between atoms: O_21  and  C_22
REMARK    8  A    between atoms: C_23  and  O_24
REMARK                            x       y       z     vdW  Elec       q    Type
REMARK                         _______ _______ _______ _____ _____    ______ ____
ROOT
ATOM      1  C   UNL     1       4.023   3.526  17.001  0.00  0.00    +0.000 C 
ATOM      2  N   UNL     1       2.783   3.628  16.649  0.00  0.00    +0.000 NA
ENDROOT
BRANCH   1   5
ATOM      3  C   UNL     1       6.390   4.140  14.111  0.00  0.00    +0.000 A 
ATOM      4  C   UNL     1       5.347   3.615  14.885  0.00  0.00    +0.000 A 
ATOM      5  C   UNL     1       5.099   4.103  16.167  0.00  0.00    +0.000 A 
ATOM      6  C   UNL     1       5.878   5.137  16.673  0.00  0.00    +0.000 A 
ATOM      7  C   UNL     1       6.931   5.686  15.922  0.00  0.00    +0.000 A 
ATOM      8  C   UNL     1       7.197   5.168  14.640  0.00  0.00    +0.000 A 
BRANCH   3  10
ATOM      9  C   UNL     1       5.285   3.402  12.101  0.00  0.00    +0.000 C 
ATOM     10  O   UNL     1       6.460   3.538  12.882  0.00  0.00    +0.000 OA
ENDBRANCH   3  10
BRANCH   7  11
ATOM     11  O   UNL     1       7.561   6.677  16.624  0.00  0.00    +0.000 OA
ATOM     12  C   UNL     1       7.569   6.700  18.038  0.00  0.00    +0.000 C 
ENDBRANCH   7  11
BRANCH   8  13
ATOM     13  O   UNL     1       8.252   5.614  13.895  0.00  0.00    +0.000 OA
ATOM     14  H   UNL     1       8.605   4.861  13.402  0.00  0.00    +0.000 HD
ENDBRANCH   8  13
ENDBRANCH   1   5
BRANCH   2  15
ATOM     15  N   UNL     1       1.886   3.046  17.483  0.00  0.00    +0.000 N 
ATOM     16  H   UNL     1       1.761   2.032  17.416  0.00  0.00    +0.000 HD
BRANCH  15  17
ATOM     17  C   UNL     1       1.929   3.500  18.828  0.00  0.00    +0.000 A 
ATOM     18  C   UNL     1       1.936   4.854  19.183  0.00  0.00    +0.000 A 
ATOM     19  F   UNL     1       1.900   5.828  18.260  0.00  0.00    +0.000 F 
ATOM     20  C   UNL     1       1.955   5.201  20.529  0.00  0.00    +0.000 A 
ATOM     21  F   UNL     1       1.965   6.502  20.857  0.00  0.00    +0.000 F 
ATOM     22  N   UNL     1       1.955   4.313  21.547  0.00  0.00    +0.000 NA
ATOM     23  C   UNL     1       1.919   3.014  21.186  0.00  0.00    +0.000 A 
ATOM     24  F   UNL     1       1.910   2.106  22.174  0.00  0.00    +0.000 F 
ATOM     25  C   UNL     1       1.893   2.570  19.870  0.00  0.00    +0.000 A 
ATOM     26  F   UNL     1       1.857   1.257  19.597  0.00  0.00    +0.000 F 
ENDBRANCH  15  17
ENDBRANCH   2  15
TORSDOF 6
ENDMDL
MODEL 2
REMARK VINA RESULT:      -7.7      0.220      2.701
REMARK  Name = 
REMARK  8 active torsions:
REMARK  status: ('A' for Active; 'I' for Inactive)
REMARK    1  A    between atoms: C_1  and  O_2
REMARK    2  A    between atoms: O_2  and  C_3
REMARK    3  A    between atoms: C_5  and  C_6
REMARK    4  A    between atoms: N_7  and  N_8
REMARK    5  A    between atoms: N_8  and  C_9
REMARK    6  A    between atoms: C_20  and  O_21
REMARK    7  A    between atoms: O_21  and  C_22
REMARK    8  A    between atoms: C_23  and  O_24
REMARK                            x       y       z     vdW  Elec       q    Type
REMARK                         _______ _______ _______ _____ _____    ______ ____
ROOT
ATOM      1  C   UNL     1       4.035   3.528  16.975  0.00  0.00    +0.000 C 
ATOM      2  N   UNL     1       2.806   3.607  16.580  0.00  0.00    +0.000 NA
ENDROOT
BRANCH   1   5
ATOM      3  C   UNL     1       7.010   5.570  15.832  0.00  0.00    +0.000 A 
ATOM      4  C   UNL     1       5.991   5.043  16.635  0.00  0.00    +0.000 A 
ATOM      5  C   UNL     1       5.135   4.059  16.143  0.00  0.00    +0.000 A 
ATOM      6  C   UNL     1       5.310   3.579  14.850  0.00  0.00    +0.000 A 
ATOM      7  C   UNL     1       6.323   4.085  14.019  0.00  0.00    +0.000 A 
ATOM      8  C   UNL     1       7.165   5.101  14.511  0.00  0.00    +0.000 A 
BRANCH   3  10
ATOM      9  C   UNL     1       7.145   7.258  17.546  0.00  0.00    +0.000 C 
ATOM     10  O   UNL     1       7.747   6.512  16.501  0.00  0.00    +0.000 OA
ENDBRANCH   3  10
BRANCH   7  11
ATOM     11  O   UNL     1       6.297   3.474  12.795  0.00  0.00    +0.000 OA
ATOM     12  C   UNL     1       5.089   3.279  12.085  0.00  0.00    +0.000 C 
ENDBRANCH   7  11
BRANCH   8  13
ATOM     13  O   UNL     1       8.119   5.680  13.724  0.00  0.00    +0.000 OA
ATOM     14  H   UNL     1       8.940   5.717  14.233  0.00  0.00    +0.000 HD
ENDBRANCH   8  13
ENDBRANCH   1   5
BRANCH   2  15
ATOM     15  N   UNL     1       1.884   3.072  17.418  0.00  0.00    +0.000 N 
ATOM     16  H   UNL     1       1.719   2.063  17.362  0.00  0.00    +0.000 HD
BRANCH  15  17
ATOM     17  C   UNL     1       1.940   3.541  18.757  0.00  0.00    +0.000 A 
ATOM     18  C   UNL     1       1.957   4.899  19.097  0.00  0.00    +0.000 A 
ATOM     19  F   UNL     1       1.919   5.862  18.163  0.00  0.00    +0.000 F 
ATOM     20  C   UNL     1       1.989   5.261  20.438  0.00  0.00    +0.000 A 
ATOM     21  F   UNL     1       2.009   6.565  20.752  0.00  0.00    +0.000 F 
ATOM     22  N   UNL     1       1.993   4.384  21.467  0.00  0.00    +0.000 NA
ATOM     23  C   UNL     1       1.948   3.082  21.121  0.00  0.00    +0.000 A 
ATOM     24  F   UNL     1       1.942   2.184  22.118  0.00  0.00    +0.000 F 
ATOM     25  C   UNL     1       1.909   2.623  19.810  0.00  0.00    +0.000 A 
ATOM     26  F   UNL     1       1.864   1.307  19.552  0.00  0.00    +0.000 F 
ENDBRANCH  15  17
ENDBRANCH   2  15
TORSDOF 6
ENDMDL
MODEL 3
REMARK VINA RESULT:      -7.6      4.172      5.857
REMARK  Name = 
REMARK  8 active torsions:
REMARK  status: ('A' for Active; 'I' for Inactive)
REMARK    1  A    between atoms: C_1  and  O_2
REMARK    2  A    between atoms: O_2  and  C_3
REMARK    3  A    between atoms: C_5  and  C_6
REMARK    4  A    between atoms: N_7  and  N_8
REMARK    5  A    between atoms: N_8  and  C_9
REMARK    6  A    between atoms: C_20  and  O_21
REMARK    7  A    between atoms: O_21  and  C_22
REMARK    8  A    between atoms: C_23  and  O_24
REMARK                            x       y       z     vdW  Elec       q    Type
REMARK                         _______ _______ _______ _____ _____    ______ ____
ROOT
ATOM      1  C   UNL     1       2.532   7.022  18.291  0.00  0.00    +0.000 C 
ATOM      2  N   UNL     1       2.522   8.311  18.402  0.00  0.00    +0.000 NA
ENDROOT
BRANCH   1   5
ATOM      3  C   UNL     1       5.146   4.334  18.812  0.00  0.00    +0.000 A 
ATOM      4  C   UNL     1       3.927   5.024  18.836  0.00  0.00    +0.000 A 
ATOM      5  C   UNL     1       3.806   6.275  18.234  0.00  0.00    +0.000 A 
ATOM      6  C   UNL     1       4.900   6.833  17.582  0.00  0.00    +0.000 A 
ATOM      7  C   UNL     1       6.135   6.167  17.538  0.00  0.00    +0.000 A 
ATOM      8  C   UNL     1       6.260   4.918  18.175  0.00  0.00    +0.000 A 
BRANCH   3  10
ATOM      9  C   UNL     1       3.888   2.333  19.280  0.00  0.00    +0.000 C 
ATOM     10  O   UNL     1       5.055   3.122  19.444  0.00  0.00    +0.000 OA
ENDBRANCH   3  10
BRANCH   7  11
ATOM     11  O   UNL     1       7.061   6.908  16.855  0.00  0.00    +0.000 OA
ATOM     12  C   UNL     1       7.736   7.996  17.457  0.00  0.00    +0.000 C 
ENDBRANCH   7  11
BRANCH   8  13
ATOM     13  O   UNL     1       7.456   4.259  18.226  0.00  0.00    +0.000 OA
ATOM     14  H   UNL     1       7.367   3.534  18.859  0.00  0.00    +0.000 HD
ENDBRANCH   8  13
ENDBRANCH   1   5
BRANCH   2  15
ATOM     15  N   UNL     1       1.296   8.889  18.428  0.00  0.00    +0.000 N 
ATOM     16  H   UNL     1       0.500   8.333  18.102  0.00  0.00    +0.000 HD
BRANCH  15  17
ATOM     17  C   UNL     1       0.998   9.624  19.606  0.00  0.00    +0.000 A 
ATOM     18  C   UNL     1       0.781   9.025  20.852  0.00  0.00    +0.000 A 
ATOM     19  F   UNL     1       0.843   7.694  21.018  0.00  0.00    +0.000 F 
ATOM     20  C   UNL     1       0.519   9.830  21.954  0.00  0.00    +0.000 A 
ATOM     21  F   UNL     1       0.308   9.244  23.142  0.00  0.00    +0.000 F 
ATOM     22  N   UNL     1       0.467  11.179  21.920  0.00  0.00    +0.000 NA
ATOM     23  C   UNL     1       0.708  11.740  20.717  0.00  0.00    +0.000 A 
ATOM     24  F   UNL     1       0.673  13.080  20.649  0.00  0.00    +0.000 F 
ATOM     25  C   UNL     1       0.983  11.020  19.561  0.00  0.00    +0.000 A 
ATOM     26  F   UNL     1       1.212  11.657  18.403  0.00  0.00    +0.000 F 
ENDBRANCH  15  17
ENDBRANCH   2  15
TORSDOF 6
ENDMDL
MODEL 4
REMARK VINA RESULT:      -7.5      0.289      3.452
REMARK  Name = 
REMARK  8 active torsions:
REMARK  status: ('A' for Active; 'I' for Inactive)
REMARK    1  A    between atoms: C_1  and  O_2
REMARK    2  A    between atoms: O_2  and  C_3
REMARK    3  A    between atoms: C_5  and  C_6
REMARK    4  A    between atoms: N_7  and  N_8
REMARK    5  A    between atoms: N_8  and  C_9
REMARK    6  A    between atoms: C_20  and  O_21
REMARK    7  A    between atoms: O_21  and  C_22
REMARK    8  A    between atoms: C_23  and  O_24
REMARK                            x       y       z     vdW  Elec       q    Type
REMARK                         _______ _______ _______ _____ _____    ______ ____
ROOT
ATOM      1  C   UNL     1       4.096   3.453  16.777  0.00  0.00    +0.000 C 
ATOM      2  N   UNL     1       2.905   3.952  16.695  0.00  0.00    +0.000 NA
ENDROOT
BRANCH   1   5
ATOM      3  C   UNL     1       7.076   5.559  15.771  0.00  0.00    +0.000 A 
ATOM      4  C   UNL     1       6.042   4.999  16.531  0.00  0.00    +0.000 A 
ATOM      5  C   UNL     1       5.211   4.019  15.990  0.00  0.00    +0.000 A 
ATOM      6  C   UNL     1       5.427   3.576  14.690  0.00  0.00    +0.000 A 
ATOM      7  C   UNL     1       6.456   4.116  13.901  0.00  0.00    +0.000 A 
ATOM      8  C   UNL     1       7.271   5.127  14.442  0.00  0.00    +0.000 A 
BRANCH   3  10
ATOM      9  C   UNL     1       7.297   6.921  17.745  0.00  0.00    +0.000 C 
ATOM     10  O   UNL     1       7.783   6.491  16.485  0.00  0.00    +0.000 OA
ENDBRANCH   3  10
BRANCH   7  11
ATOM     11  O   UNL     1       6.470   3.538  12.661  0.00  0.00    +0.000 OA
ATOM     12  C   UNL     1       5.277   3.170  11.995  0.00  0.00    +0.000 C 
ENDBRANCH   7  11
BRANCH   8  13
ATOM     13  O   UNL     1       8.239   5.739  13.697  0.00  0.00    +0.000 OA
ATOM     14  H   UNL     1       8.975   5.954  14.287  0.00  0.00    +0.000 HD
ENDBRANCH   8  13
ENDBRANCH   1   5
BRANCH   2  15
ATOM     15  N   UNL     1       1.959   3.341  17.450  0.00  0.00    +0.000 N 
ATOM     16  H   UNL     1       1.776   2.349  17.274  0.00  0.00    +0.000 HD
BRANCH  15  17
ATOM     17  C   UNL     1       2.001   3.647  18.837  0.00  0.00    +0.000 A 
ATOM     18  C   UNL     1       2.196   2.681  19.832  0.00  0.00    +0.000 A 
ATOM     19  F   UNL     1       2.360   1.382  19.535  0.00  0.00    +0.000 F 
ATOM     20  C   UNL     1       2.245   3.080  21.162  0.00  0.00    +0.000 A 
ATOM     21  F   UNL     1       2.428   2.146  22.107  0.00  0.00    +0.000 F 
ATOM     22  N   UNL     1       2.129   4.360  21.581  0.00  0.00    +0.000 NA
ATOM     23  C   UNL     1       1.971   5.278  20.606  0.00  0.00    +0.000 A 
ATOM     24  F   UNL     1       1.861   6.560  20.988  0.00  0.00    +0.000 F 
ATOM     25  C   UNL     1       1.914   4.978  19.252  0.00  0.00    +0.000 A 
ATOM     26  F   UNL     1       1.756   5.954  18.345  0.00  0.00    +0.000 F 
ENDBRANCH  15  17
ENDBRANCH   2  15
TORSDOF 6
ENDMDL
MODEL 5
REMARK VINA RESULT:      -7.5      4.533      6.426
REMARK  Name = 
REMARK  8 active torsions:
REMARK  status: ('A' for Active; 'I' for Inactive)
REMARK    1  A    between atoms: C_1  and  O_2
REMARK    2  A    between atoms: O_2  and  C_3
REMARK    3  A    between atoms: C_5  and  C_6
REMARK    4  A    between atoms: N_7  and  N_8
REMARK    5  A    between atoms: N_8  and  C_9
REMARK    6  A    between atoms: C_20  and  O_21
REMARK    7  A    between atoms: O_21  and  C_22
REMARK    8  A    between atoms: C_23  and  O_24
REMARK                            x       y       z     vdW  Elec       q    Type
REMARK                         _______ _______ _______ _____ _____    ______ ____
ROOT
ATOM      1  C   UNL     1       2.580   7.029  18.463  0.00  0.00    +0.000 C 
ATOM      2  N   UNL     1       2.058   7.741  19.409  0.00  0.00    +0.000 NA
ENDROOT
BRANCH   1   5
ATOM      3  C   UNL     1       3.067   3.383  19.353  0.00  0.00    +0.000 A 
ATOM      4  C   UNL     1       2.454   4.603  19.040  0.00  0.00    +0.000 A 
ATOM      5  C   UNL     1       3.222   5.731  18.757  0.00  0.00    +0.000 A 
ATOM      6  C   UNL     1       4.610   5.638  18.762  0.00  0.00    +0.000 A 
ATOM      7  C   UNL     1       5.254   4.429  19.070  0.00  0.00    +0.000 A 
ATOM      8  C   UNL     1       4.474   3.301  19.386  0.00  0.00    +0.000 A 
BRANCH   3  10
ATOM      9  C   UNL     1       0.899   2.430  18.906  0.00  0.00    +0.000 C 
ATOM     10  O   UNL     1       2.143   2.397  19.586  0.00  0.00    +0.000 OA
ENDBRANCH   3  10
BRANCH   7  11
ATOM     11  O   UNL     1       6.614   4.580  19.024  0.00  0.00    +0.000 OA
ATOM     12  C   UNL     1       7.301   4.775  17.803  0.00  0.00    +0.000 C 
ENDBRANCH   7  11
BRANCH   8  13
ATOM     13  O   UNL     1       5.047   2.120  19.764  0.00  0.00    +0.000 OA
ATOM     14  H   UNL     1       5.841   1.991  19.228  0.00  0.00    +0.000 HD
ENDBRANCH   8  13
ENDBRANCH   1   5
BRANCH   2  15
ATOM     15  N   UNL     1       1.511   8.920  19.023  0.00  0.00    +0.000 N 
ATOM     16  H   UNL     1       0.924   8.921  18.184  0.00  0.00    +0.000 HD
BRANCH  15  17
ATOM     17  C   UNL     1       0.961   9.704  20.072  0.00  0.00    +0.000 A 
ATOM     18  C   UNL     1       0.343   9.153  21.201  0.00  0.00    +0.000 A 
ATOM     19  F   UNL     1       0.230   7.825  21.368  0.00  0.00    +0.000 F 
ATOM     20  C   UNL     1      -0.146  10.001  22.187  0.00  0.00    +0.000 A 
ATOM     21  F   UNL     1      -0.739   9.461  23.262  0.00  0.00    +0.000 F 
ATOM     22  N   UNL     1      -0.059  11.349  22.148  0.00  0.00    +0.000 NA
ATOM     23  C   UNL     1       0.565  11.860  21.067  0.00  0.00    +0.000 A 
ATOM     24  F   UNL     1       0.676  13.196  21.001  0.00  0.00    +0.000 F 
ATOM     25  C   UNL     1       1.089  11.094  20.034  0.00  0.00    +0.000 A 
ATOM     26  F   UNL     1       1.697  11.684  18.992  0.00  0.00    +0.000 F 
ENDBRANCH  15  17
ENDBRANCH   2  15
TORSDOF 6
ENDMDL
MODEL 6
REMARK VINA RESULT:      -7.5      0.174      2.140
REMARK  Name = 
REMARK  8 active torsions:
REMARK  status: ('A' for Active; 'I' for Inactive)
REMARK    1  A    between atoms: C_1  and  O_2
REMARK    2  A    between atoms: O_2  and  C_3
REMARK    3  A    between atoms: C_5  and  C_6
REMARK    4  A    between atoms: N_7  and  N_8
REMARK    5  A    between atoms: N_8  and  C_9
REMARK    6  A    between atoms: C_20  and  O_21
REMARK    7  A    between atoms: O_21  and  C_22
REMARK    8  A    between atoms: C_23  and  O_24
REMARK                            x       y       z     vdW  Elec       q    Type
REMARK                         _______ _______ _______ _____ _____    ______ ____
ROOT
ATOM      1  C   UNL     1       4.119   3.448  16.789  0.00  0.00    +0.000 C 
ATOM      2  N   UNL     1       2.886   3.806  16.634  0.00  0.00    +0.000 NA
ENDROOT
BRANCH   1   5
ATOM      3  C   UNL     1       6.495   4.250  13.955  0.00  0.00    +0.000 A 
ATOM      4  C   UNL     1       5.450   3.676  14.689  0.00  0.00    +0.000 A 
ATOM      5  C   UNL     1       5.197   4.078  15.999  0.00  0.00    +0.000 A 
ATOM      6  C   UNL     1       5.975   5.076  16.575  0.00  0.00    +0.000 A 
ATOM      7  C   UNL     1       7.030   5.673  15.866  0.00  0.00    +0.000 A 
ATOM      8  C   UNL     1       7.301   5.241  14.554  0.00  0.00    +0.000 A 
BRANCH   3  10
ATOM      9  C   UNL     1       5.407   3.193  12.083  0.00  0.00    +0.000 C 
ATOM     10  O   UNL     1       6.571   3.731  12.689  0.00  0.00    +0.000 OA
ENDBRANCH   3  10
BRANCH   7  11
ATOM     11  O   UNL     1       7.659   6.615  16.634  0.00  0.00    +0.000 OA
ATOM     12  C   UNL     1       7.406   6.737  18.020  0.00  0.00    +0.000 C 
ENDBRANCH   7  11
BRANCH   8  13
ATOM     13  O   UNL     1       8.359   5.734  13.843  0.00  0.00    +0.000 OA
ATOM     14  H   UNL     1       8.772   6.430  14.372  0.00  0.00    +0.000 HD
ENDBRANCH   8  13
ENDBRANCH   1   5
BRANCH   2  15
ATOM     15  N   UNL     1       1.982   3.148  17.401  0.00  0.00    +0.000 N 
ATOM     16  H   UNL     1       1.902   2.134  17.279  0.00  0.00    +0.000 HD
BRANCH  15  17
ATOM     17  C   UNL     1       1.952   3.535  18.767  0.00  0.00    +0.000 A 
ATOM     18  C   UNL     1       1.902   2.619  19.825  0.00  0.00    +0.000 A 
ATOM     19  F   UNL     1       1.881   1.293  19.613  0.00  0.00    +0.000 F 
ATOM     20  C   UNL     1       1.899   3.093  21.131  0.00  0.00    +0.000 A 
ATOM     21  F   UNL     1       1.847   2.206  22.137  0.00  0.00    +0.000 F 
ATOM     22  N   UNL     1       1.954   4.399  21.470  0.00  0.00    +0.000 NA
ATOM     23  C   UNL     1       2.030   5.265  20.439  0.00  0.00    +0.000 A 
ATOM     24  F   UNL     1       2.095   6.571  20.741  0.00  0.00    +0.000 F 
ATOM     25  C   UNL     1       2.044   4.887  19.103  0.00  0.00    +0.000 A 
ATOM     26  F   UNL     1       2.123   5.815  18.136  0.00  0.00    +0.000 F 
ENDBRANCH  15  17
ENDBRANCH   2  15
TORSDOF 6
ENDMDL
MODEL 7
REMARK VINA RESULT:      -7.4      5.530      8.007
REMARK  Name = 
REMARK  8 active torsions:
REMARK  status: ('A' for Active; 'I' for Inactive)
REMARK    1  A    between atoms: C_1  and  O_2
REMARK    2  A    between atoms: O_2  and  C_3
REMARK    3  A    between atoms: C_5  and  C_6
REMARK    4  A    between atoms: N_7  and  N_8
REMARK    5  A    between atoms: N_8  and  C_9
REMARK    6  A    between atoms: C_20  and  O_21
REMARK    7  A    between atoms: O_21  and  C_22
REMARK    8  A    between atoms: C_23  and  O_24
REMARK                            x       y       z     vdW  Elec       q    Type
REMARK                         _______ _______ _______ _____ _____    ______ ____
ROOT
ATOM      1  C   UNL     1       1.283   7.933  20.966  0.00  0.00    +0.000 C 
ATOM      2  N   UNL     1       1.972   7.426  19.996  0.00  0.00    +0.000 NA
ENDROOT
BRANCH   1   5
ATOM      3  C   UNL     1      -0.571  10.806  19.343  0.00  0.00    +0.000 A 
ATOM      4  C   UNL     1       0.113   9.596  19.517  0.00  0.00    +0.000 A 
ATOM      5  C   UNL     1       0.528   9.190  20.784  0.00  0.00    +0.000 A 
ATOM      6  C   UNL     1       0.238   9.981  21.889  0.00  0.00    +0.000 A 
ATOM      7  C   UNL     1      -0.448  11.199  21.750  0.00  0.00    +0.000 A 
ATOM      8  C   UNL     1      -0.837  11.620  20.464  0.00  0.00    +0.000 A 
BRANCH   3  10
ATOM      9  C   UNL     1      -1.705  10.067  17.350  0.00  0.00    +0.000 C 
ATOM     10  O   UNL     1      -0.902  11.017  18.030  0.00  0.00    +0.000 OA
ENDBRANCH   3  10
BRANCH   7  11
ATOM     11  O   UNL     1      -0.609  11.806  22.965  0.00  0.00    +0.000 OA
ATOM     12  C   UNL     1      -1.891  12.088  23.495  0.00  0.00    +0.000 C 
ENDBRANCH   7  11
BRANCH   8  13
ATOM     13  O   UNL     1      -1.442  12.827  20.260  0.00  0.00    +0.000 OA
ATOM     14  H   UNL     1      -1.086  13.203  19.444  0.00  0.00    +0.000 HD
ENDBRANCH   8  13
ENDBRANCH   1   5
BRANCH   2  15
ATOM     15  N   UNL     1       2.637   6.280  20.284  0.00  0.00    +0.000 N 
ATOM     16  H   UNL     1       2.610   5.943  21.250  0.00  0.00    +0.000 HD
BRANCH  15  17
ATOM     17  C   UNL     1       2.472   5.232  19.339  0.00  0.00    +0.000 A 
ATOM     18  C   UNL     1       3.323   5.043  18.243  0.00  0.00    +0.000 A 
ATOM     19  F   UNL     1       4.367   5.854  18.010  0.00  0.00    +0.000 F 
ATOM     20  C   UNL     1       3.095   3.974  17.385  0.00  0.00    +0.000 A 
ATOM     21  F   UNL     1       3.913   3.806  16.336  0.00  0.00    +0.000 F 
ATOM     22  N   UNL     1       2.100   3.072  17.536  0.00  0.00    +0.000 NA
ATOM     23  C   UNL     1       1.309   3.253  18.613  0.00  0.00    +0.000 A 
ATOM     24  F   UNL     1       0.316   2.369  18.797  0.00  0.00    +0.000 F 
ATOM     25  C   UNL     1       1.461   4.287  19.528  0.00  0.00    +0.000 A 
ATOM     26  F   UNL     1       0.629   4.394  20.576  0.00  0.00    +0.000 F 
ENDBRANCH  15  17
ENDBRANCH   2  15
TORSDOF 6
ENDMDL
MODEL 8
REMARK VINA RESULT:      -7.4      4.607      6.731
REMARK  Name = 
REMARK  8 active torsions:
REMARK  status: ('A' for Active; 'I' for Inactive)
REMARK    1  A    between atoms: C_1  and  O_2
REMARK    2  A    between atoms: O_2  and  C_3
REMARK    3  A    between atoms: C_5  and  C_6
REMARK    4  A    between atoms: N_7  and  N_8
REMARK    5  A    between atoms: N_8  and  C_9
REMARK    6  A    between atoms: C_20  and  O_21
REMARK    7  A    between atoms: O_21  and  C_22
REMARK    8  A    between atoms: C_23  and  O_24
REMARK                            x       y       z     vdW  Elec       q    Type
REMARK                         _______ _______ _______ _____ _____    ______ ____
ROOT
ATOM      1  C   UNL     1       2.492   7.027  18.704  0.00  0.00    +0.000 C 
ATOM      2  N   UNL     1       2.042   7.810  19.631  0.00  0.00    +0.000 NA
ENDROOT
BRANCH   1   5
ATOM      3  C   UNL     1       5.165   4.379  19.113  0.00  0.00    +0.000 A 
ATOM      4  C   UNL     1       4.535   5.595  18.822  0.00  0.00    +0.000 A 
ATOM      5  C   UNL     1       3.169   5.758  19.045  0.00  0.00    +0.000 A 
ATOM      6  C   UNL     1       2.430   4.711  19.585  0.00  0.00    +0.000 A 
ATOM      7  C   UNL     1       3.032   3.480  19.889  0.00  0.00    +0.000 A 
ATOM      8  C   UNL     1       4.406   3.310  19.632  0.00  0.00    +0.000 A 
BRANCH   3  10
ATOM      9  C   UNL     1       6.945   4.903  17.575  0.00  0.00    +0.000 C 
ATOM     10  O   UNL     1       6.507   4.425  18.836  0.00  0.00    +0.000 OA
ENDBRANCH   3  10
BRANCH   7  11
ATOM     11  O   UNL     1       2.112   2.602  20.395  0.00  0.00    +0.000 OA
ATOM     12  C   UNL     1       1.431   2.854  21.609  0.00  0.00    +0.000 C 
ENDBRANCH   7  11
BRANCH   8  13
ATOM     13  O   UNL     1       5.028   2.112  19.840  0.00  0.00    +0.000 OA
ATOM     14  H   UNL     1       4.735   1.502  19.149  0.00  0.00    +0.000 HD
ENDBRANCH   8  13
ENDBRANCH   1   5
BRANCH   2  15
ATOM     15  N   UNL     1       1.456   8.954  19.200  0.00  0.00    +0.000 N 
ATOM     16  H   UNL     1       0.839   8.895  18.384  0.00  0.00    +0.000 HD
BRANCH  15  17
ATOM     17  C   UNL     1       0.925   9.784  20.223  0.00  0.00    +0.000 A 
ATOM     18  C   UNL     1       0.288   9.285  21.365  0.00  0.00    +0.000 A 
ATOM     19  F   UNL     1       0.136   7.967  21.572  0.00  0.00    +0.000 F 
ATOM     20  C   UNL     1      -0.178  10.177  22.324  0.00  0.00    +0.000 A 
ATOM     21  F   UNL     1      -0.790   9.687  23.413  0.00  0.00    +0.000 F 
ATOM     22  N   UNL     1      -0.052  11.519  22.245  0.00  0.00    +0.000 NA
ATOM     23  C   UNL     1       0.590  11.980  21.152  0.00  0.00    +0.000 A 
ATOM     24  F   UNL     1       0.741  13.309  21.046  0.00  0.00    +0.000 F 
ATOM     25  C   UNL     1       1.095  11.168  20.144  0.00  0.00    +0.000 A 
ATOM     26  F   UNL     1       1.723  11.708  19.088  0.00  0.00    +0.000 F 
ENDBRANCH  15  17
ENDBRANCH   2  15
TORSDOF 6
ENDMDL
MODEL 9
REMARK VINA RESULT:      -7.4      4.888      6.490
REMARK  Name = 
REMARK  8 active torsions:
REMARK  status: ('A' for Active; 'I' for Inactive)
REMARK    1  A    between atoms: C_1  and  O_2
REMARK    2  A    between atoms: O_2  and  C_3
REMARK    3  A    between atoms: C_5  and  C_6
REMARK    4  A    between atoms: N_7  and  N_8
REMARK    5  A    between atoms: N_8  and  C_9
REMARK    6  A    between atoms: C_20  and  O_21
REMARK    7  A    between atoms: O_21  and  C_22
REMARK    8  A    between atoms: C_23  and  O_24
REMARK                            x       y       z     vdW  Elec       q    Type
REMARK                         _______ _______ _______ _____ _____    ______ ____
ROOT
ATOM      1  C   UNL     1       2.196   7.777  17.952  0.00  0.00    +0.000 C 
ATOM      2  N   UNL     1       2.435   9.034  17.764  0.00  0.00    +0.000 NA
ENDROOT
BRANCH   1   5
ATOM      3  C   UNL     1       4.189   4.632  18.637  0.00  0.00    +0.000 A 
ATOM      4  C   UNL     1       3.133   5.551  18.590  0.00  0.00    +0.000 A 
ATOM      5  C   UNL     1       3.296   6.789  17.971  0.00  0.00    +0.000 A 
ATOM      6  C   UNL     1       4.511   7.106  17.373  0.00  0.00    +0.000 A 
ATOM      7  C   UNL     1       5.589   6.206  17.402  0.00  0.00    +0.000 A 
ATOM      8  C   UNL     1       5.428   4.970  18.056  0.00  0.00    +0.000 A 
BRANCH   3  10
ATOM      9  C   UNL     1       3.373   2.369  18.511  0.00  0.00    +0.000 C 
ATOM     10  O   UNL     1       3.825   3.475  19.274  0.00  0.00    +0.000 OA
ENDBRANCH   3  10
BRANCH   7  11
ATOM     11  O   UNL     1       6.678   6.734  16.764  0.00  0.00    +0.000 OA
ATOM     12  C   UNL     1       7.638   7.515  17.450  0.00  0.00    +0.000 C 
ENDBRANCH   7  11
BRANCH   8  13
ATOM     13  O   UNL     1       6.464   4.087  18.177  0.00  0.00    +0.000 OA
ATOM     14  H   UNL     1       6.131   3.208  17.952  0.00  0.00    +0.000 HD
ENDBRANCH   8  13
ENDBRANCH   1   5
BRANCH   2  15
ATOM     15  N   UNL     1       1.347   9.843  17.750  0.00  0.00    +0.000 N 
ATOM     16  H   UNL     1       0.446   9.425  17.503  0.00  0.00    +0.000 HD
BRANCH  15  17
ATOM     17  C   UNL     1       1.246  10.740  18.847  0.00  0.00    +0.000 A 
ATOM     18  C   UNL     1       0.581  10.427  20.038  0.00  0.00    +0.000 A 
ATOM     19  F   UNL     1      -0.014   9.237  20.225  0.00  0.00    +0.000 F 
ATOM     20  C   UNL     1       0.556  11.362  21.066  0.00  0.00    +0.000 A 
ATOM     21  F   UNL     1      -0.088  11.052  22.201  0.00  0.00    +0.000 F 
ATOM     22  N   UNL     1       1.147  12.575  21.010  0.00  0.00    +0.000 NA
ATOM     23  C   UNL     1       1.808  12.847  19.866  0.00  0.00    +0.000 A 
ATOM     24  F   UNL     1       2.414  14.041  19.780  0.00  0.00    +0.000 F 
ATOM     25  C   UNL     1       1.893  11.977  18.787  0.00  0.00    +0.000 A 
ATOM     26  F   UNL     1       2.573  12.326  17.684  0.00  0.00    +0.000 F 
ENDBRANCH  15  17
ENDBRANCH   2  15
TORSDOF 6
ENDMDL
