MODEL 1
REMARK VINA RESULT:      -8.5      0.000      0.000
REMARK  Name = 
REMARK  10 active torsions:
REMARK  status: ('A' for Active; 'I' for Inactive)
REMARK    1  A    between atoms: C_1  and  O_2
REMARK    2  A    between atoms: O_2  and  C_3
REMARK    3  A    between atoms: C_3  and  C_5
REMARK    4  A    between atoms: C_5  and  C_6
REMARK    5  A    between atoms: C_6  and  N_7
REMARK    6  A    between atoms: C_6  and  C_19
REMARK    7  A    between atoms: N_7  and  S_8
REMARK    8  A    between atoms: S_8  and  C_11
REMARK    9  A    between atoms: C_14  and  O_15
REMARK   10  A    between atoms: O_15  and  C_16
REMARK                            x       y       z     vdW  Elec       q    Type
REMARK                         _______ _______ _______ _____ _____    ______ ____
ROOT
ATOM      1  C   UNL     1       2.682   5.529  19.864  0.00  0.00    +0.000 C 
ENDROOT
BRANCH   1   2
ATOM      2  C   UNL     1       2.379   6.984  19.525  0.00  0.00    +0.000 A 
ATOM      3  C   UNL     1       2.608   7.536  18.237  0.00  0.00    +0.000 A 
ATOM      4  C   UNL     1       2.057   8.768  17.866  0.00  0.00    +0.000 A 
ATOM      5  C   UNL     1       1.262   9.402  18.789  0.00  0.00    +0.000 A 
ATOM      6  C   UNL     1       1.118   8.926  20.073  0.00  0.00    +0.000 A 
ATOM      7  C   UNL     1       1.701   7.752  20.487  0.00  0.00    +0.000 A 
ATOM      8  O   UNL     1       0.217   9.657  20.789  0.00  0.00    +0.000 OA
ATOM      9  C   UNL     1      -0.427  10.340  19.696  0.00  0.00    +0.000 C 
ATOM     10  O   UNL     1       0.441  10.463  18.548  0.00  0.00    +0.000 OA
ENDBRANCH   1   2
BRANCH   1  11
ATOM     11  N   UNL     1       3.471   4.809  18.856  0.00  0.00    +0.000 NA
ATOM     12  H   UNL     1       3.218   4.990  17.881  0.00  0.00    +0.000 HD
BRANCH  11  13
ATOM     13  S   UNL     1       5.080   4.414  19.048  0.00  0.00    +0.000 S 
ATOM     14  O   UNL     1       5.701   5.558  19.679  0.00  0.00    +0.000 OA
ATOM     15  O   UNL     1       5.166   3.095  19.632  0.00  0.00    +0.000 OA
BRANCH  13  16
ATOM     16  C   UNL     1       5.647   4.350  17.374  0.00  0.00    +0.000 A 
ATOM     17  C   UNL     1       6.982   4.644  17.094  0.00  0.00    +0.000 A 
ATOM     18  C   UNL     1       7.394   4.695  15.766  0.00  0.00    +0.000 A 
ATOM     19  C   UNL     1       6.492   4.441  14.728  0.00  0.00    +0.000 A 
ATOM     20  C   UNL     1       5.163   4.129  15.025  0.00  0.00    +0.000 A 
ATOM     21  C   UNL     1       4.745   4.062  16.353  0.00  0.00    +0.000 A 
BRANCH  19  22
ATOM     22  O   UNL     1       7.010   4.569  13.469  0.00  0.00    +0.000 OA
ATOM     23  C   UNL     1       6.472   3.691  12.487  0.00  0.00    +0.000 C 
ENDBRANCH  19  22
ENDBRANCH  13  16
ENDBRANCH  11  13
ENDBRANCH   1  11
BRANCH   1  24
ATOM     24  C   UNL     1       1.483   4.732  20.379  0.00  0.00    +0.000 C 
BRANCH  24  25
ATOM     25  C   UNL     1       1.906   3.432  21.010  0.00  0.00    +0.000 C 
ATOM     26  O   UNL     1       2.222   3.278  22.183  0.00  0.00    +0.000 OA
BRANCH  25  28
ATOM     27  C   UNL     1       0.777   2.558  19.135  0.00  0.00    +0.000 C 
ATOM     28  O   UNL     1       1.849   2.453  20.075  0.00  0.00    +0.000 OA
ENDBRANCH  25  28
ENDBRANCH  24  25
ENDBRANCH   1  24
TORSDOF 8
ENDMDL
MODEL 2
REMARK VINA RESULT:      -8.3      0.601      1.008
REMARK  Name = 
REMARK  10 active torsions:
REMARK  status: ('A' for Active; 'I' for Inactive)
REMARK    1  A    between atoms: C_1  and  O_2
REMARK    2  A    between atoms: O_2  and  C_3
REMARK    3  A    between atoms: C_3  and  C_5
REMARK    4  A    between atoms: C_5  and  C_6
REMARK    5  A    between atoms: C_6  and  N_7
REMARK    6  A    between atoms: C_6  and  C_19
REMARK    7  A    between atoms: N_7  and  S_8
REMARK    8  A    between atoms: S_8  and  C_11
REMARK    9  A    between atoms: C_14  and  O_15
REMARK   10  A    between atoms: O_15  and  C_16
REMARK                            x       y       z     vdW  Elec       q    Type
REMARK                         _______ _______ _______ _____ _____    ______ ____
ROOT
ATOM      1  C   UNL     1       2.887   5.840  19.874  0.00  0.00    +0.000 C 
ENDROOT
BRANCH   1   2
ATOM      2  C   UNL     1       2.416   7.239  19.496  0.00  0.00    +0.000 A 
ATOM      3  C   UNL     1       2.540   7.762  18.181  0.00  0.00    +0.000 A 
ATOM      4  C   UNL     1       1.846   8.912  17.788  0.00  0.00    +0.000 A 
ATOM      5  C   UNL     1       1.019   9.493  18.719  0.00  0.00    +0.000 A 
ATOM      6  C   UNL     1       0.971   9.055  20.023  0.00  0.00    +0.000 A 
ATOM      7  C   UNL     1       1.692   7.967  20.456  0.00  0.00    +0.000 A 
ATOM      8  O   UNL     1       0.021   9.712  20.746  0.00  0.00    +0.000 OA
ATOM      9  C   UNL     1      -0.729  10.279  19.656  0.00  0.00    +0.000 C 
ATOM     10  O   UNL     1       0.080  10.449  18.472  0.00  0.00    +0.000 OA
ENDBRANCH   1   2
BRANCH   1  11
ATOM     11  N   UNL     1       3.613   5.122  18.818  0.00  0.00    +0.000 NA
ATOM     12  H   UNL     1       3.416   5.425  17.859  0.00  0.00    +0.000 HD
BRANCH  11  13
ATOM     13  S   UNL     1       5.154   4.512  19.004  0.00  0.00    +0.000 S 
ATOM     14  O   UNL     1       5.923   5.555  19.647  0.00  0.00    +0.000 OA
ATOM     15  O   UNL     1       5.061   3.188  19.573  0.00  0.00    +0.000 OA
BRANCH  13  16
ATOM     16  C   UNL     1       5.708   4.391  17.329  0.00  0.00    +0.000 A 
ATOM     17  C   UNL     1       7.012   4.775  17.012  0.00  0.00    +0.000 A 
ATOM     18  C   UNL     1       7.406   4.777  15.677  0.00  0.00    +0.000 A 
ATOM     19  C   UNL     1       6.518   4.387  14.670  0.00  0.00    +0.000 A 
ATOM     20  C   UNL     1       5.222   3.986  15.004  0.00  0.00    +0.000 A 
ATOM     21  C   UNL     1       4.823   3.967  16.341  0.00  0.00    +0.000 A 
BRANCH  19  22
ATOM     22  O   UNL     1       7.012   4.478  13.398  0.00  0.00    +0.000 OA
ATOM     23  C   UNL     1       6.412   3.615  12.439  0.00  0.00    +0.000 C 
ENDBRANCH  19  22
ENDBRANCH  13  16
ENDBRANCH  11  13
ENDBRANCH   1  11
BRANCH   1  24
ATOM     24  C   UNL     1       1.834   4.981  20.576  0.00  0.00    +0.000 C 
BRANCH  24  25
ATOM     25  C   UNL     1       1.314   3.890  19.679  0.00  0.00    +0.000 C 
ATOM     26  O   UNL     1       1.076   4.002  18.482  0.00  0.00    +0.000 OA
BRANCH  25  28
ATOM     27  C   UNL     1       1.865   2.738  21.661  0.00  0.00    +0.000 C 
ATOM     28  O   UNL     1       1.181   2.753  20.404  0.00  0.00    +0.000 OA
ENDBRANCH  25  28
ENDBRANCH  24  25
ENDBRANCH   1  24
TORSDOF 8
ENDMDL
MODEL 3
REMARK VINA RESULT:      -8.0      1.902      2.575
REMARK  Name = 
REMARK  10 active torsions:
REMARK  status: ('A' for Active; 'I' for Inactive)
REMARK    1  A    between atoms: C_1  and  O_2
REMARK    2  A    between atoms: O_2  and  C_3
REMARK    3  A    between atoms: C_3  and  C_5
REMARK    4  A    between atoms: C_5  and  C_6
REMARK    5  A    between atoms: C_6  and  N_7
REMARK    6  A    between atoms: C_6  and  C_19
REMARK    7  A    between atoms: N_7  and  S_8
REMARK    8  A    between atoms: S_8  and  C_11
REMARK    9  A    between atoms: C_14  and  O_15
REMARK   10  A    between atoms: O_15  and  C_16
REMARK                            x       y       z     vdW  Elec       q    Type
REMARK                         _______ _______ _______ _____ _____    ______ ____
ROOT
ATOM      1  C   UNL     1       2.513   5.188  19.714  0.00  0.00    +0.000 C 
ENDROOT
BRANCH   1   2
ATOM      2  C   UNL     1       2.313   6.688  19.531  0.00  0.00    +0.000 A 
ATOM      3  C   UNL     1       2.433   7.330  18.270  0.00  0.00    +0.000 A 
ATOM      4  C   UNL     1       1.961   8.633  18.071  0.00  0.00    +0.000 A 
ATOM      5  C   UNL     1       1.353   9.249  19.138  0.00  0.00    +0.000 A 
ATOM      6  C   UNL     1       1.325   8.675  20.389  0.00  0.00    +0.000 A 
ATOM      7  C   UNL     1       1.838   7.424  20.631  0.00  0.00    +0.000 A 
ATOM      8  O   UNL     1       0.595   9.415  21.272  0.00  0.00    +0.000 OA
ATOM      9  C   UNL     1      -0.110  10.245  20.329  0.00  0.00    +0.000 C 
ATOM     10  O   UNL     1       0.615  10.394  19.090  0.00  0.00    +0.000 OA
ENDBRANCH   1   2
BRANCH   1  11
ATOM     11  N   UNL     1       3.005   4.478  18.527  0.00  0.00    +0.000 NA
ATOM     12  H   UNL     1       2.670   4.833  17.626  0.00  0.00    +0.000 HD
BRANCH  11  13
ATOM     13  S   UNL     1       4.514   3.773  18.427  0.00  0.00    +0.000 S 
ATOM     14  O   UNL     1       4.808   3.270  19.751  0.00  0.00    +0.000 OA
ATOM     15  O   UNL     1       4.544   2.910  17.270  0.00  0.00    +0.000 OA
BRANCH  13  16
ATOM     16  C   UNL     1       5.557   5.172  18.141  0.00  0.00    +0.000 A 
ATOM     17  C   UNL     1       5.248   6.053  17.103  0.00  0.00    +0.000 A 
ATOM     18  C   UNL     1       6.130   7.091  16.818  0.00  0.00    +0.000 A 
ATOM     19  C   UNL     1       7.299   7.261  17.567  0.00  0.00    +0.000 A 
ATOM     20  C   UNL     1       7.584   6.384  18.616  0.00  0.00    +0.000 A 
ATOM     21  C   UNL     1       6.699   5.349  18.918  0.00  0.00    +0.000 A 
BRANCH  19  22
ATOM     22  O   UNL     1       8.103   8.288  17.156  0.00  0.00    +0.000 OA
ATOM     23  C   UNL     1       8.402   9.270  18.142  0.00  0.00    +0.000 C 
ENDBRANCH  19  22
ENDBRANCH  13  16
ENDBRANCH  11  13
ENDBRANCH   1  11
BRANCH   1  24
ATOM     24  C   UNL     1       1.358   4.472  20.414  0.00  0.00    +0.000 C 
BRANCH  24  25
ATOM     25  C   UNL     1       1.782   3.141  20.973  0.00  0.00    +0.000 C 
ATOM     26  O   UNL     1       2.116   2.927  22.133  0.00  0.00    +0.000 OA
BRANCH  25  28
ATOM     27  C   UNL     1       0.545   2.283  19.158  0.00  0.00    +0.000 C 
ATOM     28  O   UNL     1       1.705   2.208  19.993  0.00  0.00    +0.000 OA
ENDBRANCH  25  28
ENDBRANCH  24  25
ENDBRANCH   1  24
TORSDOF 8
ENDMDL
MODEL 4
REMARK VINA RESULT:      -7.8      1.012      1.524
REMARK  Name = 
REMARK  10 active torsions:
REMARK  status: ('A' for Active; 'I' for Inactive)
REMARK    1  A    between atoms: C_1  and  O_2
REMARK    2  A    between atoms: O_2  and  C_3
REMARK    3  A    between atoms: C_3  and  C_5
REMARK    4  A    between atoms: C_5  and  C_6
REMARK    5  A    between atoms: C_6  and  N_7
REMARK    6  A    between atoms: C_6  and  C_19
REMARK    7  A    between atoms: N_7  and  S_8
REMARK    8  A    between atoms: S_8  and  C_11
REMARK    9  A    between atoms: C_14  and  O_15
REMARK   10  A    between atoms: O_15  and  C_16
REMARK                            x       y       z     vdW  Elec       q    Type
REMARK                         _______ _______ _______ _____ _____    ______ ____
ROOT
ATOM      1  C   UNL     1       2.942   5.444  19.701  0.00  0.00    +0.000 C 
ENDROOT
BRANCH   1   2
ATOM      2  C   UNL     1       2.563   6.892  19.410  0.00  0.00    +0.000 A 
ATOM      3  C   UNL     1       2.749   7.493  18.137  0.00  0.00    +0.000 A 
ATOM      4  C   UNL     1       2.133   8.706  17.810  0.00  0.00    +0.000 A 
ATOM      5  C   UNL     1       1.319   9.272  18.761  0.00  0.00    +0.000 A 
ATOM      6  C   UNL     1       1.214   8.751  20.031  0.00  0.00    +0.000 A 
ATOM      7  C   UNL     1       1.860   7.596  20.403  0.00  0.00    +0.000 A 
ATOM      8  O   UNL     1       0.287   9.414  20.778  0.00  0.00    +0.000 OA
ATOM      9  C   UNL     1      -0.403  10.097  19.714  0.00  0.00    +0.000 C 
ATOM     10  O   UNL     1       0.444  10.297  18.561  0.00  0.00    +0.000 OA
ENDBRANCH   1   2
BRANCH   1  11
ATOM     11  N   UNL     1       3.127   4.600  18.514  0.00  0.00    +0.000 NA
ATOM     12  H   UNL     1       2.868   5.028  17.620  0.00  0.00    +0.000 HD
BRANCH  11  13
ATOM     13  S   UNL     1       4.339   3.464  18.364  0.00  0.00    +0.000 S 
ATOM     14  O   UNL     1       5.095   3.520  19.596  0.00  0.00    +0.000 OA
ATOM     15  O   UNL     1       3.759   2.229  17.893  0.00  0.00    +0.000 OA
BRANCH  13  16
ATOM     16  C   UNL     1       5.344   4.163  17.087  0.00  0.00    +0.000 A 
ATOM     17  C   UNL     1       5.400   3.535  15.842  0.00  0.00    +0.000 A 
ATOM     18  C   UNL     1       6.273   4.031  14.879  0.00  0.00    +0.000 A 
ATOM     19  C   UNL     1       7.070   5.150  15.144  0.00  0.00    +0.000 A 
ATOM     20  C   UNL     1       6.987   5.780  16.388  0.00  0.00    +0.000 A 
ATOM     21  C   UNL     1       6.105   5.298  17.355  0.00  0.00    +0.000 A 
BRANCH  19  22
ATOM     22  O   UNL     1       7.917   5.507  14.133  0.00  0.00    +0.000 OA
ATOM     23  C   UNL     1       7.540   5.075  12.830  0.00  0.00    +0.000 C 
ENDBRANCH  19  22
ENDBRANCH  13  16
ENDBRANCH  11  13
ENDBRANCH   1  11
BRANCH   1  24
ATOM     24  C   UNL     1       2.111   4.776  20.797  0.00  0.00    +0.000 C 
BRANCH  24  25
ATOM     25  C   UNL     1       1.234   3.684  20.246  0.00  0.00    +0.000 C 
ATOM     26  O   UNL     1       0.216   3.852  19.584  0.00  0.00    +0.000 OA
BRANCH  25  28
ATOM     27  C   UNL     1       2.498   2.449  21.805  0.00  0.00    +0.000 C 
ATOM     28  O   UNL     1       1.769   2.484  20.575  0.00  0.00    +0.000 OA
ENDBRANCH  25  28
ENDBRANCH  24  25
ENDBRANCH   1  24
TORSDOF 8
ENDMDL
MODEL 5
REMARK VINA RESULT:      -7.7      1.942      2.713
REMARK  Name = 
REMARK  10 active torsions:
REMARK  status: ('A' for Active; 'I' for Inactive)
REMARK    1  A    between atoms: C_1  and  O_2
REMARK    2  A    between atoms: O_2  and  C_3
REMARK    3  A    between atoms: C_3  and  C_5
REMARK    4  A    between atoms: C_5  and  C_6
REMARK    5  A    between atoms: C_6  and  N_7
REMARK    6  A    between atoms: C_6  and  C_19
REMARK    7  A    between atoms: N_7  and  S_8
REMARK    8  A    between atoms: S_8  and  C_11
REMARK    9  A    between atoms: C_14  and  O_15
REMARK   10  A    between atoms: O_15  and  C_16
REMARK                            x       y       z     vdW  Elec       q    Type
REMARK                         _______ _______ _______ _____ _____    ______ ____
ROOT
ATOM      1  C   UNL     1       2.748   5.535  19.638  0.00  0.00    +0.000 C 
ENDROOT
BRANCH   1   2
ATOM      2  C   UNL     1       2.404   7.004  19.424  0.00  0.00    +0.000 A 
ATOM      3  C   UNL     1       2.555   7.653  18.170  0.00  0.00    +0.000 A 
ATOM      4  C   UNL     1       1.965   8.897  17.920  0.00  0.00    +0.000 A 
ATOM      5  C   UNL     1       1.211   9.446  18.928  0.00  0.00    +0.000 A 
ATOM      6  C   UNL     1       1.143   8.875  20.179  0.00  0.00    +0.000 A 
ATOM      7  C   UNL     1       1.766   7.687  20.474  0.00  0.00    +0.000 A 
ATOM      8  O   UNL     1       0.270   9.534  20.992  0.00  0.00    +0.000 OA
ATOM      9  C   UNL     1      -0.442  10.282  19.988  0.00  0.00    +0.000 C 
ATOM     10  O   UNL     1       0.361  10.505  18.809  0.00  0.00    +0.000 OA
ENDBRANCH   1   2
BRANCH   1  11
ATOM     11  N   UNL     1       2.697   4.702  18.430  0.00  0.00    +0.000 NA
ATOM     12  H   UNL     1       2.135   5.074  17.658  0.00  0.00    +0.000 HD
BRANCH  11  13
ATOM     13  S   UNL     1       3.959   3.741  17.912  0.00  0.00    +0.000 S 
ATOM     14  O   UNL     1       4.168   2.761  18.954  0.00  0.00    +0.000 OA
ATOM     15  O   UNL     1       3.708   3.346  16.546  0.00  0.00    +0.000 OA
BRANCH  13  16
ATOM     16  C   UNL     1       5.321   4.868  17.954  0.00  0.00    +0.000 A 
ATOM     17  C   UNL     1       6.212   4.821  19.028  0.00  0.00    +0.000 A 
ATOM     18  C   UNL     1       7.219   5.779  19.107  0.00  0.00    +0.000 A 
ATOM     19  C   UNL     1       7.349   6.762  18.120  0.00  0.00    +0.000 A 
ATOM     20  C   UNL     1       6.463   6.783  17.041  0.00  0.00    +0.000 A 
ATOM     21  C   UNL     1       5.459   5.819  16.947  0.00  0.00    +0.000 A 
BRANCH  19  22
ATOM     22  O   UNL     1       8.348   7.670  18.340  0.00  0.00    +0.000 OA
ATOM     23  C   UNL     1       8.073   9.002  17.923  0.00  0.00    +0.000 C 
ENDBRANCH  19  22
ENDBRANCH  13  16
ENDBRANCH  11  13
ENDBRANCH   1  11
BRANCH   1  24
ATOM     24  C   UNL     1       2.067   4.890  20.847  0.00  0.00    +0.000 C 
BRANCH  24  25
ATOM     25  C   UNL     1       1.094   3.819  20.435  0.00  0.00    +0.000 C 
ATOM     26  O   UNL     1       0.378   3.849  19.441  0.00  0.00    +0.000 OA
BRANCH  25  28
ATOM     27  C   UNL     1       2.477   2.428  21.742  0.00  0.00    +0.000 C 
ATOM     28  O   UNL     1       1.159   2.801  21.327  0.00  0.00    +0.000 OA
ENDBRANCH  25  28
ENDBRANCH  24  25
ENDBRANCH   1  24
TORSDOF 8
ENDMDL
MODEL 6
REMARK VINA RESULT:      -7.7      1.094      1.668
REMARK  Name = 
REMARK  10 active torsions:
REMARK  status: ('A' for Active; 'I' for Inactive)
REMARK    1  A    between atoms: C_1  and  O_2
REMARK    2  A    between atoms: O_2  and  C_3
REMARK    3  A    between atoms: C_3  and  C_5
REMARK    4  A    between atoms: C_5  and  C_6
REMARK    5  A    between atoms: C_6  and  N_7
REMARK    6  A    between atoms: C_6  and  C_19
REMARK    7  A    between atoms: N_7  and  S_8
REMARK    8  A    between atoms: S_8  and  C_11
REMARK    9  A    between atoms: C_14  and  O_15
REMARK   10  A    between atoms: O_15  and  C_16
REMARK                            x       y       z     vdW  Elec       q    Type
REMARK                         _______ _______ _______ _____ _____    ______ ____
ROOT
ATOM      1  C   UNL     1       2.878   5.879  19.182  0.00  0.00    +0.000 C 
ENDROOT
BRANCH   1   2
ATOM      2  C   UNL     1       2.464   7.344  19.122  0.00  0.00    +0.000 A 
ATOM      3  C   UNL     1       2.640   8.146  17.964  0.00  0.00    +0.000 A 
ATOM      4  C   UNL     1       1.994   9.380  17.829  0.00  0.00    +0.000 A 
ATOM      5  C   UNL     1       1.161   9.766  18.851  0.00  0.00    +0.000 A 
ATOM      6  C   UNL     1       1.064   9.046  20.021  0.00  0.00    +0.000 A 
ATOM      7  C   UNL     1       1.737   7.863  20.209  0.00  0.00    +0.000 A 
ATOM      8  O   UNL     1       0.117   9.558  20.856  0.00  0.00    +0.000 OA
ATOM      9  C   UNL     1      -0.586  10.385  19.909  0.00  0.00    +0.000 C 
ATOM     10  O   UNL     1       0.261  10.788  18.810  0.00  0.00    +0.000 OA
ENDBRANCH   1   2
BRANCH   1  11
ATOM     11  N   UNL     1       3.691   5.417  18.049  0.00  0.00    +0.000 NA
ATOM     12  H   UNL     1       3.421   5.782  17.131  0.00  0.00    +0.000 HD
BRANCH  11  13
ATOM     13  S   UNL     1       5.319   5.069  18.158  0.00  0.00    +0.000 S 
ATOM     14  O   UNL     1       5.961   6.289  18.596  0.00  0.00    +0.000 OA
ATOM     15  O   UNL     1       5.479   3.832  18.886  0.00  0.00    +0.000 OA
BRANCH  13  16
ATOM     16  C   UNL     1       5.755   4.812  16.464  0.00  0.00    +0.000 A 
ATOM     17  C   UNL     1       4.834   4.207  15.606  0.00  0.00    +0.000 A 
ATOM     18  C   UNL     1       5.224   3.914  14.303  0.00  0.00    +0.000 A 
ATOM     19  C   UNL     1       6.509   4.232  13.852  0.00  0.00    +0.000 A 
ATOM     20  C   UNL     1       7.412   4.855  14.715  0.00  0.00    +0.000 A 
ATOM     21  C   UNL     1       7.027   5.166  16.019  0.00  0.00    +0.000 A 
BRANCH  19  22
ATOM     22  O   UNL     1       6.781   3.848  12.568  0.00  0.00    +0.000 OA
ATOM     23  C   UNL     1       5.807   3.011  11.955  0.00  0.00    +0.000 C 
ENDBRANCH  19  22
ENDBRANCH  13  16
ENDBRANCH  11  13
ENDBRANCH   1  11
BRANCH   1  24
ATOM     24  C   UNL     1       1.752   4.912  19.553  0.00  0.00    +0.000 C 
BRANCH  24  25
ATOM     25  C   UNL     1       1.550   3.858  18.499  0.00  0.00    +0.000 C 
ATOM     26  O   UNL     1       1.008   4.028  17.414  0.00  0.00    +0.000 OA
BRANCH  25  28
ATOM     27  C   UNL     1       1.909   2.407  20.322  0.00  0.00    +0.000 C 
ATOM     28  O   UNL     1       2.094   2.695  18.933  0.00  0.00    +0.000 OA
ENDBRANCH  25  28
ENDBRANCH  24  25
ENDBRANCH   1  24
TORSDOF 8
ENDMDL
MODEL 7
REMARK VINA RESULT:      -7.6      0.970      1.791
REMARK  Name = 
REMARK  10 active torsions:
REMARK  status: ('A' for Active; 'I' for Inactive)
REMARK    1  A    between atoms: C_1  and  O_2
REMARK    2  A    between atoms: O_2  and  C_3
REMARK    3  A    between atoms: C_3  and  C_5
REMARK    4  A    between atoms: C_5  and  C_6
REMARK    5  A    between atoms: C_6  and  N_7
REMARK    6  A    between atoms: C_6  and  C_19
REMARK    7  A    between atoms: N_7  and  S_8
REMARK    8  A    between atoms: S_8  and  C_11
REMARK    9  A    between atoms: C_14  and  O_15
REMARK   10  A    between atoms: O_15  and  C_16
REMARK                            x       y       z     vdW  Elec       q    Type
REMARK                         _______ _______ _______ _____ _____    ______ ____
ROOT
ATOM      1  C   UNL     1       3.139   5.735  20.081  0.00  0.00    +0.000 C 
ENDROOT
BRANCH   1   2
ATOM      2  C   UNL     1       2.240   6.948  19.872  0.00  0.00    +0.000 A 
ATOM      3  C   UNL     1       1.465   7.519  20.916  0.00  0.00    +0.000 A 
ATOM      4  C   UNL     1       0.889   8.787  20.783  0.00  0.00    +0.000 A 
ATOM      5  C   UNL     1       1.131   9.465  19.613  0.00  0.00    +0.000 A 
ATOM      6  C   UNL     1       1.794   8.880  18.557  0.00  0.00    +0.000 A 
ATOM      7  C   UNL     1       2.315   7.611  18.634  0.00  0.00    +0.000 A 
ATOM      8  O   UNL     1       2.002   9.760  17.537  0.00  0.00    +0.000 OA
ATOM      9  C   UNL     1       1.755  10.986  18.252  0.00  0.00    +0.000 C 
ATOM     10  O   UNL     1       0.882  10.785  19.384  0.00  0.00    +0.000 OA
ENDBRANCH   1   2
BRANCH   1  11
ATOM     11  N   UNL     1       3.857   5.280  18.884  0.00  0.00    +0.000 NA
ATOM     12  H   UNL     1       3.666   5.806  18.026  0.00  0.00    +0.000 HD
BRANCH  11  13
ATOM     13  S   UNL     1       5.389   4.620  18.916  0.00  0.00    +0.000 S 
ATOM     14  O   UNL     1       6.227   5.589  19.587  0.00  0.00    +0.000 OA
ATOM     15  O   UNL     1       5.294   3.256  19.382  0.00  0.00    +0.000 OA
BRANCH  13  16
ATOM     16  C   UNL     1       5.828   4.625  17.203  0.00  0.00    +0.000 A 
ATOM     17  C   UNL     1       4.914   4.147  16.263  0.00  0.00    +0.000 A 
ATOM     18  C   UNL     1       5.307   4.056  14.931  0.00  0.00    +0.000 A 
ATOM     19  C   UNL     1       6.590   4.451  14.536  0.00  0.00    +0.000 A 
ATOM     20  C   UNL     1       7.486   4.946  15.485  0.00  0.00    +0.000 A 
ATOM     21  C   UNL     1       7.097   5.054  16.820  0.00  0.00    +0.000 A 
BRANCH  19  22
ATOM     22  O   UNL     1       6.866   4.267  13.209  0.00  0.00    +0.000 OA
ATOM     23  C   UNL     1       5.963   3.426  12.501  0.00  0.00    +0.000 C 
ENDBRANCH  19  22
ENDBRANCH  13  16
ENDBRANCH  11  13
ENDBRANCH   1  11
BRANCH   1  24
ATOM     24  C   UNL     1       2.496   4.595  20.873  0.00  0.00    +0.000 C 
BRANCH  24  25
ATOM     25  C   UNL     1       1.465   3.861  20.059  0.00  0.00    +0.000 C 
ATOM     26  O   UNL     1       0.251   3.947  20.201  0.00  0.00    +0.000 OA
BRANCH  25  28
ATOM     27  C   UNL     1       1.384   1.955  18.674  0.00  0.00    +0.000 C 
ATOM     28  O   UNL     1       2.096   3.112  19.122  0.00  0.00    +0.000 OA
ENDBRANCH  25  28
ENDBRANCH  24  25
ENDBRANCH   1  24
TORSDOF 8
ENDMDL
MODEL 8
REMARK VINA RESULT:      -7.5      1.023      1.579
REMARK  Name = 
REMARK  10 active torsions:
REMARK  status: ('A' for Active; 'I' for Inactive)
REMARK    1  A    between atoms: C_1  and  O_2
REMARK    2  A    between atoms: O_2  and  C_3
REMARK    3  A    between atoms: C_3  and  C_5
REMARK    4  A    between atoms: C_5  and  C_6
REMARK    5  A    between atoms: C_6  and  N_7
REMARK    6  A    between atoms: C_6  and  C_19
REMARK    7  A    between atoms: N_7  and  S_8
REMARK    8  A    between atoms: S_8  and  C_11
REMARK    9  A    between atoms: C_14  and  O_15
REMARK   10  A    between atoms: O_15  and  C_16
REMARK                            x       y       z     vdW  Elec       q    Type
REMARK                         _______ _______ _______ _____ _____    ______ ____
ROOT
ATOM      1  C   UNL     1       3.056   5.697  19.419  0.00  0.00    +0.000 C 
ENDROOT
BRANCH   1   2
ATOM      2  C   UNL     1       2.212   6.964  19.483  0.00  0.00    +0.000 A 
ATOM      3  C   UNL     1       1.600   7.419  20.681  0.00  0.00    +0.000 A 
ATOM      4  C   UNL     1       1.087   8.717  20.787  0.00  0.00    +0.000 A 
ATOM      5  C   UNL     1       1.229   9.538  19.695  0.00  0.00    +0.000 A 
ATOM      6  C   UNL     1       1.728   9.075  18.498  0.00  0.00    +0.000 A 
ATOM      7  C   UNL     1       2.179   7.786  18.343  0.00  0.00    +0.000 A 
ATOM      8  O   UNL     1       1.866  10.076  17.583  0.00  0.00    +0.000 OA
ATOM      9  C   UNL     1       1.777  11.202  18.477  0.00  0.00    +0.000 C 
ATOM     10  O   UNL     1       1.033  10.886  19.673  0.00  0.00    +0.000 OA
ENDBRANCH   1   2
BRANCH   1  11
ATOM     11  N   UNL     1       4.455   5.902  19.022  0.00  0.00    +0.000 NA
ATOM     12  H   UNL     1       4.833   6.838  19.197  0.00  0.00    +0.000 HD
BRANCH  11  13
ATOM     13  S   UNL     1       5.619   4.709  19.078  0.00  0.00    +0.000 S 
ATOM     14  O   UNL     1       6.764   5.298  19.737  0.00  0.00    +0.000 OA
ATOM     15  O   UNL     1       5.012   3.494  19.568  0.00  0.00    +0.000 OA
BRANCH  13  16
ATOM     16  C   UNL     1       6.027   4.511  17.369  0.00  0.00    +0.000 A 
ATOM     17  C   UNL     1       7.214   5.062  16.883  0.00  0.00    +0.000 A 
ATOM     18  C   UNL     1       7.476   4.993  15.518  0.00  0.00    +0.000 A 
ATOM     19  C   UNL     1       6.576   4.369  14.648  0.00  0.00    +0.000 A 
ATOM     20  C   UNL     1       5.403   3.804  15.152  0.00  0.00    +0.000 A 
ATOM     21  C   UNL     1       5.138   3.856  16.520  0.00  0.00    +0.000 A 
BRANCH  19  22
ATOM     22  O   UNL     1       6.928   4.410  13.327  0.00  0.00    +0.000 OA
ATOM     23  C   UNL     1       6.211   3.530  12.469  0.00  0.00    +0.000 C 
ENDBRANCH  19  22
ENDBRANCH  13  16
ENDBRANCH  11  13
ENDBRANCH   1  11
BRANCH   1  24
ATOM     24  C   UNL     1       2.389   4.522  18.703  0.00  0.00    +0.000 C 
BRANCH  24  25
ATOM     25  C   UNL     1       1.610   3.656  19.655  0.00  0.00    +0.000 C 
ATOM     26  O   UNL     1       0.979   4.052  20.628  0.00  0.00    +0.000 OA
BRANCH  25  28
ATOM     27  C   UNL     1       2.279   2.167  17.955  0.00  0.00    +0.000 C 
ATOM     28  O   UNL     1       1.695   2.367  19.245  0.00  0.00    +0.000 OA
ENDBRANCH  25  28
ENDBRANCH  24  25
ENDBRANCH   1  24
TORSDOF 8
ENDMDL
MODEL 9
REMARK VINA RESULT:      -7.5      2.141      3.179
REMARK  Name = 
REMARK  10 active torsions:
REMARK  status: ('A' for Active; 'I' for Inactive)
REMARK    1  A    between atoms: C_1  and  O_2
REMARK    2  A    between atoms: O_2  and  C_3
REMARK    3  A    between atoms: C_3  and  C_5
REMARK    4  A    between atoms: C_5  and  C_6
REMARK    5  A    between atoms: C_6  and  N_7
REMARK    6  A    between atoms: C_6  and  C_19
REMARK    7  A    between atoms: N_7  and  S_8
REMARK    8  A    between atoms: S_8  and  C_11
REMARK    9  A    between atoms: C_14  and  O_15
REMARK   10  A    between atoms: O_15  and  C_16
REMARK                            x       y       z     vdW  Elec       q    Type
REMARK                         _______ _______ _______ _____ _____    ______ ____
ROOT
ATOM      1  C   UNL     1       2.651   5.192  18.229  0.00  0.00    +0.000 C 
ENDROOT
BRANCH   1   2
ATOM      2  C   UNL     1       2.426   6.650  18.610  0.00  0.00    +0.000 A 
ATOM      3  C   UNL     1       2.313   7.687  17.646  0.00  0.00    +0.000 A 
ATOM      4  C   UNL     1       1.818   8.949  17.992  0.00  0.00    +0.000 A 
ATOM      5  C   UNL     1       1.421   9.131  19.294  0.00  0.00    +0.000 A 
ATOM      6  C   UNL     1       1.621   8.167  20.257  0.00  0.00    +0.000 A 
ATOM      7  C   UNL     1       2.166   6.941  19.961  0.00  0.00    +0.000 A 
ATOM      8  O   UNL     1       1.071   8.520  21.453  0.00  0.00    +0.000 OA
ATOM      9  C   UNL     1       0.207   9.576  20.992  0.00  0.00    +0.000 C 
ATOM     10  O   UNL     1       0.691  10.178  19.772  0.00  0.00    +0.000 OA
ENDBRANCH   1   2
BRANCH   1  11
ATOM     11  N   UNL     1       3.585   4.977  17.117  0.00  0.00    +0.000 NA
ATOM     12  H   UNL     1       3.615   5.720  16.412  0.00  0.00    +0.000 HD
BRANCH  11  13
ATOM     13  S   UNL     1       5.035   4.165  17.267  0.00  0.00    +0.000 S 
ATOM     14  O   UNL     1       4.875   3.267  18.390  0.00  0.00    +0.000 OA
ATOM     15  O   UNL     1       5.429   3.680  15.966  0.00  0.00    +0.000 OA
BRANCH  13  16
ATOM     16  C   UNL     1       6.132   5.459  17.767  0.00  0.00    +0.000 A 
ATOM     17  C   UNL     1       6.035   6.710  17.155  0.00  0.00    +0.000 A 
ATOM     18  C   UNL     1       6.970   7.689  17.479  0.00  0.00    +0.000 A 
ATOM     19  C   UNL     1       7.980   7.432  18.412  0.00  0.00    +0.000 A 
ATOM     20  C   UNL     1       8.051   6.182  19.031  0.00  0.00    +0.000 A 
ATOM     21  C   UNL     1       7.111   5.199  18.724  0.00  0.00    +0.000 A 
BRANCH  19  22
ATOM     22  O   UNL     1       8.861   8.460  18.606  0.00  0.00    +0.000 OA
ATOM     23  C   UNL     1       8.502   9.701  18.008  0.00  0.00    +0.000 C 
ENDBRANCH  19  22
ENDBRANCH  13  16
ENDBRANCH  11  13
ENDBRANCH   1  11
BRANCH   1  24
ATOM     24  C   UNL     1       1.373   4.358  18.116  0.00  0.00    +0.000 C 
BRANCH  24  25
ATOM     25  C   UNL     1       1.371   3.205  19.083  0.00  0.00    +0.000 C 
ATOM     26  O   UNL     1       1.328   2.019  18.778  0.00  0.00    +0.000 OA
BRANCH  25  28
ATOM     27  C   UNL     1       1.925   2.766  21.332  0.00  0.00    +0.000 C 
ATOM     28  O   UNL     1       1.456   3.690  20.345  0.00  0.00    +0.000 OA
ENDBRANCH  25  28
ENDBRANCH  24  25
ENDBRANCH   1  24
TORSDOF 8
ENDMDL
