MODEL 1
REMARK VINA RESULT:      -8.4      0.000      0.000
REMARK  Name = 
REMARK  6 active torsions:
REMARK  status: ('A' for Active; 'I' for Inactive)
REMARK    1  A    between atoms: C_1  and  C_2
REMARK    2  A    between atoms: C_4  and  C_5
REMARK    3  A    between atoms: C_12  and  C_13
REMARK    4  A    between atoms: C_13  and  C_14
REMARK    5  A    between atoms: N_16  and  C_17
REMARK    6  A    between atoms: C_17  and  C_18
REMARK                            x       y       z     vdW  Elec       q    Type
REMARK                         _______ _______ _______ _____ _____    ______ ____
ROOT
ATOM      1  C   UNL     1       7.055   7.413  17.132  0.00  0.00    +0.000 C 
ENDROOT
BRANCH   1   7
ATOM      2  C   UNL     1       7.195   4.788  15.103  0.00  0.00    +0.000 C 
ATOM      3  C   UNL     1       6.248   5.082  16.210  0.00  0.00    +0.000 A 
ATOM      4  N   UNL     1       5.271   4.135  16.450  0.00  0.00    +0.000 NA
ATOM      5  C   UNL     1       4.471   4.491  17.432  0.00  0.00    +0.000 A 
ATOM      6  S   UNL     1       4.878   5.999  18.145  0.00  0.00    +0.000 S 
ATOM      7  C   UNL     1       6.191   6.191  17.039  0.00  0.00    +0.000 A 
BRANCH   5   8
ATOM      8  C   UNL     1       3.318   3.672  17.853  0.00  0.00    +0.000 A 
ATOM      9  C   UNL     1       2.060   4.301  17.930  0.00  0.00    +0.000 A 
ATOM     10  C   UNL     1       0.934   3.625  18.404  0.00  0.00    +0.000 A 
ATOM     11  C   UNL     1       1.044   2.303  18.805  0.00  0.00    +0.000 A 
ATOM     12  C   UNL     1       2.272   1.647  18.714  0.00  0.00    +0.000 A 
ATOM     13  C   UNL     1       3.403   2.326  18.239  0.00  0.00    +0.000 A 
ENDBRANCH   5   8
ENDBRANCH   1   7
BRANCH   1  14
ATOM     14  C   UNL     1       8.007   7.374  18.318  0.00  0.00    +0.000 C 
ATOM     15  O   UNL     1       8.194   6.348  18.964  0.00  0.00    +0.000 OA
ATOM     16  N   UNL     1       8.666   8.523  18.675  0.00  0.00    +0.000 N 
ATOM     17  H   UNL     1       9.204   8.445  19.533  0.00  0.00    +0.000 HD
BRANCH  16  18
ATOM     18  C   UNL     1       8.485   9.815  18.059  0.00  0.00    +0.000 C 
BRANCH  18  19
ATOM     19  C   UNL     1       9.125  10.958  18.799  0.00  0.00    +0.000 A 
ATOM     20  C   UNL     1      10.004  10.660  19.858  0.00  0.00    +0.000 A 
ATOM     21  C   UNL     1      10.706  11.674  20.508  0.00  0.00    +0.000 A 
ATOM     22  C   UNL     1      10.524  12.992  20.114  0.00  0.00    +0.000 A 
ATOM     23  F   UNL     1      11.211  13.963  20.728  0.00  0.00    +0.000 F 
ATOM     24  C   UNL     1       9.651  13.317  19.085  0.00  0.00    +0.000 A 
ATOM     25  C   UNL     1       8.955  12.301  18.426  0.00  0.00    +0.000 A 
ATOM     26 CL   UNL     1       7.916  12.757  17.124  0.00  0.00    +0.000 Cl
ENDBRANCH  18  19
ENDBRANCH  16  18
ENDBRANCH   1  14
TORSDOF 5
ENDMDL
MODEL 2
REMARK VINA RESULT:      -8.3      4.014      6.233
REMARK  Name = 
REMARK  6 active torsions:
REMARK  status: ('A' for Active; 'I' for Inactive)
REMARK    1  A    between atoms: C_1  and  C_2
REMARK    2  A    between atoms: C_4  and  C_5
REMARK    3  A    between atoms: C_12  and  C_13
REMARK    4  A    between atoms: C_13  and  C_14
REMARK    5  A    between atoms: N_16  and  C_17
REMARK    6  A    between atoms: C_17  and  C_18
REMARK                            x       y       z     vdW  Elec       q    Type
REMARK                         _______ _______ _______ _____ _____    ______ ____
ROOT
ATOM      1  C   UNL     1       3.246   3.173  18.718  0.00  0.00    +0.000 C 
ENDROOT
BRANCH   1   7
ATOM      2  C   UNL     1       1.781   3.411  21.689  0.00  0.00    +0.000 C 
ATOM      3  C   UNL     1       2.037   4.463  20.670  0.00  0.00    +0.000 A 
ATOM      4  N   UNL     1       1.612   5.739  20.985  0.00  0.00    +0.000 NA
ATOM      5  C   UNL     1       1.864   6.595  20.017  0.00  0.00    +0.000 A 
ATOM      6  S   UNL     1       2.664   5.897  18.667  0.00  0.00    +0.000 S 
ATOM      7  C   UNL     1       2.636   4.346  19.426  0.00  0.00    +0.000 A 
BRANCH   5   8
ATOM      8  C   UNL     1       1.467   8.014  20.089  0.00  0.00    +0.000 A 
ATOM      9  C   UNL     1       1.548   8.779  18.908  0.00  0.00    +0.000 A 
ATOM     10  C   UNL     1       1.277  10.148  18.906  0.00  0.00    +0.000 A 
ATOM     11  C   UNL     1       0.913  10.779  20.085  0.00  0.00    +0.000 A 
ATOM     12  C   UNL     1       0.798  10.041  21.263  0.00  0.00    +0.000 A 
ATOM     13  C   UNL     1       1.070   8.666  21.266  0.00  0.00    +0.000 A 
ENDBRANCH   5   8
ENDBRANCH   1   7
BRANCH   1  14
ATOM     14  C   UNL     1       4.637   2.832  19.232  0.00  0.00    +0.000 C 
ATOM     15  O   UNL     1       4.807   2.105  20.205  0.00  0.00    +0.000 OA
ATOM     16  N   UNL     1       5.727   3.363  18.590  0.00  0.00    +0.000 N 
ATOM     17  H   UNL     1       6.613   3.174  19.049  0.00  0.00    +0.000 HD
BRANCH  16  18
ATOM     18  C   UNL     1       5.676   4.292  17.488  0.00  0.00    +0.000 C 
BRANCH  18  19
ATOM     19  C   UNL     1       6.415   5.582  17.721  0.00  0.00    +0.000 A 
ATOM     20  C   UNL     1       7.446   5.599  18.680  0.00  0.00    +0.000 A 
ATOM     21  C   UNL     1       8.233   6.735  18.861  0.00  0.00    +0.000 A 
ATOM     22  C   UNL     1       7.986   7.866  18.095  0.00  0.00    +0.000 A 
ATOM     23  F   UNL     1       8.753   8.951  18.258  0.00  0.00    +0.000 F 
ATOM     24  C   UNL     1       6.965   7.885  17.154  0.00  0.00    +0.000 A 
ATOM     25  C   UNL     1       6.183   6.743  16.964  0.00  0.00    +0.000 A 
ATOM     26 CL   UNL     1       4.956   6.806  15.750  0.00  0.00    +0.000 Cl
ENDBRANCH  18  19
ENDBRANCH  16  18
ENDBRANCH   1  14
TORSDOF 5
ENDMDL
MODEL 3
REMARK VINA RESULT:      -8.3      4.136      6.528
REMARK  Name = 
REMARK  6 active torsions:
REMARK  status: ('A' for Active; 'I' for Inactive)
REMARK    1  A    between atoms: C_1  and  C_2
REMARK    2  A    between atoms: C_4  and  C_5
REMARK    3  A    between atoms: C_12  and  C_13
REMARK    4  A    between atoms: C_13  and  C_14
REMARK    5  A    between atoms: N_16  and  C_17
REMARK    6  A    between atoms: C_17  and  C_18
REMARK                            x       y       z     vdW  Elec       q    Type
REMARK                         _______ _______ _______ _____ _____    ______ ____
ROOT
ATOM      1  C   UNL     1       2.569   3.443  17.995  0.00  0.00    +0.000 C 
ENDROOT
BRANCH   1   7
ATOM      2  C   UNL     1       1.389   3.348  21.098  0.00  0.00    +0.000 C 
ATOM      3  C   UNL     1       1.677   4.519  20.228  0.00  0.00    +0.000 A 
ATOM      4  N   UNL     1       1.425   5.764  20.770  0.00  0.00    +0.000 NA
ATOM      5  C   UNL     1       1.692   6.734  19.921  0.00  0.00    +0.000 A 
ATOM      6  S   UNL     1       2.294   6.185  18.409  0.00  0.00    +0.000 S 
ATOM      7  C   UNL     1       2.155   4.543  18.926  0.00  0.00    +0.000 A 
BRANCH   5   8
ATOM      8  C   UNL     1       1.463   8.156  20.243  0.00  0.00    +0.000 A 
ATOM      9  C   UNL     1       1.242   8.496  21.592  0.00  0.00    +0.000 A 
ATOM     10  C   UNL     1       0.930   9.802  21.973  0.00  0.00    +0.000 A 
ATOM     11  C   UNL     1       0.837  10.796  21.011  0.00  0.00    +0.000 A 
ATOM     12  C   UNL     1       1.078  10.492  19.671  0.00  0.00    +0.000 A 
ATOM     13  C   UNL     1       1.391   9.181  19.288  0.00  0.00    +0.000 A 
ENDBRANCH   5   8
ENDBRANCH   1   7
BRANCH   1  14
ATOM     14  C   UNL     1       3.829   2.725  18.454  0.00  0.00    +0.000 C 
ATOM     15  O   UNL     1       3.798   1.844  19.308  0.00  0.00    +0.000 OA
ATOM     16  N   UNL     1       5.032   3.081  17.901  0.00  0.00    +0.000 N 
ATOM     17  H   UNL     1       5.837   2.631  18.327  0.00  0.00    +0.000 HD
BRANCH  16  18
ATOM     18  C   UNL     1       5.231   4.149  16.949  0.00  0.00    +0.000 C 
BRANCH  18  19
ATOM     19  C   UNL     1       6.094   5.277  17.444  0.00  0.00    +0.000 A 
ATOM     20  C   UNL     1       6.982   5.023  18.507  0.00  0.00    +0.000 A 
ATOM     21  C   UNL     1       7.880   6.000  18.934  0.00  0.00    +0.000 A 
ATOM     22  C   UNL     1       7.887   7.241  18.312  0.00  0.00    +0.000 A 
ATOM     23  F   UNL     1       8.761   8.172  18.712  0.00  0.00    +0.000 F 
ATOM     24  C   UNL     1       7.011   7.525  17.273  0.00  0.00    +0.000 A 
ATOM     25  C   UNL     1       6.119   6.543  16.836  0.00  0.00    +0.000 A 
ATOM     26 CL   UNL     1       5.083   6.935  15.511  0.00  0.00    +0.000 Cl
ENDBRANCH  18  19
ENDBRANCH  16  18
ENDBRANCH   1  14
TORSDOF 5
ENDMDL
MODEL 4
REMARK VINA RESULT:      -8.1      4.911      7.046
REMARK  Name = 
REMARK  6 active torsions:
REMARK  status: ('A' for Active; 'I' for Inactive)
REMARK    1  A    between atoms: C_1  and  C_2
REMARK    2  A    between atoms: C_4  and  C_5
REMARK    3  A    between atoms: C_12  and  C_13
REMARK    4  A    between atoms: C_13  and  C_14
REMARK    5  A    between atoms: N_16  and  C_17
REMARK    6  A    between atoms: C_17  and  C_18
REMARK                            x       y       z     vdW  Elec       q    Type
REMARK                         _______ _______ _______ _____ _____    ______ ____
ROOT
ATOM      1  C   UNL     1       4.461   3.792  19.381  0.00  0.00    +0.000 C 
ENDROOT
BRANCH   1   7
ATOM      2  C   UNL     1       7.225   5.627  19.247  0.00  0.00    +0.000 C 
ATOM      3  C   UNL     1       6.481   4.951  18.152  0.00  0.00    +0.000 A 
ATOM      4  N   UNL     1       6.998   5.093  16.879  0.00  0.00    +0.000 NA
ATOM      5  C   UNL     1       6.263   4.478  15.977  0.00  0.00    +0.000 A 
ATOM      6  S   UNL     1       4.901   3.662  16.633  0.00  0.00    +0.000 S 
ATOM      7  C   UNL     1       5.317   4.201  18.221  0.00  0.00    +0.000 A 
BRANCH   5   8
ATOM      8  C   UNL     1       6.576   4.517  14.536  0.00  0.00    +0.000 A 
ATOM      9  C   UNL     1       5.875   3.638  13.688  0.00  0.00    +0.000 A 
ATOM     10  C   UNL     1       6.171   3.546  12.327  0.00  0.00    +0.000 A 
ATOM     11  C   UNL     1       7.173   4.337  11.786  0.00  0.00    +0.000 A 
ATOM     12  C   UNL     1       7.865   5.236  12.598  0.00  0.00    +0.000 A 
ATOM     13  C   UNL     1       7.568   5.329  13.964  0.00  0.00    +0.000 A 
ENDBRANCH   5   8
ENDBRANCH   1   7
BRANCH   1  14
ATOM     14  C   UNL     1       2.973   3.845  19.064  0.00  0.00    +0.000 C 
ATOM     15  O   UNL     1       2.397   2.919  18.502  0.00  0.00    +0.000 OA
ATOM     16  N   UNL     1       2.263   4.965  19.413  0.00  0.00    +0.000 N 
ATOM     17  H   UNL     1       1.303   4.970  19.080  0.00  0.00    +0.000 HD
BRANCH  16  18
ATOM     18  C   UNL     1       2.821   6.157  20.005  0.00  0.00    +0.000 C 
BRANCH  18  19
ATOM     19  C   UNL     1       2.232   7.445  19.497  0.00  0.00    +0.000 A 
ATOM     20  C   UNL     1       1.368   8.166  20.344  0.00  0.00    +0.000 A 
ATOM     21  C   UNL     1       0.879   9.415  19.966  0.00  0.00    +0.000 A 
ATOM     22  C   UNL     1       1.237   9.946  18.735  0.00  0.00    +0.000 A 
ATOM     23  F   UNL     1       0.779  11.153  18.381  0.00  0.00    +0.000 F 
ATOM     24  C   UNL     1       2.072   9.250  17.872  0.00  0.00    +0.000 A 
ATOM     25  C   UNL     1       2.572   8.003  18.254  0.00  0.00    +0.000 A 
ATOM     26 CL   UNL     1       3.643   7.201  17.161  0.00  0.00    +0.000 Cl
ENDBRANCH  18  19
ENDBRANCH  16  18
ENDBRANCH   1  14
TORSDOF 5
ENDMDL
MODEL 5
REMARK VINA RESULT:      -8.1      5.154      7.364
REMARK  Name = 
REMARK  6 active torsions:
REMARK  status: ('A' for Active; 'I' for Inactive)
REMARK    1  A    between atoms: C_1  and  C_2
REMARK    2  A    between atoms: C_4  and  C_5
REMARK    3  A    between atoms: C_12  and  C_13
REMARK    4  A    between atoms: C_13  and  C_14
REMARK    5  A    between atoms: N_16  and  C_17
REMARK    6  A    between atoms: C_17  and  C_18
REMARK                            x       y       z     vdW  Elec       q    Type
REMARK                         _______ _______ _______ _____ _____    ______ ____
ROOT
ATOM      1  C   UNL     1       2.578   4.674  19.261  0.00  0.00    +0.000 C 
ENDROOT
BRANCH   1   7
ATOM      2  C   UNL     1       3.438   7.412  17.590  0.00  0.00    +0.000 C 
ATOM      3  C   UNL     1       2.579   7.266  18.795  0.00  0.00    +0.000 A 
ATOM      4  N   UNL     1       2.048   8.430  19.315  0.00  0.00    +0.000 NA
ATOM      5  C   UNL     1       1.320   8.202  20.388  0.00  0.00    +0.000 A 
ATOM      6  S   UNL     1       1.218   6.542  20.816  0.00  0.00    +0.000 S 
ATOM      7  C   UNL     1       2.242   6.116  19.492  0.00  0.00    +0.000 A 
BRANCH   5   8
ATOM      8  C   UNL     1       0.679   9.287  21.157  0.00  0.00    +0.000 A 
ATOM      9  C   UNL     1       0.114   8.960  22.406  0.00  0.00    +0.000 A 
ATOM     10  C   UNL     1      -0.588   9.903  23.157  0.00  0.00    +0.000 A 
ATOM     11  C   UNL     1      -0.734  11.195  22.677  0.00  0.00    +0.000 A 
ATOM     12  C   UNL     1      -0.162  11.553  21.456  0.00  0.00    +0.000 A 
ATOM     13  C   UNL     1       0.544  10.607  20.701  0.00  0.00    +0.000 A 
ENDBRANCH   5   8
ENDBRANCH   1   7
BRANCH   1  14
ATOM     14  C   UNL     1       2.220   4.202  17.859  0.00  0.00    +0.000 C 
ATOM     15  O   UNL     1       1.106   4.387  17.378  0.00  0.00    +0.000 OA
ATOM     16  N   UNL     1       3.171   3.546  17.119  0.00  0.00    +0.000 N 
ATOM     17  H   UNL     1       2.830   3.174  16.238  0.00  0.00    +0.000 HD
BRANCH  16  18
ATOM     18  C   UNL     1       4.491   3.190  17.582  0.00  0.00    +0.000 C 
BRANCH  18  19
ATOM     19  C   UNL     1       5.449   4.345  17.692  0.00  0.00    +0.000 A 
ATOM     20  C   UNL     1       5.889   4.730  18.973  0.00  0.00    +0.000 A 
ATOM     21  C   UNL     1       6.857   5.722  19.125  0.00  0.00    +0.000 A 
ATOM     22  C   UNL     1       7.381   6.344  18.001  0.00  0.00    +0.000 A 
ATOM     23  F   UNL     1       8.322   7.285  18.148  0.00  0.00    +0.000 F 
ATOM     24  C   UNL     1       6.953   5.998  16.726  0.00  0.00    +0.000 A 
ATOM     25  C   UNL     1       5.992   4.996  16.571  0.00  0.00    +0.000 A 
ATOM     26 CL   UNL     1       5.528   4.573  14.962  0.00  0.00    +0.000 Cl
ENDBRANCH  18  19
ENDBRANCH  16  18
ENDBRANCH   1  14
TORSDOF 5
ENDMDL
MODEL 6
REMARK VINA RESULT:      -8.0      4.520      6.825
REMARK  Name = 
REMARK  6 active torsions:
REMARK  status: ('A' for Active; 'I' for Inactive)
REMARK    1  A    between atoms: C_1  and  C_2
REMARK    2  A    between atoms: C_4  and  C_5
REMARK    3  A    between atoms: C_12  and  C_13
REMARK    4  A    between atoms: C_13  and  C_14
REMARK    5  A    between atoms: N_16  and  C_17
REMARK    6  A    between atoms: C_17  and  C_18
REMARK                            x       y       z     vdW  Elec       q    Type
REMARK                         _______ _______ _______ _____ _____    ______ ____
ROOT
ATOM      1  C   UNL     1       2.112   2.464  18.227  0.00  0.00    +0.000 C 
ENDROOT
BRANCH   1   7
ATOM      2  C   UNL     1       2.410   2.941  21.500  0.00  0.00    +0.000 C 
ATOM      3  C   UNL     1       2.178   3.930  20.414  0.00  0.00    +0.000 A 
ATOM      4  N   UNL     1       2.067   5.251  20.801  0.00  0.00    +0.000 NA
ATOM      5  C   UNL     1       1.844   6.047  19.777  0.00  0.00    +0.000 A 
ATOM      6  S   UNL     1       1.781   5.231  18.267  0.00  0.00    +0.000 S 
ATOM      7  C   UNL     1       2.039   3.714  19.052  0.00  0.00    +0.000 A 
BRANCH   5   8
ATOM      8  C   UNL     1       1.641   7.500  19.930  0.00  0.00    +0.000 A 
ATOM      9  C   UNL     1       1.259   7.979  21.198  0.00  0.00    +0.000 A 
ATOM     10  C   UNL     1       0.960   9.326  21.409  0.00  0.00    +0.000 A 
ATOM     11  C   UNL     1       1.043  10.223  20.355  0.00  0.00    +0.000 A 
ATOM     12  C   UNL     1       1.446   9.780  19.095  0.00  0.00    +0.000 A 
ATOM     13  C   UNL     1       1.746   8.428  18.883  0.00  0.00    +0.000 A 
ENDBRANCH   5   8
ENDBRANCH   1   7
BRANCH   1  14
ATOM     14  C   UNL     1       3.486   1.810  18.267  0.00  0.00    +0.000 C 
ATOM     15  O   UNL     1       3.685   0.758  18.867  0.00  0.00    +0.000 OA
ATOM     16  N   UNL     1       4.529   2.423  17.620  0.00  0.00    +0.000 N 
ATOM     17  H   UNL     1       5.431   1.983  17.775  0.00  0.00    +0.000 HD
BRANCH  16  18
ATOM     18  C   UNL     1       4.460   3.697  16.945  0.00  0.00    +0.000 C 
BRANCH  18  19
ATOM     19  C   UNL     1       5.487   4.700  17.394  0.00  0.00    +0.000 A 
ATOM     20  C   UNL     1       5.773   4.795  18.770  0.00  0.00    +0.000 A 
ATOM     21  C   UNL     1       6.790   5.630  19.230  0.00  0.00    +0.000 A 
ATOM     22  C   UNL     1       7.518   6.385  18.321  0.00  0.00    +0.000 A 
ATOM     23  F   UNL     1       8.505   7.174  18.763  0.00  0.00    +0.000 F 
ATOM     24  C   UNL     1       7.247   6.325  16.961  0.00  0.00    +0.000 A 
ATOM     25  C   UNL     1       6.236   5.480  16.497  0.00  0.00    +0.000 A 
ATOM     26 CL   UNL     1       5.970   5.410  14.792  0.00  0.00    +0.000 Cl
ENDBRANCH  18  19
ENDBRANCH  16  18
ENDBRANCH   1  14
TORSDOF 5
ENDMDL
MODEL 7
REMARK VINA RESULT:      -8.0      4.488      7.027
REMARK  Name = 
REMARK  6 active torsions:
REMARK  status: ('A' for Active; 'I' for Inactive)
REMARK    1  A    between atoms: C_1  and  C_2
REMARK    2  A    between atoms: C_4  and  C_5
REMARK    3  A    between atoms: C_12  and  C_13
REMARK    4  A    between atoms: C_13  and  C_14
REMARK    5  A    between atoms: N_16  and  C_17
REMARK    6  A    between atoms: C_17  and  C_18
REMARK                            x       y       z     vdW  Elec       q    Type
REMARK                         _______ _______ _______ _____ _____    ______ ____
ROOT
ATOM      1  C   UNL     1       5.011   5.673  19.335  0.00  0.00    +0.000 C 
ENDROOT
BRANCH   1   7
ATOM      2  C   UNL     1       7.939   6.975  18.463  0.00  0.00    +0.000 C 
ATOM      3  C   UNL     1       6.990   6.154  17.665  0.00  0.00    +0.000 A 
ATOM      4  N   UNL     1       7.362   5.879  16.364  0.00  0.00    +0.000 NA
ATOM      5  C   UNL     1       6.453   5.165  15.733  0.00  0.00    +0.000 A 
ATOM      6  S   UNL     1       5.094   4.762  16.702  0.00  0.00    +0.000 S 
ATOM      7  C   UNL     1       5.762   5.631  18.038  0.00  0.00    +0.000 A 
BRANCH   5   8
ATOM      8  C   UNL     1       6.591   4.777  14.316  0.00  0.00    +0.000 A 
ATOM      9  C   UNL     1       5.713   3.795  13.816  0.00  0.00    +0.000 A 
ATOM     10  C   UNL     1       5.832   3.306  12.514  0.00  0.00    +0.000 A 
ATOM     11  C   UNL     1       6.828   3.795  11.684  0.00  0.00    +0.000 A 
ATOM     12  C   UNL     1       7.694   4.787  12.144  0.00  0.00    +0.000 A 
ATOM     13  C   UNL     1       7.575   5.279  13.451  0.00  0.00    +0.000 A 
ENDBRANCH   5   8
ENDBRANCH   1   7
BRANCH   1  14
ATOM     14  C   UNL     1       3.643   5.011  19.246  0.00  0.00    +0.000 C 
ATOM     15  O   UNL     1       3.493   3.807  19.428  0.00  0.00    +0.000 OA
ATOM     16  N   UNL     1       2.552   5.787  18.945  0.00  0.00    +0.000 N 
ATOM     17  H   UNL     1       1.695   5.262  18.804  0.00  0.00    +0.000 HD
BRANCH  16  18
ATOM     18  C   UNL     1       2.590   7.195  18.630  0.00  0.00    +0.000 C 
BRANCH  18  19
ATOM     19  C   UNL     1       1.811   8.069  19.574  0.00  0.00    +0.000 A 
ATOM     20  C   UNL     1       1.610   7.618  20.893  0.00  0.00    +0.000 A 
ATOM     21  C   UNL     1       0.989   8.433  21.838  0.00  0.00    +0.000 A 
ATOM     22  C   UNL     1       0.553   9.698  21.468  0.00  0.00    +0.000 A 
ATOM     23  F   UNL     1      -0.028  10.485  22.382  0.00  0.00    +0.000 F 
ATOM     24  C   UNL     1       0.722  10.163  20.171  0.00  0.00    +0.000 A 
ATOM     25  C   UNL     1       1.354   9.352  19.226  0.00  0.00    +0.000 A 
ATOM     26 CL   UNL     1       1.578   9.996  17.639  0.00  0.00    +0.000 Cl
ENDBRANCH  18  19
ENDBRANCH  16  18
ENDBRANCH   1  14
TORSDOF 5
ENDMDL
MODEL 8
REMARK VINA RESULT:      -7.9      5.598      8.046
REMARK  Name = 
REMARK  6 active torsions:
REMARK  status: ('A' for Active; 'I' for Inactive)
REMARK    1  A    between atoms: C_1  and  C_2
REMARK    2  A    between atoms: C_4  and  C_5
REMARK    3  A    between atoms: C_12  and  C_13
REMARK    4  A    between atoms: C_13  and  C_14
REMARK    5  A    between atoms: N_16  and  C_17
REMARK    6  A    between atoms: C_17  and  C_18
REMARK                            x       y       z     vdW  Elec       q    Type
REMARK                         _______ _______ _______ _____ _____    ______ ____
ROOT
ATOM      1  C   UNL     1       2.986   6.028  18.038  0.00  0.00    +0.000 C 
ENDROOT
BRANCH   1   7
ATOM      2  C   UNL     1       2.132   4.807  21.005  0.00  0.00    +0.000 C 
ATOM      3  C   UNL     1       1.921   6.166  20.443  0.00  0.00    +0.000 A 
ATOM      4  N   UNL     1       1.275   7.075  21.258  0.00  0.00    +0.000 NA
ATOM      5  C   UNL     1       1.117   8.241  20.668  0.00  0.00    +0.000 A 
ATOM      6  S   UNL     1       1.773   8.309  19.083  0.00  0.00    +0.000 S 
ATOM      7  C   UNL     1       2.269   6.658  19.194  0.00  0.00    +0.000 A 
BRANCH   5   8
ATOM      8  C   UNL     1       0.414   9.368  21.312  0.00  0.00    +0.000 A 
ATOM      9  C   UNL     1       0.500  10.632  20.696  0.00  0.00    +0.000 A 
ATOM     10  C   UNL     1      -0.058  11.768  21.284  0.00  0.00    +0.000 A 
ATOM     11  C   UNL     1      -0.720  11.661  22.497  0.00  0.00    +0.000 A 
ATOM     12  C   UNL     1      -0.843  10.417  23.115  0.00  0.00    +0.000 A 
ATOM     13  C   UNL     1      -0.282   9.275  22.526  0.00  0.00    +0.000 A 
ENDBRANCH   5   8
ENDBRANCH   1   7
BRANCH   1  14
ATOM     14  C   UNL     1       2.441   4.653  17.684  0.00  0.00    +0.000 C 
ATOM     15  O   UNL     1       1.251   4.469  17.449  0.00  0.00    +0.000 OA
ATOM     16  N   UNL     1       3.308   3.591  17.634  0.00  0.00    +0.000 N 
ATOM     17  H   UNL     1       2.857   2.692  17.491  0.00  0.00    +0.000 HD
BRANCH  16  18
ATOM     18  C   UNL     1       4.712   3.643  17.962  0.00  0.00    +0.000 C 
BRANCH  18  19
ATOM     19  C   UNL     1       5.607   4.048  16.823  0.00  0.00    +0.000 A 
ATOM     20  C   UNL     1       5.290   3.595  15.528  0.00  0.00    +0.000 A 
ATOM     21  C   UNL     1       6.021   4.026  14.423  0.00  0.00    +0.000 A 
ATOM     22  C   UNL     1       7.083   4.901  14.605  0.00  0.00    +0.000 A 
ATOM     23  F   UNL     1       7.774   5.327  13.540  0.00  0.00    +0.000 F 
ATOM     24  C   UNL     1       7.430   5.351  15.871  0.00  0.00    +0.000 A 
ATOM     25  C   UNL     1       6.691   4.929  16.979  0.00  0.00    +0.000 A 
ATOM     26 CL   UNL     1       7.138   5.554  18.526  0.00  0.00    +0.000 Cl
ENDBRANCH  18  19
ENDBRANCH  16  18
ENDBRANCH   1  14
TORSDOF 5
ENDMDL
MODEL 9
REMARK VINA RESULT:      -7.9      4.267      6.569
REMARK  Name = 
REMARK  6 active torsions:
REMARK  status: ('A' for Active; 'I' for Inactive)
REMARK    1  A    between atoms: C_1  and  C_2
REMARK    2  A    between atoms: C_4  and  C_5
REMARK    3  A    between atoms: C_12  and  C_13
REMARK    4  A    between atoms: C_13  and  C_14
REMARK    5  A    between atoms: N_16  and  C_17
REMARK    6  A    between atoms: C_17  and  C_18
REMARK                            x       y       z     vdW  Elec       q    Type
REMARK                         _______ _______ _______ _____ _____    ______ ____
ROOT
ATOM      1  C   UNL     1       3.883   3.792  18.683  0.00  0.00    +0.000 C 
ENDROOT
BRANCH   1   7
ATOM      2  C   UNL     1       1.989   3.483  21.394  0.00  0.00    +0.000 C 
ATOM      3  C   UNL     1       2.292   4.690  20.580  0.00  0.00    +0.000 A 
ATOM      4  N   UNL     1       1.711   5.872  20.995  0.00  0.00    +0.000 NA
ATOM      5  C   UNL     1       2.020   6.878  20.204  0.00  0.00    +0.000 A 
ATOM      6  S   UNL     1       3.067   6.446  18.913  0.00  0.00    +0.000 S 
ATOM      7  C   UNL     1       3.073   4.801  19.440  0.00  0.00    +0.000 A 
BRANCH   5   8
ATOM      8  C   UNL     1       1.488   8.239  20.405  0.00  0.00    +0.000 A 
ATOM      9  C   UNL     1       1.141   8.621  21.716  0.00  0.00    +0.000 A 
ATOM     10  C   UNL     1       0.548   9.856  21.982  0.00  0.00    +0.000 A 
ATOM     11  C   UNL     1       0.295  10.737  20.942  0.00  0.00    +0.000 A 
ATOM     12  C   UNL     1       0.653  10.396  19.638  0.00  0.00    +0.000 A 
ATOM     13  C   UNL     1       1.249   9.156  19.370  0.00  0.00    +0.000 A 
ENDBRANCH   5   8
ENDBRANCH   1   7
BRANCH   1  14
ATOM     14  C   UNL     1       3.503   3.713  17.212  0.00  0.00    +0.000 C 
ATOM     15  O   UNL     1       2.333   3.679  16.846  0.00  0.00    +0.000 OA
ATOM     16  N   UNL     1       4.502   3.672  16.273  0.00  0.00    +0.000 N 
ATOM     17  H   UNL     1       4.175   3.518  15.323  0.00  0.00    +0.000 HD
BRANCH  16  18
ATOM     18  C   UNL     1       5.916   3.625  16.559  0.00  0.00    +0.000 C 
BRANCH  18  19
ATOM     19  C   UNL     1       6.479   4.890  17.145  0.00  0.00    +0.000 A 
ATOM     20  C   UNL     1       7.358   4.787  18.241  0.00  0.00    +0.000 A 
ATOM     21  C   UNL     1       7.992   5.917  18.755  0.00  0.00    +0.000 A 
ATOM     22  C   UNL     1       7.741   7.159  18.188  0.00  0.00    +0.000 A 
ATOM     23  F   UNL     1       8.363   8.241  18.673  0.00  0.00    +0.000 F 
ATOM     24  C   UNL     1       6.866   7.294  17.118  0.00  0.00    +0.000 A 
ATOM     25  C   UNL     1       6.239   6.161  16.595  0.00  0.00    +0.000 A 
ATOM     26 CL   UNL     1       5.195   6.379  15.236  0.00  0.00    +0.000 Cl
ENDBRANCH  18  19
ENDBRANCH  16  18
ENDBRANCH   1  14
TORSDOF 5
ENDMDL
