MODEL 1
REMARK VINA RESULT:      -7.6      0.000      0.000
REMARK  Name = 
REMARK  5 active torsions:
REMARK  status: ('A' for Active; 'I' for Inactive)
REMARK    1  A    between atoms: C_1  and  C_2
REMARK    2  A    between atoms: N_4  and  C_5
REMARK    3  A    between atoms: N_4  and  C_11
REMARK    4  A    between atoms: N_14  and  S_15
REMARK    5  A    between atoms: S_15  and  C_18
REMARK                            x       y       z     vdW  Elec       q    Type
REMARK                         _______ _______ _______ _____ _____    ______ ____
ROOT
ATOM      1  C   UNL     1       4.442   4.360  16.642  0.00  0.00    +0.000 C 
ATOM      2  C   UNL     1       4.547   3.177  17.607  0.00  0.00    +0.000 C 
ATOM      3  C   UNL     1       3.119   3.011  18.112  0.00  0.00    +0.000 C 
ATOM      4  N   UNL     1       2.642   4.409  18.295  0.00  0.00    +0.000 NA
ATOM      5  C   UNL     1       3.240   5.185  17.156  0.00  0.00    +0.000 C 
ENDROOT
BRANCH   1   9
ATOM      6  C   UNL     1       5.990   3.795  14.267  0.00  0.00    +0.000 C 
ATOM      7  C   UNL     1       6.541   4.742  15.305  0.00  0.00    +0.000 C 
ATOM      8  O   UNL     1       7.663   5.215  15.130  0.00  0.00    +0.000 OA
ATOM      9  N   UNL     1       5.738   5.044  16.418  0.00  0.00    +0.000 N 
BRANCH   9  10
ATOM     10  C   UNL     1       6.298   5.973  17.453  0.00  0.00    +0.000 C 
ATOM     11  C   UNL     1       6.690   7.330  16.837  0.00  0.00    +0.000 C 
ATOM     12  C   UNL     1       7.449   8.213  17.813  0.00  0.00    +0.000 C 
ATOM     13  O   UNL     1       8.550   7.514  18.382  0.00  0.00    +0.000 OA
ATOM     14  C   UNL     1       8.125   6.398  19.158  0.00  0.00    +0.000 C 
ATOM     15  C   UNL     1       7.431   5.354  18.290  0.00  0.00    +0.000 C 
ENDBRANCH   9  10
ENDBRANCH   1   9
BRANCH   4  16
ATOM     16  S   UNL     1       2.909   5.092  19.839  0.00  0.00    +0.000 S 
ATOM     17  O   UNL     1       2.224   4.276  20.825  0.00  0.00    +0.000 OA
ATOM     18  O   UNL     1       4.321   5.376  19.971  0.00  0.00    +0.000 OA
BRANCH  16  19
ATOM     19  C   UNL     1       2.099   6.673  19.762  0.00  0.00    +0.000 A 
ATOM     20  C   UNL     1       1.480   7.212  20.901  0.00  0.00    +0.000 A 
ATOM     21  C   UNL     1       1.054   8.544  20.887  0.00  0.00    +0.000 A 
ATOM     22  C   UNL     1       1.248   9.322  19.748  0.00  0.00    +0.000 A 
ATOM     23  F   UNL     1       0.878  10.609  19.758  0.00  0.00    +0.000 F 
ATOM     24  C   UNL     1       1.847   8.776  18.615  0.00  0.00    +0.000 A 
ATOM     25  F   UNL     1       2.052   9.533  17.533  0.00  0.00    +0.000 F 
ATOM     26  C   UNL     1       2.275   7.452  18.612  0.00  0.00    +0.000 A 
ENDBRANCH  16  19
ENDBRANCH   4  16
TORSDOF 4
ENDMDL
MODEL 2
REMARK VINA RESULT:      -7.6      0.615      1.340
REMARK  Name = 
REMARK  5 active torsions:
REMARK  status: ('A' for Active; 'I' for Inactive)
REMARK    1  A    between atoms: C_1  and  C_2
REMARK    2  A    between atoms: N_4  and  C_5
REMARK    3  A    between atoms: N_4  and  C_11
REMARK    4  A    between atoms: N_14  and  S_15
REMARK    5  A    between atoms: S_15  and  C_18
REMARK                            x       y       z     vdW  Elec       q    Type
REMARK                         _______ _______ _______ _____ _____    ______ ____
ROOT
ATOM      1  C   UNL     1       4.265   4.430  16.721  0.00  0.00    +0.000 C 
ATOM      2  C   UNL     1       4.209   3.238  17.679  0.00  0.00    +0.000 C 
ATOM      3  C   UNL     1       2.755   3.226  18.135  0.00  0.00    +0.000 C 
ATOM      4  N   UNL     1       2.426   4.666  18.314  0.00  0.00    +0.000 NA
ATOM      5  C   UNL     1       3.143   5.378  17.202  0.00  0.00    +0.000 C 
ENDROOT
BRANCH   1   9
ATOM      6  C   UNL     1       5.862   3.630  14.448  0.00  0.00    +0.000 C 
ATOM      7  C   UNL     1       6.456   4.550  15.486  0.00  0.00    +0.000 C 
ATOM      8  O   UNL     1       7.628   4.900  15.356  0.00  0.00    +0.000 OA
ATOM      9  N   UNL     1       5.635   4.970  16.546  0.00  0.00    +0.000 N 
BRANCH   9  10
ATOM     10  C   UNL     1       6.236   5.872  17.582  0.00  0.00    +0.000 C 
ATOM     11  C   UNL     1       6.740   7.188  16.957  0.00  0.00    +0.000 C 
ATOM     12  C   UNL     1       7.538   8.028  17.940  0.00  0.00    +0.000 C 
ATOM     13  O   UNL     1       8.572   7.260  18.544  0.00  0.00    +0.000 OA
ATOM     14  C   UNL     1       8.049   6.189  19.325  0.00  0.00    +0.000 C 
ATOM     15  C   UNL     1       7.301   5.186  18.455  0.00  0.00    +0.000 C 
ENDBRANCH   9  10
ENDBRANCH   1   9
BRANCH   4  16
ATOM     16  S   UNL     1       2.713   5.309  19.871  0.00  0.00    +0.000 S 
ATOM     17  O   UNL     1       1.822   4.651  20.809  0.00  0.00    +0.000 OA
ATOM     18  O   UNL     1       4.141   5.324  20.100  0.00  0.00    +0.000 OA
BRANCH  16  19
ATOM     19  C   UNL     1       2.224   7.012  19.736  0.00  0.00    +0.000 A 
ATOM     20  C   UNL     1       2.356   7.698  18.518  0.00  0.00    +0.000 A 
ATOM     21  C   UNL     1       1.759   8.954  18.367  0.00  0.00    +0.000 A 
ATOM     22  C   UNL     1       1.040   9.511  19.421  0.00  0.00    +0.000 A 
ATOM     23  F   UNL     1       0.434  10.693  19.253  0.00  0.00    +0.000 F 
ATOM     24  C   UNL     1       0.927   8.833  20.633  0.00  0.00    +0.000 A 
ATOM     25  F   UNL     1       0.216   9.363  21.634  0.00  0.00    +0.000 F 
ATOM     26  C   UNL     1       1.517   7.584  20.802  0.00  0.00    +0.000 A 
ENDBRANCH  16  19
ENDBRANCH   4  16
TORSDOF 4
ENDMDL
MODEL 3
REMARK VINA RESULT:      -7.4      3.617      7.320
REMARK  Name = 
REMARK  5 active torsions:
REMARK  status: ('A' for Active; 'I' for Inactive)
REMARK    1  A    between atoms: C_1  and  C_2
REMARK    2  A    between atoms: N_4  and  C_5
REMARK    3  A    between atoms: N_4  and  C_11
REMARK    4  A    between atoms: N_14  and  S_15
REMARK    5  A    between atoms: S_15  and  C_18
REMARK                            x       y       z     vdW  Elec       q    Type
REMARK                         _______ _______ _______ _____ _____    ______ ____
ROOT
ATOM      1  C   UNL     1       4.436   6.362  18.498  0.00  0.00    +0.000 C 
ATOM      2  C   UNL     1       5.750   6.010  19.200  0.00  0.00    +0.000 C 
ATOM      3  C   UNL     1       6.809   6.437  18.191  0.00  0.00    +0.000 C 
ATOM      4  N   UNL     1       6.237   6.026  16.880  0.00  0.00    +0.000 NA
ATOM      5  C   UNL     1       4.763   6.293  16.988  0.00  0.00    +0.000 C 
ENDROOT
BRANCH   1   9
ATOM      6  C   UNL     1       2.243   7.740  19.782  0.00  0.00    +0.000 C 
ATOM      7  C   UNL     1       2.228   6.234  19.702  0.00  0.00    +0.000 C 
ATOM      8  O   UNL     1       1.296   5.628  20.229  0.00  0.00    +0.000 OA
ATOM      9  N   UNL     1       3.277   5.597  19.017  0.00  0.00    +0.000 N 
BRANCH   9  10
ATOM     10  C   UNL     1       3.264   4.098  18.954  0.00  0.00    +0.000 C 
ATOM     11  C   UNL     1       2.304   3.591  17.861  0.00  0.00    +0.000 C 
ATOM     12  C   UNL     1       2.111   2.084  17.912  0.00  0.00    +0.000 C 
ATOM     13  O   UNL     1       1.747   1.662  19.222  0.00  0.00    +0.000 OA
ATOM     14  C   UNL     1       2.777   1.927  20.169  0.00  0.00    +0.000 C 
ATOM     15  C   UNL     1       3.019   3.426  20.316  0.00  0.00    +0.000 C 
ENDBRANCH   9  10
ENDBRANCH   1   9
BRANCH   4  16
ATOM     16  S   UNL     1       6.637   4.450  16.352  0.00  0.00    +0.000 S 
ATOM     17  O   UNL     1       7.959   4.122  16.853  0.00  0.00    +0.000 OA
ATOM     18  O   UNL     1       5.512   3.582  16.621  0.00  0.00    +0.000 OA
BRANCH  16  19
ATOM     19  C   UNL     1       6.731   4.593  14.583  0.00  0.00    +0.000 A 
ATOM     20  C   UNL     1       7.680   5.438  13.985  0.00  0.00    +0.000 A 
ATOM     21  C   UNL     1       7.893   5.365  12.605  0.00  0.00    +0.000 A 
ATOM     22  C   UNL     1       7.167   4.457  11.838  0.00  0.00    +0.000 A 
ATOM     23  F   UNL     1       7.409   4.362  10.525  0.00  0.00    +0.000 F 
ATOM     24  C   UNL     1       6.214   3.634  12.435  0.00  0.00    +0.000 A 
ATOM     25  F   UNL     1       5.536   2.749  11.697  0.00  0.00    +0.000 F 
ATOM     26  C   UNL     1       5.987   3.696  13.806  0.00  0.00    +0.000 A 
ENDBRANCH  16  19
ENDBRANCH   4  16
TORSDOF 4
ENDMDL
MODEL 4
REMARK VINA RESULT:      -7.4      3.557      7.275
REMARK  Name = 
REMARK  5 active torsions:
REMARK  status: ('A' for Active; 'I' for Inactive)
REMARK    1  A    between atoms: C_1  and  C_2
REMARK    2  A    between atoms: N_4  and  C_5
REMARK    3  A    between atoms: N_4  and  C_11
REMARK    4  A    between atoms: N_14  and  S_15
REMARK    5  A    between atoms: S_15  and  C_18
REMARK                            x       y       z     vdW  Elec       q    Type
REMARK                         _______ _______ _______ _____ _____    ______ ____
ROOT
ATOM      1  C   UNL     1       4.549   6.588  17.986  0.00  0.00    +0.000 C 
ATOM      2  C   UNL     1       5.861   6.316  18.726  0.00  0.00    +0.000 C 
ATOM      3  C   UNL     1       6.923   6.648  17.685  0.00  0.00    +0.000 C 
ATOM      4  N   UNL     1       6.361   6.106  16.418  0.00  0.00    +0.000 NA
ATOM      5  C   UNL     1       4.884   6.373  16.493  0.00  0.00    +0.000 C 
ENDROOT
BRANCH   1   9
ATOM      6  C   UNL     1       2.278   8.070  18.990  0.00  0.00    +0.000 C 
ATOM      7  C   UNL     1       2.304   6.567  19.126  0.00  0.00    +0.000 C 
ATOM      8  O   UNL     1       1.369   6.015  19.705  0.00  0.00    +0.000 OA
ATOM      9  N   UNL     1       3.392   5.870  18.573  0.00  0.00    +0.000 N 
BRANCH   9  10
ATOM     10  C   UNL     1       3.419   4.379  18.725  0.00  0.00    +0.000 C 
ATOM     11  C   UNL     1       2.420   3.699  17.767  0.00  0.00    +0.000 C 
ATOM     12  C   UNL     1       2.273   2.211  18.043  0.00  0.00    +0.000 C 
ATOM     13  O   UNL     1       1.987   1.974  19.416  0.00  0.00    +0.000 OA
ATOM     14  C   UNL     1       3.054   2.395  20.261  0.00  0.00    +0.000 C 
ATOM     15  C   UNL     1       3.260   3.904  20.180  0.00  0.00    +0.000 C 
ENDBRANCH   9  10
ENDBRANCH   1   9
BRANCH   4  16
ATOM     16  S   UNL     1       6.773   4.489  16.049  0.00  0.00    +0.000 S 
ATOM     17  O   UNL     1       8.016   4.168  16.727  0.00  0.00    +0.000 OA
ATOM     18  O   UNL     1       5.598   3.667  16.240  0.00  0.00    +0.000 OA
BRANCH  16  19
ATOM     19  C   UNL     1       7.078   4.504  14.299  0.00  0.00    +0.000 A 
ATOM     20  C   UNL     1       6.355   3.658  13.442  0.00  0.00    +0.000 A 
ATOM     21  C   UNL     1       6.441   3.845  12.058  0.00  0.00    +0.000 A 
ATOM     22  C   UNL     1       7.238   4.864  11.544  0.00  0.00    +0.000 A 
ATOM     23  F   UNL     1       7.279   5.064  10.221  0.00  0.00    +0.000 F 
ATOM     24  C   UNL     1       7.966   5.689  12.399  0.00  0.00    +0.000 A 
ATOM     25  F   UNL     1       8.711   6.681  11.901  0.00  0.00    +0.000 F 
ATOM     26  C   UNL     1       7.894   5.516  13.778  0.00  0.00    +0.000 A 
ENDBRANCH  16  19
ENDBRANCH   4  16
TORSDOF 4
ENDMDL
MODEL 5
REMARK VINA RESULT:      -6.7      3.570      6.833
REMARK  Name = 
REMARK  5 active torsions:
REMARK  status: ('A' for Active; 'I' for Inactive)
REMARK    1  A    between atoms: C_1  and  C_2
REMARK    2  A    between atoms: N_4  and  C_5
REMARK    3  A    between atoms: N_4  and  C_11
REMARK    4  A    between atoms: N_14  and  S_15
REMARK    5  A    between atoms: S_15  and  C_18
REMARK                            x       y       z     vdW  Elec       q    Type
REMARK                         _______ _______ _______ _____ _____    ______ ____
ROOT
ATOM      1  C   UNL     1       3.693   4.118  19.258  0.00  0.00    +0.000 C 
ATOM      2  C   UNL     1       3.469   3.545  17.857  0.00  0.00    +0.000 C 
ATOM      3  C   UNL     1       4.882   3.250  17.371  0.00  0.00    +0.000 C 
ATOM      4  N   UNL     1       5.675   4.410  17.858  0.00  0.00    +0.000 NA
ATOM      5  C   UNL     1       5.108   4.739  19.210  0.00  0.00    +0.000 C 
ENDROOT
BRANCH   1   9
ATOM      6  C   UNL     1       1.316   2.858  20.317  0.00  0.00    +0.000 C 
ATOM      7  C   UNL     1       1.369   4.361  20.195  0.00  0.00    +0.000 C 
ATOM      8  O   UNL     1       0.372   5.010  20.511  0.00  0.00    +0.000 OA
ATOM      9  N   UNL     1       2.561   4.947  19.735  0.00  0.00    +0.000 N 
BRANCH   9  10
ATOM     10  C   UNL     1       2.601   6.440  19.602  0.00  0.00    +0.000 C 
ATOM     11  C   UNL     1       1.830   7.127  20.746  0.00  0.00    +0.000 C 
ATOM     12  C   UNL     1       1.676   8.623  20.525  0.00  0.00    +0.000 C 
ATOM     13  O   UNL     1       1.133   8.894  19.238  0.00  0.00    +0.000 OA
ATOM     14  C   UNL     1       2.002   8.462  18.195  0.00  0.00    +0.000 C 
ATOM     15  C   UNL     1       2.175   6.947  18.213  0.00  0.00    +0.000 C 
ENDBRANCH   9  10
ENDBRANCH   1   9
BRANCH   4  16
ATOM     16  S   UNL     1       5.787   5.740  16.791  0.00  0.00    +0.000 S 
ATOM     17  O   UNL     1       4.456   6.285  16.598  0.00  0.00    +0.000 OA
ATOM     18  O   UNL     1       6.871   6.588  17.236  0.00  0.00    +0.000 OA
BRANCH  16  19
ATOM     19  C   UNL     1       6.327   5.025  15.256  0.00  0.00    +0.000 A 
ATOM     20  C   UNL     1       5.502   4.126  14.561  0.00  0.00    +0.000 A 
ATOM     21  C   UNL     1       5.838   3.755  13.254  0.00  0.00    +0.000 A 
ATOM     22  C   UNL     1       6.982   4.279  12.657  0.00  0.00    +0.000 A 
ATOM     23  F   UNL     1       7.271   3.953  11.391  0.00  0.00    +0.000 F 
ATOM     24  C   UNL     1       7.805   5.156  13.359  0.00  0.00    +0.000 A 
ATOM     25  F   UNL     1       8.889   5.674  12.773  0.00  0.00    +0.000 F 
ATOM     26  C   UNL     1       7.487   5.535  14.660  0.00  0.00    +0.000 A 
ENDBRANCH  16  19
ENDBRANCH   4  16
TORSDOF 4
ENDMDL
MODEL 6
REMARK VINA RESULT:      -6.7      3.842      7.466
REMARK  Name = 
REMARK  5 active torsions:
REMARK  status: ('A' for Active; 'I' for Inactive)
REMARK    1  A    between atoms: C_1  and  C_2
REMARK    2  A    between atoms: N_4  and  C_5
REMARK    3  A    between atoms: N_4  and  C_11
REMARK    4  A    between atoms: N_14  and  S_15
REMARK    5  A    between atoms: S_15  and  C_18
REMARK                            x       y       z     vdW  Elec       q    Type
REMARK                         _______ _______ _______ _____ _____    ______ ____
ROOT
ATOM      1  C   UNL     1       4.681   5.851  17.466  0.00  0.00    +0.000 C 
ATOM      2  C   UNL     1       5.485   6.995  16.843  0.00  0.00    +0.000 C 
ATOM      3  C   UNL     1       5.191   6.856  15.355  0.00  0.00    +0.000 C 
ATOM      4  N   UNL     1       5.205   5.386  15.125  0.00  0.00    +0.000 NA
ATOM      5  C   UNL     1       4.577   4.786  16.350  0.00  0.00    +0.000 C 
ENDROOT
BRANCH   1   9
ATOM      6  C   UNL     1       7.489   6.123  18.101  0.00  0.00    +0.000 C 
ATOM      7  C   UNL     1       6.555   5.507  19.113  0.00  0.00    +0.000 C 
ATOM      8  O   UNL     1       7.028   5.093  20.172  0.00  0.00    +0.000 OA
ATOM      9  N   UNL     1       5.186   5.445  18.800  0.00  0.00    +0.000 N 
BRANCH   9  10
ATOM     10  C   UNL     1       4.266   4.817  19.804  0.00  0.00    +0.000 C 
ATOM     11  C   UNL     1       4.116   3.303  19.558  0.00  0.00    +0.000 C 
ATOM     12  C   UNL     1       3.033   2.679  20.423  0.00  0.00    +0.000 C 
ATOM     13  O   UNL     1       1.809   3.393  20.300  0.00  0.00    +0.000 OA
ATOM     14  C   UNL     1       1.925   4.731  20.775  0.00  0.00    +0.000 C 
ATOM     15  C   UNL     1       2.910   5.533  19.930  0.00  0.00    +0.000 C 
ENDBRANCH   9  10
ENDBRANCH   1   9
BRANCH   4  16
ATOM     16  S   UNL     1       6.716   4.712  14.698  0.00  0.00    +0.000 S 
ATOM     17  O   UNL     1       7.639   5.797  14.419  0.00  0.00    +0.000 OA
ATOM     18  O   UNL     1       7.049   3.694  15.670  0.00  0.00    +0.000 OA
BRANCH  16  19
ATOM     19  C   UNL     1       6.395   3.847  13.178  0.00  0.00    +0.000 A 
ATOM     20  C   UNL     1       7.422   3.146  12.527  0.00  0.00    +0.000 A 
ATOM     21  C   UNL     1       7.105   2.289  11.468  0.00  0.00    +0.000 A 
ATOM     22  C   UNL     1       5.779   2.137  11.071  0.00  0.00    +0.000 A 
ATOM     23  F   UNL     1       5.480   1.280  10.087  0.00  0.00    +0.000 F 
ATOM     24  C   UNL     1       4.767   2.848  11.711  0.00  0.00    +0.000 A 
ATOM     25  F   UNL     1       3.493   2.681  11.342  0.00  0.00    +0.000 F 
ATOM     26  C   UNL     1       5.064   3.707  12.765  0.00  0.00    +0.000 A 
ENDBRANCH  16  19
ENDBRANCH   4  16
TORSDOF 4
ENDMDL
MODEL 7
REMARK VINA RESULT:      -6.6      3.490      7.111
REMARK  Name = 
REMARK  5 active torsions:
REMARK  status: ('A' for Active; 'I' for Inactive)
REMARK    1  A    between atoms: C_1  and  C_2
REMARK    2  A    between atoms: N_4  and  C_5
REMARK    3  A    between atoms: N_4  and  C_11
REMARK    4  A    between atoms: N_14  and  S_15
REMARK    5  A    between atoms: S_15  and  C_18
REMARK                            x       y       z     vdW  Elec       q    Type
REMARK                         _______ _______ _______ _____ _____    ______ ____
ROOT
ATOM      1  C   UNL     1       3.611   6.402  18.420  0.00  0.00    +0.000 C 
ATOM      2  C   UNL     1       5.076   6.345  18.860  0.00  0.00    +0.000 C 
ATOM      3  C   UNL     1       5.838   6.599  17.566  0.00  0.00    +0.000 C 
ATOM      4  N   UNL     1       5.073   5.834  16.546  0.00  0.00    +0.000 NA
ATOM      5  C   UNL     1       3.629   5.994  16.929  0.00  0.00    +0.000 C 
ENDROOT
BRANCH   1   9
ATOM      6  C   UNL     1       1.863   7.902  20.168  0.00  0.00    +0.000 C 
ATOM      7  C   UNL     1       1.884   6.396  20.252  0.00  0.00    +0.000 C 
ATOM      8  O   UNL     1       1.182   5.847  21.101  0.00  0.00    +0.000 OA
ATOM      9  N   UNL     1       2.697   5.693  19.347  0.00  0.00    +0.000 N 
BRANCH   9  10
ATOM     10  C   UNL     1       2.724   4.197  19.446  0.00  0.00    +0.000 C 
ATOM     11  C   UNL     1       4.158   3.675  19.666  0.00  0.00    +0.000 C 
ATOM     12  C   UNL     1       4.246   2.161  19.561  0.00  0.00    +0.000 C 
ATOM     13  O   UNL     1       3.658   1.699  18.351  0.00  0.00    +0.000 OA
ATOM     14  C   UNL     1       2.263   1.985  18.296  0.00  0.00    +0.000 C 
ATOM     15  C   UNL     1       2.008   3.488  18.283  0.00  0.00    +0.000 C 
ENDBRANCH   9  10
ENDBRANCH   1   9
BRANCH   4  16
ATOM     16  S   UNL     1       5.567   4.216  16.299  0.00  0.00    +0.000 S 
ATOM     17  O   UNL     1       6.616   3.908  17.254  0.00  0.00    +0.000 OA
ATOM     18  O   UNL     1       4.384   3.389  16.213  0.00  0.00    +0.000 OA
BRANCH  16  19
ATOM     19  C   UNL     1       6.278   4.220  14.670  0.00  0.00    +0.000 A 
ATOM     20  C   UNL     1       5.645   3.544  13.615  0.00  0.00    +0.000 A 
ATOM     21  C   UNL     1       6.089   3.747  12.304  0.00  0.00    +0.000 A 
ATOM     22  C   UNL     1       7.149   4.615  12.057  0.00  0.00    +0.000 A 
ATOM     23  F   UNL     1       7.537   4.838  10.795  0.00  0.00    +0.000 F 
ATOM     24  C   UNL     1       7.783   5.270  13.110  0.00  0.00    +0.000 A 
ATOM     25  F   UNL     1       8.785   6.121  12.865  0.00  0.00    +0.000 F 
ATOM     26  C   UNL     1       7.357   5.078  14.421  0.00  0.00    +0.000 A 
ENDBRANCH  16  19
ENDBRANCH   4  16
TORSDOF 4
ENDMDL
MODEL 8
REMARK VINA RESULT:      -6.6      8.358     10.599
REMARK  Name = 
REMARK  5 active torsions:
REMARK  status: ('A' for Active; 'I' for Inactive)
REMARK    1  A    between atoms: C_1  and  C_2
REMARK    2  A    between atoms: N_4  and  C_5
REMARK    3  A    between atoms: N_4  and  C_11
REMARK    4  A    between atoms: N_14  and  S_15
REMARK    5  A    between atoms: S_15  and  C_18
REMARK                            x       y       z     vdW  Elec       q    Type
REMARK                         _______ _______ _______ _____ _____    ______ ____
ROOT
ATOM      1  C   UNL     1      -1.497  12.405  23.133  0.00  0.00    +0.000 C 
ATOM      2  C   UNL     1      -1.325  13.899  23.414  0.00  0.00    +0.000 C 
ATOM      3  C   UNL     1      -2.618  14.270  24.129  0.00  0.00    +0.000 C 
ATOM      4  N   UNL     1      -3.662  13.508  23.393  0.00  0.00    +0.000 NA
ATOM      5  C   UNL     1      -3.025  12.190  23.051  0.00  0.00    +0.000 C 
ENDROOT
BRANCH   1   9
ATOM      6  C   UNL     1      -0.373   9.742  23.218  0.00  0.00    +0.000 C 
ATOM      7  C   UNL     1      -0.033  10.656  22.066  0.00  0.00    +0.000 C 
ATOM      8  O   UNL     1       0.756  10.253  21.212  0.00  0.00    +0.000 OA
ATOM      9  N   UNL     1      -0.644  11.921  22.021  0.00  0.00    +0.000 N 
BRANCH   9  10
ATOM     10  C   UNL     1      -0.290  12.829  20.882  0.00  0.00    +0.000 C 
ATOM     11  C   UNL     1      -0.930  12.352  19.564  0.00  0.00    +0.000 C 
ATOM     12  C   UNL     1      -0.423  13.128  18.359  0.00  0.00    +0.000 C 
ATOM     13  O   UNL     1       1.000  13.138  18.323  0.00  0.00    +0.000 OA
ATOM     14  C   UNL     1       1.554  13.815  19.447  0.00  0.00    +0.000 C 
ATOM     15  C   UNL     1       1.221  13.089  20.746  0.00  0.00    +0.000 C 
ENDBRANCH   9  10
ENDBRANCH   1   9
BRANCH   4  16
ATOM     16  S   UNL     1      -4.383  14.313  22.069  0.00  0.00    +0.000 S 
ATOM     17  O   UNL     1      -5.440  15.170  22.575  0.00  0.00    +0.000 OA
ATOM     18  O   UNL     1      -3.329  14.857  21.241  0.00  0.00    +0.000 OA
BRANCH  16  19
ATOM     19  C   UNL     1      -5.127  13.011  21.117  0.00  0.00    +0.000 A 
ATOM     20  C   UNL     1      -6.368  12.473  21.493  0.00  0.00    +0.000 A 
ATOM     21  C   UNL     1      -7.043  11.619  20.614  0.00  0.00    +0.000 A 
ATOM     22  C   UNL     1      -6.481  11.312  19.377  0.00  0.00    +0.000 A 
ATOM     23  F   UNL     1      -7.154  10.531  18.524  0.00  0.00    +0.000 F 
ATOM     24  C   UNL     1      -5.241  11.835  19.018  0.00  0.00    +0.000 A 
ATOM     25  F   UNL     1      -4.716  11.556  17.820  0.00  0.00    +0.000 F 
ATOM     26  C   UNL     1      -4.555  12.684  19.881  0.00  0.00    +0.000 A 
ENDBRANCH  16  19
ENDBRANCH   4  16
TORSDOF 4
ENDMDL
MODEL 9
REMARK VINA RESULT:      -6.5      3.473      6.850
REMARK  Name = 
REMARK  5 active torsions:
REMARK  status: ('A' for Active; 'I' for Inactive)
REMARK    1  A    between atoms: C_1  and  C_2
REMARK    2  A    between atoms: N_4  and  C_5
REMARK    3  A    between atoms: N_4  and  C_11
REMARK    4  A    between atoms: N_14  and  S_15
REMARK    5  A    between atoms: S_15  and  C_18
REMARK                            x       y       z     vdW  Elec       q    Type
REMARK                         _______ _______ _______ _____ _____    ______ ____
ROOT
ATOM      1  C   UNL     1       3.972   3.978  18.883  0.00  0.00    +0.000 C 
ATOM      2  C   UNL     1       3.719   3.480  17.458  0.00  0.00    +0.000 C 
ATOM      3  C   UNL     1       5.123   3.309  16.894  0.00  0.00    +0.000 C 
ATOM      4  N   UNL     1       5.864   4.487  17.422  0.00  0.00    +0.000 NA
ATOM      5  C   UNL     1       5.341   4.693  18.815  0.00  0.00    +0.000 C 
ENDROOT
BRANCH   1   9
ATOM      6  C   UNL     1       1.683   2.505  19.857  0.00  0.00    +0.000 C 
ATOM      7  C   UNL     1       1.661   4.014  19.883  0.00  0.00    +0.000 C 
ATOM      8  O   UNL     1       0.643   4.578  20.281  0.00  0.00    +0.000 OA
ATOM      9  N   UNL     1       2.813   4.700  19.461  0.00  0.00    +0.000 N 
BRANCH   9  10
ATOM     10  C   UNL     1       2.780   6.199  19.475  0.00  0.00    +0.000 C 
ATOM     11  C   UNL     1       1.978   6.731  20.679  0.00  0.00    +0.000 C 
ATOM     12  C   UNL     1       1.750   8.232  20.606  0.00  0.00    +0.000 C 
ATOM     13  O   UNL     1       1.192   8.601  19.350  0.00  0.00    +0.000 OA
ATOM     14  C   UNL     1       2.078   8.317  18.272  0.00  0.00    +0.000 C 
ATOM     15  C   UNL     1       2.326   6.818  18.142  0.00  0.00    +0.000 C 
ENDBRANCH   9  10
ENDBRANCH   1   9
BRANCH   4  16
ATOM     16  S   UNL     1       5.842   5.885  16.440  0.00  0.00    +0.000 S 
ATOM     17  O   UNL     1       4.490   6.415  16.428  0.00  0.00    +0.000 OA
ATOM     18  O   UNL     1       6.957   6.724  16.820  0.00  0.00    +0.000 OA
BRANCH  16  19
ATOM     19  C   UNL     1       6.220   5.282  14.812  0.00  0.00    +0.000 A 
ATOM     20  C   UNL     1       7.515   5.413  14.286  0.00  0.00    +0.000 A 
ATOM     21  C   UNL     1       7.852   4.734  13.110  0.00  0.00    +0.000 A 
ATOM     22  C   UNL     1       6.905   3.936  12.474  0.00  0.00    +0.000 A 
ATOM     23  F   UNL     1       7.249   3.254  11.375  0.00  0.00    +0.000 F 
ATOM     24  C   UNL     1       5.616   3.824  12.992  0.00  0.00    +0.000 A 
ATOM     25  F   UNL     1       4.717   3.038  12.390  0.00  0.00    +0.000 F 
ATOM     26  C   UNL     1       5.263   4.494  14.159  0.00  0.00    +0.000 A 
ENDBRANCH  16  19
ENDBRANCH   4  16
TORSDOF 4
ENDMDL
