MODEL 1
REMARK VINA RESULT:      -8.6      0.000      0.000
REMARK  Name = 
REMARK  6 active torsions:
REMARK  status: ('A' for Active; 'I' for Inactive)
REMARK    1  A    between atoms: C_1  and  C_2
REMARK    2  A    between atoms: C_2  and  C_3
REMARK    3  A    between atoms: C_3  and  N_4
REMARK    4  A    between atoms: C_7  and  C_8
REMARK    5  A    between atoms: C_16  and  O_17
REMARK    6  A    between atoms: C_23  and  C_24
REMARK                            x       y       z     vdW  Elec       q    Type
REMARK                         _______ _______ _______ _____ _____    ______ ____
ROOT
ATOM      1  N   UNL     1       4.553   5.009  16.422  0.00  0.00    +0.000 NA
ATOM      2  C   UNL     1       5.490   5.985  17.069  0.00  0.00    +0.000 C 
ATOM      3  C   UNL     1       4.648   6.978  18.106  0.00  0.00    +0.000 C 
ATOM      4  C   UNL     1       3.419   6.312  19.177  0.00  0.00    +0.000 C 
ATOM      5  C   UNL     1       2.256   5.159  19.624  0.00  0.00    +0.000 A 
ATOM      6  C   UNL     1       2.231   4.601  20.948  0.00  0.00    +0.000 A 
ATOM      7  C   UNL     1       1.683   3.306  21.193  0.00  0.00    +0.000 A 
ATOM      8  C   UNL     1       1.056   2.588  20.173  0.00  0.00    +0.000 A 
ATOM      9  C   UNL     1       1.027   3.088  18.895  0.00  0.00    +0.000 A 
ATOM     10  C   UNL     1       1.640   4.306  18.626  0.00  0.00    +0.000 A 
ATOM     11  C   UNL     1       1.998   4.594  17.255  0.00  0.00    +0.000 C 
ATOM     12  C   UNL     1       3.604   4.672  17.439  0.00  0.00    +0.000 C 
ATOM     13  C   UNL     1       4.114   4.990  19.021  0.00  0.00    +0.000 C 
ATOM     14  C   UNL     1       5.370   4.278  19.658  0.00  0.00    +0.000 C 
ENDROOT
BRANCH   4  15
ATOM     15  C   UNL     1       2.399   7.493  19.100  0.00  0.00    +0.000 A 
ATOM     16  C   UNL     1       2.069   8.121  17.855  0.00  0.00    +0.000 A 
ATOM     17  C   UNL     1       1.211   9.214  17.790  0.00  0.00    +0.000 A 
ATOM     18  C   UNL     1       0.642   9.717  18.952  0.00  0.00    +0.000 A 
ATOM     19  C   UNL     1       0.937   9.125  20.184  0.00  0.00    +0.000 A 
ATOM     20  C   UNL     1       1.808   8.020  20.259  0.00  0.00    +0.000 A 
ENDBRANCH   4  15
BRANCH   7  21
ATOM     21  O   UNL     1       1.826   2.688  22.377  0.00  0.00    +0.000 OA
ATOM     22  H   UNL     1       1.268   1.948  22.644  0.00  0.00    +0.000 HD
ENDBRANCH   7  21
BRANCH   1  23
ATOM     23  C   UNL     1       5.046   3.797  15.747  0.00  0.00    +0.000 C 
BRANCH  23  25
ATOM     24  C   UNL     1       6.012   3.757  13.348  0.00  0.00    +0.000 C 
ATOM     25  C   UNL     1       6.263   4.125  14.820  0.00  0.00    +0.000 C 
ENDBRANCH  23  25
ENDBRANCH   1  23
TORSDOF 4
ENDMDL
MODEL 2
REMARK VINA RESULT:      -7.3      2.572      4.632
REMARK  Name = 
REMARK  6 active torsions:
REMARK  status: ('A' for Active; 'I' for Inactive)
REMARK    1  A    between atoms: C_1  and  C_2
REMARK    2  A    between atoms: C_2  and  C_3
REMARK    3  A    between atoms: C_3  and  N_4
REMARK    4  A    between atoms: C_7  and  C_8
REMARK    5  A    between atoms: C_16  and  O_17
REMARK    6  A    between atoms: C_23  and  C_24
REMARK                            x       y       z     vdW  Elec       q    Type
REMARK                         _______ _______ _______ _____ _____    ______ ____
ROOT
ATOM      1  N   UNL     1       2.536   3.010  19.120  0.00  0.00    +0.000 NA
ATOM      2  C   UNL     1       1.539   3.303  18.038  0.00  0.00    +0.000 C 
ATOM      3  C   UNL     1       1.466   4.943  17.762  0.00  0.00    +0.000 C 
ATOM      4  C   UNL     1       2.940   5.902  17.688  0.00  0.00    +0.000 C 
ATOM      5  C   UNL     1       4.567   6.219  18.056  0.00  0.00    +0.000 A 
ATOM      6  C   UNL     1       5.502   6.602  17.034  0.00  0.00    +0.000 A 
ATOM      7  C   UNL     1       6.898   6.340  17.174  0.00  0.00    +0.000 A 
ATOM      8  C   UNL     1       7.412   5.804  18.357  0.00  0.00    +0.000 A 
ATOM      9  C   UNL     1       6.566   5.447  19.377  0.00  0.00    +0.000 A 
ATOM     10  C   UNL     1       5.194   5.610  19.213  0.00  0.00    +0.000 A 
ATOM     11  C   UNL     1       4.317   4.836  20.063  0.00  0.00    +0.000 C 
ATOM     12  C   UNL     1       3.596   3.950  18.916  0.00  0.00    +0.000 C 
ATOM     13  C   UNL     1       3.660   4.624  17.364  0.00  0.00    +0.000 C 
ATOM     14  C   UNL     1       3.905   3.745  16.076  0.00  0.00    +0.000 C 
ENDROOT
BRANCH   4  15
ATOM     15  C   UNL     1       2.401   7.186  18.395  0.00  0.00    +0.000 A 
ATOM     16  C   UNL     1       2.069   7.194  19.789  0.00  0.00    +0.000 A 
ATOM     17  C   UNL     1       1.528   8.316  20.408  0.00  0.00    +0.000 A 
ATOM     18  C   UNL     1       1.306   9.472  19.672  0.00  0.00    +0.000 A 
ATOM     19  C   UNL     1       1.625   9.503  18.311  0.00  0.00    +0.000 A 
ATOM     20  C   UNL     1       2.170   8.369  17.675  0.00  0.00    +0.000 A 
ENDBRANCH   4  15
BRANCH   7  21
ATOM     21  O   UNL     1       7.757   6.509  16.155  0.00  0.00    +0.000 OA
ATOM     22  H   UNL     1       8.710   6.409  16.261  0.00  0.00    +0.000 HD
ENDBRANCH   7  21
BRANCH   1  23
ATOM     23  C   UNL     1       3.073   1.656  19.328  0.00  0.00    +0.000 C 
BRANCH  23  25
ATOM     24  C   UNL     1       5.140   1.340  20.850  0.00  0.00    +0.000 C 
ATOM     25  C   UNL     1       4.633   1.681  19.439  0.00  0.00    +0.000 C 
ENDBRANCH  23  25
ENDBRANCH   1  23
TORSDOF 4
ENDMDL
MODEL 3
REMARK VINA RESULT:      -7.1      2.567      4.572
REMARK  Name = 
REMARK  6 active torsions:
REMARK  status: ('A' for Active; 'I' for Inactive)
REMARK    1  A    between atoms: C_1  and  C_2
REMARK    2  A    between atoms: C_2  and  C_3
REMARK    3  A    between atoms: C_3  and  N_4
REMARK    4  A    between atoms: C_7  and  C_8
REMARK    5  A    between atoms: C_16  and  O_17
REMARK    6  A    between atoms: C_23  and  C_24
REMARK                            x       y       z     vdW  Elec       q    Type
REMARK                         _______ _______ _______ _____ _____    ______ ____
ROOT
ATOM      1  N   UNL     1       2.730   2.815  19.000  0.00  0.00    +0.000 NA
ATOM      2  C   UNL     1       1.746   3.090  17.903  0.00  0.00    +0.000 C 
ATOM      3  C   UNL     1       1.590   4.732  17.677  0.00  0.00    +0.000 C 
ATOM      4  C   UNL     1       3.012   5.770  17.671  0.00  0.00    +0.000 C 
ATOM      5  C   UNL     1       4.610   6.161  18.091  0.00  0.00    +0.000 A 
ATOM      6  C   UNL     1       5.547   6.626  17.105  0.00  0.00    +0.000 A 
ATOM      7  C   UNL     1       6.951   6.435  17.272  0.00  0.00    +0.000 A 
ATOM      8  C   UNL     1       7.465   5.888  18.450  0.00  0.00    +0.000 A 
ATOM      9  C   UNL     1       6.616   5.452  19.436  0.00  0.00    +0.000 A 
ATOM     10  C   UNL     1       5.242   5.548  19.243  0.00  0.00    +0.000 A 
ATOM     11  C   UNL     1       4.387   4.701  20.045  0.00  0.00    +0.000 C 
ATOM     12  C   UNL     1       3.743   3.816  18.853  0.00  0.00    +0.000 C 
ATOM     13  C   UNL     1       3.807   4.543  17.326  0.00  0.00    +0.000 C 
ATOM     14  C   UNL     1       4.129   3.722  16.017  0.00  0.00    +0.000 C 
ENDROOT
BRANCH   4  15
ATOM     15  C   UNL     1       2.387   7.000  18.406  0.00  0.00    +0.000 A 
ATOM     16  C   UNL     1       2.133   8.234  17.724  0.00  0.00    +0.000 A 
ATOM     17  C   UNL     1       1.638   9.350  18.388  0.00  0.00    +0.000 A 
ATOM     18  C   UNL     1       1.366   9.282  19.748  0.00  0.00    +0.000 A 
ATOM     19  C   UNL     1       1.595   8.091  20.444  0.00  0.00    +0.000 A 
ATOM     20  C   UNL     1       2.101   6.956  19.780  0.00  0.00    +0.000 A 
ENDBRANCH   4  15
BRANCH   7  21
ATOM     21  O   UNL     1       7.823   6.682  16.281  0.00  0.00    +0.000 OA
ATOM     22  H   UNL     1       8.029   7.577  15.985  0.00  0.00    +0.000 HD
ENDBRANCH   7  21
BRANCH   1  23
ATOM     23  C   UNL     1       3.335   1.485  19.178  0.00  0.00    +0.000 C 
BRANCH  23  25
ATOM     24  C   UNL     1       5.063   1.230  21.086  0.00  0.00    +0.000 C 
ATOM     25  C   UNL     1       4.834   1.602  19.611  0.00  0.00    +0.000 C 
ENDBRANCH  23  25
ENDBRANCH   1  23
TORSDOF 4
ENDMDL
MODEL 4
REMARK VINA RESULT:      -7.1      1.785      2.209
REMARK  Name = 
REMARK  6 active torsions:
REMARK  status: ('A' for Active; 'I' for Inactive)
REMARK    1  A    between atoms: C_1  and  C_2
REMARK    2  A    between atoms: C_2  and  C_3
REMARK    3  A    between atoms: C_3  and  N_4
REMARK    4  A    between atoms: C_7  and  C_8
REMARK    5  A    between atoms: C_16  and  O_17
REMARK    6  A    between atoms: C_23  and  C_24
REMARK                            x       y       z     vdW  Elec       q    Type
REMARK                         _______ _______ _______ _____ _____    ______ ____
ROOT
ATOM      1  N   UNL     1       5.677   5.111  15.072  0.00  0.00    +0.000 NA
ATOM      2  C   UNL     1       6.483   6.238  15.646  0.00  0.00    +0.000 C 
ATOM      3  C   UNL     1       5.696   6.885  16.963  0.00  0.00    +0.000 C 
ATOM      4  C   UNL     1       4.941   5.834  18.156  0.00  0.00    +0.000 C 
ATOM      5  C   UNL     1       4.217   4.384  18.663  0.00  0.00    +0.000 A 
ATOM      6  C   UNL     1       4.632   3.727  19.872  0.00  0.00    +0.000 A 
ATOM      7  C   UNL     1       4.475   2.318  20.037  0.00  0.00    +0.000 A 
ATOM      8  C   UNL     1       3.815   1.551  19.075  0.00  0.00    +0.000 A 
ATOM      9  C   UNL     1       3.373   2.134  17.913  0.00  0.00    +0.000 A 
ATOM     10  C   UNL     1       3.604   3.489  17.700  0.00  0.00    +0.000 A 
ATOM     11  C   UNL     1       3.556   3.976  16.339  0.00  0.00    +0.000 C 
ATOM     12  C   UNL     1       5.096   4.453  16.203  0.00  0.00    +0.000 C 
ATOM     13  C   UNL     1       5.871   4.756  17.677  0.00  0.00    +0.000 C 
ATOM     14  C   UNL     1       7.372   4.343  17.938  0.00  0.00    +0.000 C 
ENDROOT
BRANCH   4  15
ATOM     15  C   UNL     1       3.683   6.711  18.455  0.00  0.00    +0.000 A 
ATOM     16  C   UNL     1       3.161   7.631  17.488  0.00  0.00    +0.000 A 
ATOM     17  C   UNL     1       2.081   8.459  17.774  0.00  0.00    +0.000 A 
ATOM     18  C   UNL     1       1.474   8.400  19.021  0.00  0.00    +0.000 A 
ATOM     19  C   UNL     1       1.953   7.509  19.986  0.00  0.00    +0.000 A 
ATOM     20  C   UNL     1       3.049   6.668  19.707  0.00  0.00    +0.000 A 
ENDBRANCH   4  15
BRANCH   7  21
ATOM     21  O   UNL     1       5.031   1.659  21.068  0.00  0.00    +0.000 OA
ATOM     22  H   UNL     1       5.801   1.089  20.962  0.00  0.00    +0.000 HD
ENDBRANCH   7  21
BRANCH   1  23
ATOM     23  C   UNL     1       6.271   4.132  14.147  0.00  0.00    +0.000 C 
BRANCH  23  25
ATOM     24  C   UNL     1       5.892   2.887  11.912  0.00  0.00    +0.000 C 
ATOM     25  C   UNL     1       5.251   3.718  13.035  0.00  0.00    +0.000 C 
ENDBRANCH  23  25
ENDBRANCH   1  23
TORSDOF 4
ENDMDL
MODEL 5
REMARK VINA RESULT:      -6.6      5.842      7.914
REMARK  Name = 
REMARK  6 active torsions:
REMARK  status: ('A' for Active; 'I' for Inactive)
REMARK    1  A    between atoms: C_1  and  C_2
REMARK    2  A    between atoms: C_2  and  C_3
REMARK    3  A    between atoms: C_3  and  N_4
REMARK    4  A    between atoms: C_7  and  C_8
REMARK    5  A    between atoms: C_16  and  O_17
REMARK    6  A    between atoms: C_23  and  C_24
REMARK                            x       y       z     vdW  Elec       q    Type
REMARK                         _______ _______ _______ _____ _____    ______ ____
ROOT
ATOM      1  N   UNL     1       1.833  13.294  18.330  0.00  0.00    +0.000 NA
ATOM      2  C   UNL     1       0.973  14.487  18.627  0.00  0.00    +0.000 C 
ATOM      3  C   UNL     1      -0.607  14.009  18.839  0.00  0.00    +0.000 C 
ATOM      4  C   UNL     1      -0.986  12.572  19.782  0.00  0.00    +0.000 C 
ATOM      5  C   UNL     1      -0.626  11.051  20.445  0.00  0.00    +0.000 A 
ATOM      6  C   UNL     1      -0.885  10.760  21.829  0.00  0.00    +0.000 A 
ATOM      7  C   UNL     1      -0.131   9.771  22.530  0.00  0.00    +0.000 A 
ATOM      8  C   UNL     1       0.806   8.979  21.864  0.00  0.00    +0.000 A 
ATOM      9  C   UNL     1       1.072   9.195  20.534  0.00  0.00    +0.000 A 
ATOM     10  C   UNL     1       0.411  10.219  19.865  0.00  0.00    +0.000 A 
ATOM     11  C   UNL     1       1.005  10.723  18.647  0.00  0.00    +0.000 C 
ATOM     12  C   UNL     1       1.298  12.238  19.135  0.00  0.00    +0.000 C 
ATOM     13  C   UNL     1       0.352  12.750  20.442  0.00  0.00    +0.000 C 
ATOM     14  C   UNL     1       0.940  13.632  21.611  0.00  0.00    +0.000 C 
ENDROOT
BRANCH   4  15
ATOM     15  C   UNL     1      -2.178  12.051  18.918  0.00  0.00    +0.000 A 
ATOM     16  C   UNL     1      -1.982  11.549  17.590  0.00  0.00    +0.000 A 
ATOM     17  C   UNL     1      -3.049  11.145  16.794  0.00  0.00    +0.000 A 
ATOM     18  C   UNL     1      -4.345  11.213  17.287  0.00  0.00    +0.000 A 
ATOM     19  C   UNL     1      -4.573  11.692  18.581  0.00  0.00    +0.000 A 
ATOM     20  C   UNL     1      -3.499  12.107  19.393  0.00  0.00    +0.000 A 
ENDBRANCH   4  15
BRANCH   7  21
ATOM     21  O   UNL     1      -0.221   9.624  23.862  0.00  0.00    +0.000 OA
ATOM     22  H   UNL     1       0.097   8.835  24.317  0.00  0.00    +0.000 HD
ENDBRANCH   7  21
BRANCH   1  23
ATOM     23  C   UNL     1       3.299  13.350  18.451  0.00  0.00    +0.000 C 
BRANCH  23  25
ATOM     24  C   UNL     1       5.313  14.826  17.777  0.00  0.00    +0.000 C 
ATOM     25  C   UNL     1       3.830  14.797  18.183  0.00  0.00    +0.000 C 
ENDBRANCH  23  25
ENDBRANCH   1  23
TORSDOF 4
ENDMDL
MODEL 6
REMARK VINA RESULT:      -6.4      2.787      5.060
REMARK  Name = 
REMARK  6 active torsions:
REMARK  status: ('A' for Active; 'I' for Inactive)
REMARK    1  A    between atoms: C_1  and  C_2
REMARK    2  A    between atoms: C_2  and  C_3
REMARK    3  A    between atoms: C_3  and  N_4
REMARK    4  A    between atoms: C_7  and  C_8
REMARK    5  A    between atoms: C_16  and  O_17
REMARK    6  A    between atoms: C_23  and  C_24
REMARK                            x       y       z     vdW  Elec       q    Type
REMARK                         _______ _______ _______ _____ _____    ______ ____
ROOT
ATOM      1  N   UNL     1       3.666   2.578  19.926  0.00  0.00    +0.000 NA
ATOM      2  C   UNL     1       2.299   2.504  19.314  0.00  0.00    +0.000 C 
ATOM      3  C   UNL     1       1.828   4.012  18.791  0.00  0.00    +0.000 C 
ATOM      4  C   UNL     1       2.962   5.056  17.940  0.00  0.00    +0.000 C 
ATOM      5  C   UNL     1       4.520   5.601  17.541  0.00  0.00    +0.000 A 
ATOM      6  C   UNL     1       4.910   5.806  16.173  0.00  0.00    +0.000 A 
ATOM      7  C   UNL     1       6.278   5.716  15.774  0.00  0.00    +0.000 A 
ATOM      8  C   UNL     1       7.290   5.536  16.719  0.00  0.00    +0.000 A 
ATOM      9  C   UNL     1       6.974   5.363  18.044  0.00  0.00    +0.000 A 
ATOM     10  C   UNL     1       5.639   5.354  18.430  0.00  0.00    +0.000 A 
ATOM     11  C   UNL     1       5.306   4.735  19.694  0.00  0.00    +0.000 C 
ATOM     12  C   UNL     1       4.379   3.533  19.132  0.00  0.00    +0.000 C 
ATOM     13  C   UNL     1       3.726   3.809  17.595  0.00  0.00    +0.000 C 
ATOM     14  C   UNL     1       3.620   2.668  16.510  0.00  0.00    +0.000 C 
ENDROOT
BRANCH   4  15
ATOM     15  C   UNL     1       2.507   6.419  18.553  0.00  0.00    +0.000 A 
ATOM     16  C   UNL     1       2.229   6.560  19.951  0.00  0.00    +0.000 A 
ATOM     17  C   UNL     1       1.762   7.754  20.489  0.00  0.00    +0.000 A 
ATOM     18  C   UNL     1       1.563   8.853  19.664  0.00  0.00    +0.000 A 
ATOM     19  C   UNL     1       1.830   8.754  18.296  0.00  0.00    +0.000 A 
ATOM     20  C   UNL     1       2.300   7.547  17.742  0.00  0.00    +0.000 A 
ENDBRANCH   4  15
BRANCH   7  21
ATOM     21  O   UNL     1       6.639   5.708  14.481  0.00  0.00    +0.000 OA
ATOM     22  H   UNL     1       7.352   5.150  14.147  0.00  0.00    +0.000 HD
ENDBRANCH   7  21
BRANCH   1  23
ATOM     23  C   UNL     1       4.480   1.371  20.145  0.00  0.00    +0.000 C 
BRANCH  23  25
ATOM     24  C   UNL     1       5.995   0.140  21.841  0.00  0.00    +0.000 C 
ATOM     25  C   UNL     1       5.102   1.365  21.580  0.00  0.00    +0.000 C 
ENDBRANCH  23  25
ENDBRANCH   1  23
TORSDOF 4
ENDMDL
MODEL 7
REMARK VINA RESULT:      -6.3      5.869      8.031
REMARK  Name = 
REMARK  6 active torsions:
REMARK  status: ('A' for Active; 'I' for Inactive)
REMARK    1  A    between atoms: C_1  and  C_2
REMARK    2  A    between atoms: C_2  and  C_3
REMARK    3  A    between atoms: C_3  and  N_4
REMARK    4  A    between atoms: C_7  and  C_8
REMARK    5  A    between atoms: C_16  and  O_17
REMARK    6  A    between atoms: C_23  and  C_24
REMARK                            x       y       z     vdW  Elec       q    Type
REMARK                         _______ _______ _______ _____ _____    ______ ____
ROOT
ATOM      1  N   UNL     1       1.812  13.252  18.270  0.00  0.00    +0.000 NA
ATOM      2  C   UNL     1       1.009  14.478  18.588  0.00  0.00    +0.000 C 
ATOM      3  C   UNL     1      -0.581  14.062  18.850  0.00  0.00    +0.000 C 
ATOM      4  C   UNL     1      -0.985  12.644  19.812  0.00  0.00    +0.000 C 
ATOM      5  C   UNL     1      -0.664  11.112  20.470  0.00  0.00    +0.000 A 
ATOM      6  C   UNL     1      -0.891  10.837  21.863  0.00  0.00    +0.000 A 
ATOM      7  C   UNL     1      -0.155   9.822  22.544  0.00  0.00    +0.000 A 
ATOM      8  C   UNL     1       0.730   8.991  21.853  0.00  0.00    +0.000 A 
ATOM      9  C   UNL     1       0.963   9.193  20.515  0.00  0.00    +0.000 A 
ATOM     10  C   UNL     1       0.321  10.239  19.862  0.00  0.00    +0.000 A 
ATOM     11  C   UNL     1       0.897  10.716  18.624  0.00  0.00    +0.000 C 
ATOM     12  C   UNL     1       1.263  12.220  19.096  0.00  0.00    +0.000 C 
ATOM     13  C   UNL     1       0.378  12.773  20.429  0.00  0.00    +0.000 C 
ATOM     14  C   UNL     1       1.036  13.636  21.576  0.00  0.00    +0.000 C 
ENDROOT
BRANCH   4  15
ATOM     15  C   UNL     1      -2.224  12.167  18.987  0.00  0.00    +0.000 A 
ATOM     16  C   UNL     1      -3.552  12.233  19.518  0.00  0.00    +0.000 A 
ATOM     17  C   UNL     1      -4.649  11.750  18.813  0.00  0.00    +0.000 A 
ATOM     18  C   UNL     1      -4.471  11.195  17.553  0.00  0.00    +0.000 A 
ATOM     19  C   UNL     1      -3.189  11.120  17.000  0.00  0.00    +0.000 A 
ATOM     20  C   UNL     1      -2.072  11.603  17.710  0.00  0.00    +0.000 A 
ENDBRANCH   4  15
BRANCH   7  21
ATOM     21  O   UNL     1      -0.208   9.683  23.879  0.00  0.00    +0.000 OA
ATOM     22  H   UNL     1       0.503   9.980  24.459  0.00  0.00    +0.000 HD
ENDBRANCH   7  21
BRANCH   1  23
ATOM     23  C   UNL     1       3.282  13.252  18.345  0.00  0.00    +0.000 C 
BRANCH  23  25
ATOM     24  C   UNL     1       4.659  15.430  18.112  0.00  0.00    +0.000 C 
ATOM     25  C   UNL     1       3.810  14.548  19.044  0.00  0.00    +0.000 C 
ENDBRANCH  23  25
ENDBRANCH   1  23
TORSDOF 4
ENDMDL
MODEL 8
REMARK VINA RESULT:      -6.2      9.355     11.336
REMARK  Name = 
REMARK  6 active torsions:
REMARK  status: ('A' for Active; 'I' for Inactive)
REMARK    1  A    between atoms: C_1  and  C_2
REMARK    2  A    between atoms: C_2  and  C_3
REMARK    3  A    between atoms: C_3  and  N_4
REMARK    4  A    between atoms: C_7  and  C_8
REMARK    5  A    between atoms: C_16  and  O_17
REMARK    6  A    between atoms: C_23  and  C_24
REMARK                            x       y       z     vdW  Elec       q    Type
REMARK                         _______ _______ _______ _____ _____    ______ ____
ROOT
ATOM      1  N   UNL     1       9.974  11.604  19.419  0.00  0.00    +0.000 NA
ATOM      2  C   UNL     1      10.781  12.084  20.588  0.00  0.00    +0.000 C 
ATOM      3  C   UNL     1      11.055  13.721  20.455  0.00  0.00    +0.000 C 
ATOM      4  C   UNL     1       9.760  14.804  19.957  0.00  0.00    +0.000 C 
ATOM      5  C   UNL     1       8.301  15.167  19.168  0.00  0.00    +0.000 A 
ATOM      6  C   UNL     1       7.261  15.908  19.828  0.00  0.00    +0.000 A 
ATOM      7  C   UNL     1       5.893  15.758  19.450  0.00  0.00    +0.000 A 
ATOM      8  C   UNL     1       5.534  14.969  18.355  0.00  0.00    +0.000 A 
ATOM      9  C   UNL     1       6.491  14.261  17.671  0.00  0.00    +0.000 A 
ATOM     10  C   UNL     1       7.816  14.327  18.090  0.00  0.00    +0.000 A 
ATOM     11  C   UNL     1       8.707  13.265  17.678  0.00  0.00    +0.000 C 
ATOM     12  C   UNL     1       9.053  12.664  19.141  0.00  0.00    +0.000 C 
ATOM     13  C   UNL     1       8.803  13.743  20.420  0.00  0.00    +0.000 C 
ATOM     14  C   UNL     1       8.187  13.284  21.799  0.00  0.00    +0.000 C 
ENDROOT
BRANCH   4  15
ATOM     15  C   UNL     1      10.615  15.783  19.090  0.00  0.00    +0.000 A 
ATOM     16  C   UNL     1      11.273  15.348  17.893  0.00  0.00    +0.000 A 
ATOM     17  C   UNL     1      12.087  16.200  17.154  0.00  0.00    +0.000 A 
ATOM     18  C   UNL     1      12.271  17.512  17.566  0.00  0.00    +0.000 A 
ATOM     19  C   UNL     1      11.639  17.972  18.725  0.00  0.00    +0.000 A 
ATOM     20  C   UNL     1      10.815  17.116  19.483  0.00  0.00    +0.000 A 
ENDBRANCH   4  15
BRANCH   7  21
ATOM     21  O   UNL     1       4.894  16.286  20.177  0.00  0.00    +0.000 OA
ATOM     22  H   UNL     1       4.490  15.816  20.916  0.00  0.00    +0.000 HD
ENDBRANCH   7  21
BRANCH   1  23
ATOM     23  C   UNL     1       9.282  10.305  19.441  0.00  0.00    +0.000 C 
BRANCH  23  25
ATOM     24  C   UNL     1       8.135   8.525  17.956  0.00  0.00    +0.000 C 
ATOM     25  C   UNL     1       8.703   9.952  18.032  0.00  0.00    +0.000 C 
ENDBRANCH  23  25
ENDBRANCH   1  23
TORSDOF 4
ENDMDL
MODEL 9
REMARK VINA RESULT:      -6.2      0.749      1.468
REMARK  Name = 
REMARK  6 active torsions:
REMARK  status: ('A' for Active; 'I' for Inactive)
REMARK    1  A    between atoms: C_1  and  C_2
REMARK    2  A    between atoms: C_2  and  C_3
REMARK    3  A    between atoms: C_3  and  N_4
REMARK    4  A    between atoms: C_7  and  C_8
REMARK    5  A    between atoms: C_16  and  O_17
REMARK    6  A    between atoms: C_23  and  C_24
REMARK                            x       y       z     vdW  Elec       q    Type
REMARK                         _______ _______ _______ _____ _____    ______ ____
ROOT
ATOM      1  N   UNL     1       4.414   5.505  16.391  0.00  0.00    +0.000 NA
ATOM      2  C   UNL     1       5.324   6.518  17.018  0.00  0.00    +0.000 C 
ATOM      3  C   UNL     1       4.471   7.458  18.096  0.00  0.00    +0.000 C 
ATOM      4  C   UNL     1       3.313   6.722  19.199  0.00  0.00    +0.000 C 
ATOM      5  C   UNL     1       2.222   5.509  19.670  0.00  0.00    +0.000 A 
ATOM      6  C   UNL     1       2.268   4.936  20.987  0.00  0.00    +0.000 A 
ATOM      7  C   UNL     1       1.792   3.613  21.234  0.00  0.00    +0.000 A 
ATOM      8  C   UNL     1       1.165   2.877  20.226  0.00  0.00    +0.000 A 
ATOM      9  C   UNL     1       1.069   3.389  18.956  0.00  0.00    +0.000 A 
ATOM     10  C   UNL     1       1.614   4.638  18.682  0.00  0.00    +0.000 A 
ATOM     11  C   UNL     1       1.911   4.958  17.303  0.00  0.00    +0.000 C 
ATOM     12  C   UNL     1       3.517   5.111  17.435  0.00  0.00    +0.000 C 
ATOM     13  C   UNL     1       4.065   5.436  19.003  0.00  0.00    +0.000 C 
ATOM     14  C   UNL     1       5.375   4.779  19.589  0.00  0.00    +0.000 C 
ENDROOT
BRANCH   4  15
ATOM     15  C   UNL     1       2.235   7.853  19.170  0.00  0.00    +0.000 A 
ATOM     16  C   UNL     1       1.600   8.317  20.367  0.00  0.00    +0.000 A 
ATOM     17  C   UNL     1       0.595   9.278  20.338  0.00  0.00    +0.000 A 
ATOM     18  C   UNL     1       0.191   9.821  19.126  0.00  0.00    +0.000 A 
ATOM     19  C   UNL     1       0.794   9.397  17.939  0.00  0.00    +0.000 A 
ATOM     20  C   UNL     1       1.811   8.421  17.958  0.00  0.00    +0.000 A 
ENDBRANCH   4  15
BRANCH   7  21
ATOM     21  O   UNL     1       2.005   2.990  22.404  0.00  0.00    +0.000 OA
ATOM     22  H   UNL     1       1.353   2.989  23.115  0.00  0.00    +0.000 HD
ENDBRANCH   7  21
BRANCH   1  23
ATOM     23  C   UNL     1       4.942   4.326  15.685  0.00  0.00    +0.000 C 
BRANCH  23  25
ATOM     24  C   UNL     1       4.234   2.256  17.065  0.00  0.00    +0.000 C 
ATOM     25  C   UNL     1       5.379   3.214  16.696  0.00  0.00    +0.000 C 
ENDBRANCH  23  25
ENDBRANCH   1  23
TORSDOF 4
ENDMDL
