MODEL 1
REMARK VINA RESULT:      -8.0      0.000      0.000
REMARK  Name = 
REMARK  8 active torsions:
REMARK  status: ('A' for Active; 'I' for Inactive)
REMARK    1  A    between atoms: C_1  and  C_2
REMARK    2  A    between atoms: C_2  and  C_3
REMARK    3  A    between atoms: C_2  and  N_6
REMARK    4  A    between atoms: N_6  and  C_22
REMARK    5  A    between atoms: C_7  and  C_9
REMARK    6  A    between atoms: C_9  and  O_10
REMARK    7  A    between atoms: O_10  and  C_11
REMARK    8  A    between atoms: C_12  and  C_13
REMARK                            x       y       z     vdW  Elec       q    Type
REMARK                         _______ _______ _______ _____ _____    ______ ____
ROOT
ATOM      1  C   UNL     1       4.155   4.625  17.091  0.00  0.00    +0.000 C 
ENDROOT
BRANCH   1   3
ATOM      2  N   UNL     1       2.399   4.763  18.868  0.00  0.00    +0.000 N 
ATOM      3  C   UNL     1       2.998   3.957  17.872  0.00  0.00    +0.000 C 
ATOM      4  O   UNL     1       2.656   2.802  17.628  0.00  0.00    +0.000 OA
BRANCH   2   5
ATOM      5  C   UNL     1       2.883   6.114  19.130  0.00  0.00    +0.000 C 
ATOM      6  C   UNL     1       2.262   7.257  18.364  0.00  0.00    +0.000 C 
ATOM      7  C   UNL     1       2.145   7.211  19.855  0.00  0.00    +0.000 C 
ENDBRANCH   2   5
BRANCH   2   9
ATOM      8  C   UNL     1       0.389   3.201  19.227  0.00  0.00    +0.000 C 
ATOM      9  C   UNL     1       1.374   4.228  19.792  0.00  0.00    +0.000 C 
BRANCH   9  10
ATOM     10  C   UNL     1       1.923   3.797  21.134  0.00  0.00    +0.000 C 
ATOM     11  C   UNL     1       1.449   2.533  21.808  0.00  0.00    +0.000 C 
ATOM     12  C   UNL     1       2.876   2.643  21.354  0.00  0.00    +0.000 C 
ENDBRANCH   9  10
ENDBRANCH   2   9
ENDBRANCH   1   3
BRANCH   1  13
ATOM     13  O   UNL     1       5.172   3.752  16.622  0.00  0.00    +0.000 OA
BRANCH  13  14
ATOM     14  C   UNL     1       6.049   4.313  15.740  0.00  0.00    +0.000 A 
ATOM     15  C   UNL     1       6.986   5.241  16.152  0.00  0.00    +0.000 A 
ATOM     16  O   UNL     1       7.746   5.658  15.102  0.00  0.00    +0.000 OA
ATOM     17  C   UNL     1       7.301   4.996  13.998  0.00  0.00    +0.000 A 
ATOM     18  C   UNL     1       7.824   5.143  12.712  0.00  0.00    +0.000 A 
ATOM     19  C   UNL     1       7.240   4.377  11.698  0.00  0.00    +0.000 A 
ATOM     20  C   UNL     1       6.185   3.513  11.974  0.00  0.00    +0.000 A 
ATOM     21  C   UNL     1       5.680   3.389  13.277  0.00  0.00    +0.000 A 
ATOM     22  C   UNL     1       6.247   4.144  14.328  0.00  0.00    +0.000 A 
BRANCH  15  23
ATOM     23  C   UNL     1       7.279   5.804  17.421  0.00  0.00    +0.000 C 
ATOM     24  N   UNL     1       7.506   6.246  18.475  0.00  0.00    +0.000 NA
ENDBRANCH  15  23
ENDBRANCH  13  14
ENDBRANCH   1  13
TORSDOF 7
ENDMDL
MODEL 2
REMARK VINA RESULT:      -7.8      3.407      6.035
REMARK  Name = 
REMARK  8 active torsions:
REMARK  status: ('A' for Active; 'I' for Inactive)
REMARK    1  A    between atoms: C_1  and  C_2
REMARK    2  A    between atoms: C_2  and  C_3
REMARK    3  A    between atoms: C_2  and  N_6
REMARK    4  A    between atoms: N_6  and  C_22
REMARK    5  A    between atoms: C_7  and  C_9
REMARK    6  A    between atoms: C_9  and  O_10
REMARK    7  A    between atoms: O_10  and  C_11
REMARK    8  A    between atoms: C_12  and  C_13
REMARK                            x       y       z     vdW  Elec       q    Type
REMARK                         _______ _______ _______ _____ _____    ______ ____
ROOT
ATOM      1  C   UNL     1       2.377   7.825  18.563  0.00  0.00    +0.000 C 
ENDROOT
BRANCH   1   3
ATOM      2  N   UNL     1       1.037   9.657  19.618  0.00  0.00    +0.000 N 
ATOM      3  C   UNL     1       1.823   9.270  18.508  0.00  0.00    +0.000 C 
ATOM      4  O   UNL     1       2.059  10.000  17.547  0.00  0.00    +0.000 OA
BRANCH   2   5
ATOM      5  C   UNL     1       0.766   8.724  20.706  0.00  0.00    +0.000 C 
ATOM      6  C   UNL     1       1.275   9.066  22.086  0.00  0.00    +0.000 C 
ATOM      7  C   UNL     1      -0.195   8.927  21.850  0.00  0.00    +0.000 C 
ENDBRANCH   2   5
BRANCH   2   9
ATOM      8  C   UNL     1       1.170  12.211  19.874  0.00  0.00    +0.000 C 
ATOM      9  C   UNL     1       0.325  10.954  19.655  0.00  0.00    +0.000 C 
BRANCH   9  10
ATOM     10  C   UNL     1      -0.671  11.138  18.532  0.00  0.00    +0.000 C 
ATOM     11  C   UNL     1      -1.787  10.147  18.301  0.00  0.00    +0.000 C 
ATOM     12  C   UNL     1      -2.115  11.554  18.709  0.00  0.00    +0.000 C 
ENDBRANCH   9  10
ENDBRANCH   2   9
ENDBRANCH   1   3
BRANCH   1  13
ATOM     13  O   UNL     1       3.401   7.518  17.628  0.00  0.00    +0.000 OA
BRANCH  13  14
ATOM     14  C   UNL     1       3.800   6.213  17.622  0.00  0.00    +0.000 A 
ATOM     15  C   UNL     1       5.123   5.868  17.425  0.00  0.00    +0.000 A 
ATOM     16  O   UNL     1       5.280   4.515  17.459  0.00  0.00    +0.000 OA
ATOM     17  C   UNL     1       4.049   3.977  17.682  0.00  0.00    +0.000 A 
ATOM     18  C   UNL     1       3.781   2.610  17.787  0.00  0.00    +0.000 A 
ATOM     19  C   UNL     1       2.452   2.240  18.020  0.00  0.00    +0.000 A 
ATOM     20  C   UNL     1       1.453   3.201  18.136  0.00  0.00    +0.000 A 
ATOM     21  C   UNL     1       1.754   4.567  18.024  0.00  0.00    +0.000 A 
ATOM     22  C   UNL     1       3.086   4.980  17.792  0.00  0.00    +0.000 A 
BRANCH  15  23
ATOM     23  C   UNL     1       6.291   6.645  17.206  0.00  0.00    +0.000 C 
ATOM     24  N   UNL     1       7.235   7.300  17.013  0.00  0.00    +0.000 NA
ENDBRANCH  15  23
ENDBRANCH  13  14
ENDBRANCH   1  13
TORSDOF 7
ENDMDL
MODEL 3
REMARK VINA RESULT:      -7.6      1.176      2.520
REMARK  Name = 
REMARK  8 active torsions:
REMARK  status: ('A' for Active; 'I' for Inactive)
REMARK    1  A    between atoms: C_1  and  C_2
REMARK    2  A    between atoms: C_2  and  C_3
REMARK    3  A    between atoms: C_2  and  N_6
REMARK    4  A    between atoms: N_6  and  C_22
REMARK    5  A    between atoms: C_7  and  C_9
REMARK    6  A    between atoms: C_9  and  O_10
REMARK    7  A    between atoms: O_10  and  C_11
REMARK    8  A    between atoms: C_12  and  C_13
REMARK                            x       y       z     vdW  Elec       q    Type
REMARK                         _______ _______ _______ _____ _____    ______ ____
ROOT
ATOM      1  C   UNL     1       4.608   3.954  17.524  0.00  0.00    +0.000 C 
ENDROOT
BRANCH   1   3
ATOM      2  N   UNL     1       2.810   4.107  19.258  0.00  0.00    +0.000 N 
ATOM      3  C   UNL     1       4.142   4.438  18.918  0.00  0.00    +0.000 C 
ATOM      4  O   UNL     1       4.898   5.075  19.650  0.00  0.00    +0.000 OA
BRANCH   2   5
ATOM      5  C   UNL     1       1.956   3.382  18.323  0.00  0.00    +0.000 C 
ATOM      6  C   UNL     1       1.816   1.888  18.492  0.00  0.00    +0.000 C 
ATOM      7  C   UNL     1       0.612   2.767  18.619  0.00  0.00    +0.000 C 
ENDBRANCH   2   5
BRANCH   2   9
ATOM      8  C   UNL     1       2.366   3.787  21.770  0.00  0.00    +0.000 C 
ATOM      9  C   UNL     1       2.172   4.611  20.494  0.00  0.00    +0.000 C 
BRANCH   9  10
ATOM     10  C   UNL     1       2.396   6.086  20.741  0.00  0.00    +0.000 C 
ATOM     11  C   UNL     1       2.172   7.108  19.652  0.00  0.00    +0.000 C 
ATOM     12  C   UNL     1       1.301   7.122  20.876  0.00  0.00    +0.000 C 
ENDBRANCH   9  10
ENDBRANCH   2   9
ENDBRANCH   1   3
BRANCH   1  13
ATOM     13  O   UNL     1       4.492   4.898  16.469  0.00  0.00    +0.000 OA
BRANCH  13  14
ATOM     14  C   UNL     1       5.560   4.944  15.621  0.00  0.00    +0.000 A 
ATOM     15  C   UNL     1       6.729   5.590  15.973  0.00  0.00    +0.000 A 
ATOM     16  O   UNL     1       7.649   5.505  14.972  0.00  0.00    +0.000 OA
ATOM     17  C   UNL     1       7.073   4.797  13.961  0.00  0.00    +0.000 A 
ATOM     18  C   UNL     1       7.693   4.486  12.748  0.00  0.00    +0.000 A 
ATOM     19  C   UNL     1       6.946   3.746  11.825  0.00  0.00    +0.000 A 
ATOM     20  C   UNL     1       5.645   3.347  12.116  0.00  0.00    +0.000 A 
ATOM     21  C   UNL     1       5.050   3.676  13.343  0.00  0.00    +0.000 A 
ATOM     22  C   UNL     1       5.774   4.420  14.302  0.00  0.00    +0.000 A 
BRANCH  15  23
ATOM     23  C   UNL     1       7.118   6.291  17.144  0.00  0.00    +0.000 C 
ATOM     24  N   UNL     1       7.448   6.886  18.090  0.00  0.00    +0.000 NA
ENDBRANCH  15  23
ENDBRANCH  13  14
ENDBRANCH   1  13
TORSDOF 7
ENDMDL
MODEL 4
REMARK VINA RESULT:      -7.6      1.165      1.874
REMARK  Name = 
REMARK  8 active torsions:
REMARK  status: ('A' for Active; 'I' for Inactive)
REMARK    1  A    between atoms: C_1  and  C_2
REMARK    2  A    between atoms: C_2  and  C_3
REMARK    3  A    between atoms: C_2  and  N_6
REMARK    4  A    between atoms: N_6  and  C_22
REMARK    5  A    between atoms: C_7  and  C_9
REMARK    6  A    between atoms: C_9  and  O_10
REMARK    7  A    between atoms: O_10  and  C_11
REMARK    8  A    between atoms: C_12  and  C_13
REMARK                            x       y       z     vdW  Elec       q    Type
REMARK                         _______ _______ _______ _____ _____    ______ ____
ROOT
ATOM      1  C   UNL     1       4.163   4.382  17.153  0.00  0.00    +0.000 C 
ENDROOT
BRANCH   1   3
ATOM      2  N   UNL     1       2.566   4.362  19.080  0.00  0.00    +0.000 N 
ATOM      3  C   UNL     1       3.828   4.792  18.608  0.00  0.00    +0.000 C 
ATOM      4  O   UNL     1       4.620   5.455  19.275  0.00  0.00    +0.000 OA
BRANCH   2   5
ATOM      5  C   UNL     1       1.660   3.611  18.219  0.00  0.00    +0.000 C 
ATOM      6  C   UNL     1       1.990   2.169  17.917  0.00  0.00    +0.000 C 
ATOM      7  C   UNL     1       0.724   2.507  18.639  0.00  0.00    +0.000 C 
ENDBRANCH   2   5
BRANCH   2   9
ATOM      8  C   UNL     1       0.561   5.168  20.472  0.00  0.00    +0.000 C 
ATOM      9  C   UNL     1       2.041   4.785  20.397  0.00  0.00    +0.000 C 
BRANCH   9  10
ATOM     10  C   UNL     1       2.442   3.875  21.537  0.00  0.00    +0.000 C 
ATOM     11  C   UNL     1       1.638   2.644  21.880  0.00  0.00    +0.000 C 
ATOM     12  C   UNL     1       3.046   2.496  21.378  0.00  0.00    +0.000 C 
ENDBRANCH   9  10
ENDBRANCH   2   9
ENDBRANCH   1   3
BRANCH   1  13
ATOM     13  O   UNL     1       5.433   3.778  16.956  0.00  0.00    +0.000 OA
BRANCH  13  14
ATOM     14  C   UNL     1       6.202   4.360  15.990  0.00  0.00    +0.000 A 
ATOM     15  C   UNL     1       7.102   5.362  16.297  0.00  0.00    +0.000 A 
ATOM     16  O   UNL     1       7.752   5.787  15.177  0.00  0.00    +0.000 OA
ATOM     17  C   UNL     1       7.271   5.054  14.135  0.00  0.00    +0.000 A 
ATOM     18  C   UNL     1       7.686   5.184  12.807  0.00  0.00    +0.000 A 
ATOM     19  C   UNL     1       7.080   4.342  11.869  0.00  0.00    +0.000 A 
ATOM     20  C   UNL     1       6.109   3.424  12.254  0.00  0.00    +0.000 A 
ATOM     21  C   UNL     1       5.713   3.318  13.596  0.00  0.00    +0.000 A 
ATOM     22  C   UNL     1       6.304   4.149  14.574  0.00  0.00    +0.000 A 
BRANCH  15  23
ATOM     23  C   UNL     1       7.451   5.992  17.520  0.00  0.00    +0.000 C 
ATOM     24  N   UNL     1       7.739   6.533  18.511  0.00  0.00    +0.000 NA
ENDBRANCH  15  23
ENDBRANCH  13  14
ENDBRANCH   1  13
TORSDOF 7
ENDMDL
MODEL 5
REMARK VINA RESULT:      -7.6      3.643      6.889
REMARK  Name = 
REMARK  8 active torsions:
REMARK  status: ('A' for Active; 'I' for Inactive)
REMARK    1  A    between atoms: C_1  and  C_2
REMARK    2  A    between atoms: C_2  and  C_3
REMARK    3  A    between atoms: C_2  and  N_6
REMARK    4  A    between atoms: N_6  and  C_22
REMARK    5  A    between atoms: C_7  and  C_9
REMARK    6  A    between atoms: C_9  and  O_10
REMARK    7  A    between atoms: O_10  and  C_11
REMARK    8  A    between atoms: C_12  and  C_13
REMARK                            x       y       z     vdW  Elec       q    Type
REMARK                         _______ _______ _______ _____ _____    ______ ____
ROOT
ATOM      1  C   UNL     1       1.859   8.169  18.061  0.00  0.00    +0.000 C 
ENDROOT
BRANCH   1   3
ATOM      2  N   UNL     1       0.965  10.004  19.510  0.00  0.00    +0.000 N 
ATOM      3  C   UNL     1       1.660   9.682  18.321  0.00  0.00    +0.000 C 
ATOM      4  O   UNL     1       2.076  10.520  17.523  0.00  0.00    +0.000 OA
BRANCH   2   5
ATOM      5  C   UNL     1       0.464   8.955  20.391  0.00  0.00    +0.000 C 
ATOM      6  C   UNL     1       1.222   8.667  21.665  0.00  0.00    +0.000 C 
ATOM      7  C   UNL     1      -0.194   9.144  21.735  0.00  0.00    +0.000 C 
ENDBRANCH   2   5
BRANCH   2   9
ATOM      8  C   UNL     1       1.704  12.410  20.030  0.00  0.00    +0.000 C 
ATOM      9  C   UNL     1       0.576  11.394  19.835  0.00  0.00    +0.000 C 
BRANCH   9  10
ATOM     10  C   UNL     1      -0.526  11.942  18.956  0.00  0.00    +0.000 C 
ATOM     11  C   UNL     1      -1.618  11.050  18.417  0.00  0.00    +0.000 C 
ATOM     12  C   UNL     1      -1.963  12.144  19.386  0.00  0.00    +0.000 C 
ENDBRANCH   9  10
ENDBRANCH   2   9
ENDBRANCH   1   3
BRANCH   1  13
ATOM     13  O   UNL     1       3.051   7.602  18.584  0.00  0.00    +0.000 OA
BRANCH  13  14
ATOM     14  C   UNL     1       3.130   6.243  18.490  0.00  0.00    +0.000 A 
ATOM     15  C   UNL     1       3.933   5.634  17.545  0.00  0.00    +0.000 A 
ATOM     16  O   UNL     1       3.849   4.278  17.642  0.00  0.00    +0.000 OA
ATOM     17  C   UNL     1       2.985   4.003  18.658  0.00  0.00    +0.000 A 
ATOM     18  C   UNL     1       2.628   2.720  19.079  0.00  0.00    +0.000 A 
ATOM     19  C   UNL     1       1.726   2.631  20.144  0.00  0.00    +0.000 A 
ATOM     20  C   UNL     1       1.214   3.776  20.745  0.00  0.00    +0.000 A 
ATOM     21  C   UNL     1       1.590   5.051  20.298  0.00  0.00    +0.000 A 
ATOM     22  C   UNL     1       2.503   5.182  19.226  0.00  0.00    +0.000 A 
BRANCH  15  23
ATOM     23  C   UNL     1       4.791   6.155  16.542  0.00  0.00    +0.000 C 
ATOM     24  N   UNL     1       5.474   6.586  15.702  0.00  0.00    +0.000 NA
ENDBRANCH  15  23
ENDBRANCH  13  14
ENDBRANCH   1  13
TORSDOF 7
ENDMDL
MODEL 6
REMARK VINA RESULT:      -7.5      3.373      6.804
REMARK  Name = 
REMARK  8 active torsions:
REMARK  status: ('A' for Active; 'I' for Inactive)
REMARK    1  A    between atoms: C_1  and  C_2
REMARK    2  A    between atoms: C_2  and  C_3
REMARK    3  A    between atoms: C_2  and  N_6
REMARK    4  A    between atoms: N_6  and  C_22
REMARK    5  A    between atoms: C_7  and  C_9
REMARK    6  A    between atoms: C_9  and  O_10
REMARK    7  A    between atoms: O_10  and  C_11
REMARK    8  A    between atoms: C_12  and  C_13
REMARK                            x       y       z     vdW  Elec       q    Type
REMARK                         _______ _______ _______ _____ _____    ______ ____
ROOT
ATOM      1  C   UNL     1       2.514   7.734  18.894  0.00  0.00    +0.000 C 
ENDROOT
BRANCH   1   3
ATOM      2  N   UNL     1       0.825   9.491  19.465  0.00  0.00    +0.000 N 
ATOM      3  C   UNL     1       1.755   9.025  18.506  0.00  0.00    +0.000 C 
ATOM      4  O   UNL     1       1.959   9.577  17.426  0.00  0.00    +0.000 OA
BRANCH   2   5
ATOM      5  C   UNL     1       0.605   8.762  20.709  0.00  0.00    +0.000 C 
ATOM      6  C   UNL     1       1.199   9.321  21.981  0.00  0.00    +0.000 C 
ATOM      7  C   UNL     1      -0.285   9.178  21.853  0.00  0.00    +0.000 C 
ENDBRANCH   2   5
BRANCH   2   9
ATOM      8  C   UNL     1       0.530  12.036  19.264  0.00  0.00    +0.000 C 
ATOM      9  C   UNL     1      -0.075  10.632  19.189  0.00  0.00    +0.000 C 
BRANCH   9  10
ATOM     10  C   UNL     1      -0.927  10.455  17.953  0.00  0.00    +0.000 C 
ATOM     11  C   UNL     1      -2.334   9.914  18.038  0.00  0.00    +0.000 C 
ATOM     12  C   UNL     1      -2.107  11.325  17.576  0.00  0.00    +0.000 C 
ENDBRANCH   9  10
ENDBRANCH   2   9
ENDBRANCH   1   3
BRANCH   1  13
ATOM     13  O   UNL     1       2.335   6.624  18.025  0.00  0.00    +0.000 OA
BRANCH  13  14
ATOM     14  C   UNL     1       2.895   5.459  18.460  0.00  0.00    +0.000 A 
ATOM     15  C   UNL     1       3.976   4.895  17.809  0.00  0.00    +0.000 A 
ATOM     16  O   UNL     1       4.359   3.740  18.421  0.00  0.00    +0.000 OA
ATOM     17  C   UNL     1       3.523   3.552  19.478  0.00  0.00    +0.000 A 
ATOM     18  C   UNL     1       3.585   2.475  20.366  0.00  0.00    +0.000 A 
ATOM     19  C   UNL     1       2.642   2.448  21.398  0.00  0.00    +0.000 A 
ATOM     20  C   UNL     1       1.688   3.454  21.520  0.00  0.00    +0.000 A 
ATOM     21  C   UNL     1       1.649   4.521  20.611  0.00  0.00    +0.000 A 
ATOM     22  C   UNL     1       2.589   4.585  19.557  0.00  0.00    +0.000 A 
BRANCH  15  23
ATOM     23  C   UNL     1       4.720   5.297  16.669  0.00  0.00    +0.000 C 
ATOM     24  N   UNL     1       5.321   5.605  15.720  0.00  0.00    +0.000 NA
ENDBRANCH  15  23
ENDBRANCH  13  14
ENDBRANCH   1  13
TORSDOF 7
ENDMDL
MODEL 7
REMARK VINA RESULT:      -7.5      0.963      1.117
REMARK  Name = 
REMARK  8 active torsions:
REMARK  status: ('A' for Active; 'I' for Inactive)
REMARK    1  A    between atoms: C_1  and  C_2
REMARK    2  A    between atoms: C_2  and  C_3
REMARK    3  A    between atoms: C_2  and  N_6
REMARK    4  A    between atoms: N_6  and  C_22
REMARK    5  A    between atoms: C_7  and  C_9
REMARK    6  A    between atoms: C_9  and  O_10
REMARK    7  A    between atoms: O_10  and  C_11
REMARK    8  A    between atoms: C_12  and  C_13
REMARK                            x       y       z     vdW  Elec       q    Type
REMARK                         _______ _______ _______ _____ _____    ______ ____
ROOT
ATOM      1  C   UNL     1       4.883   3.670  17.528  0.00  0.00    +0.000 C 
ENDROOT
BRANCH   1   3
ATOM      2  N   UNL     1       2.636   3.695  18.631  0.00  0.00    +0.000 N 
ATOM      3  C   UNL     1       3.658   2.894  18.070  0.00  0.00    +0.000 C 
ATOM      4  O   UNL     1       3.613   1.667  18.014  0.00  0.00    +0.000 OA
BRANCH   2   5
ATOM      5  C   UNL     1       2.775   5.146  18.701  0.00  0.00    +0.000 C 
ATOM      6  C   UNL     1       2.176   5.866  19.886  0.00  0.00    +0.000 C 
ATOM      7  C   UNL     1       3.652   5.924  19.648  0.00  0.00    +0.000 C 
ENDBRANCH   2   5
BRANCH   2   9
ATOM      8  C   UNL     1       0.436   2.381  18.438  0.00  0.00    +0.000 C 
ATOM      9  C   UNL     1       1.465   3.101  19.313  0.00  0.00    +0.000 C 
BRANCH   9  10
ATOM     10  C   UNL     1       1.816   2.295  20.543  0.00  0.00    +0.000 C 
ATOM     11  C   UNL     1       2.808   2.805  21.560  0.00  0.00    +0.000 C 
ATOM     12  C   UNL     1       1.371   2.618  21.953  0.00  0.00    +0.000 C 
ENDBRANCH   9  10
ENDBRANCH   2   9
ENDBRANCH   1   3
BRANCH   1  13
ATOM     13  O   UNL     1       4.618   4.593  16.481  0.00  0.00    +0.000 OA
BRANCH  13  14
ATOM     14  C   UNL     1       5.645   4.771  15.600  0.00  0.00    +0.000 A 
ATOM     15  C   UNL     1       6.763   5.508  15.940  0.00  0.00    +0.000 A 
ATOM     16  O   UNL     1       7.648   5.547  14.906  0.00  0.00    +0.000 OA
ATOM     17  C   UNL     1       7.102   4.829  13.885  0.00  0.00    +0.000 A 
ATOM     18  C   UNL     1       7.701   4.625  12.640  0.00  0.00    +0.000 A 
ATOM     19  C   UNL     1       6.991   3.856  11.713  0.00  0.00    +0.000 A 
ATOM     20  C   UNL     1       5.744   3.327  12.030  0.00  0.00    +0.000 A 
ATOM     21  C   UNL     1       5.167   3.551  13.288  0.00  0.00    +0.000 A 
ATOM     22  C   UNL     1       5.856   4.320  14.254  0.00  0.00    +0.000 A 
BRANCH  15  23
ATOM     23  C   UNL     1       7.130   6.195  17.126  0.00  0.00    +0.000 C 
ATOM     24  N   UNL     1       7.420   6.739  18.115  0.00  0.00    +0.000 NA
ENDBRANCH  15  23
ENDBRANCH  13  14
ENDBRANCH   1  13
TORSDOF 7
ENDMDL
MODEL 8
REMARK VINA RESULT:      -7.3      3.509      6.071
REMARK  Name = 
REMARK  8 active torsions:
REMARK  status: ('A' for Active; 'I' for Inactive)
REMARK    1  A    between atoms: C_1  and  C_2
REMARK    2  A    between atoms: C_2  and  C_3
REMARK    3  A    between atoms: C_2  and  N_6
REMARK    4  A    between atoms: N_6  and  C_22
REMARK    5  A    between atoms: C_7  and  C_9
REMARK    6  A    between atoms: C_9  and  O_10
REMARK    7  A    between atoms: O_10  and  C_11
REMARK    8  A    between atoms: C_12  and  C_13
REMARK                            x       y       z     vdW  Elec       q    Type
REMARK                         _______ _______ _______ _____ _____    ______ ____
ROOT
ATOM      1  C   UNL     1       2.178   7.613  18.825  0.00  0.00    +0.000 C 
ENDROOT
BRANCH   1   3
ATOM      2  N   UNL     1       0.992   9.635  19.701  0.00  0.00    +0.000 N 
ATOM      3  C   UNL     1       1.748   9.088  18.638  0.00  0.00    +0.000 C 
ATOM      4  O   UNL     1       2.048   9.708  17.620  0.00  0.00    +0.000 OA
BRANCH   2   5
ATOM      5  C   UNL     1       0.638   8.827  20.862  0.00  0.00    +0.000 C 
ATOM      6  C   UNL     1       1.306   9.140  22.181  0.00  0.00    +0.000 C 
ATOM      7  C   UNL     1      -0.180   9.265  22.051  0.00  0.00    +0.000 C 
ENDBRANCH   2   5
BRANCH   2   9
ATOM      8  C   UNL     1       1.346  12.181  19.673  0.00  0.00    +0.000 C 
ATOM      9  C   UNL     1       0.392  10.986  19.617  0.00  0.00    +0.000 C 
BRANCH   9  10
ATOM     10  C   UNL     1      -0.628  11.134  18.510  0.00  0.00    +0.000 C 
ATOM     11  C   UNL     1      -1.711  10.104  18.295  0.00  0.00    +0.000 C 
ATOM     12  C   UNL     1      -2.083  11.499  18.710  0.00  0.00    +0.000 C 
ENDBRANCH   9  10
ENDBRANCH   2   9
ENDBRANCH   1   3
BRANCH   1  13
ATOM     13  O   UNL     1       2.455   6.892  17.633  0.00  0.00    +0.000 OA
BRANCH  13  14
ATOM     14  C   UNL     1       3.467   5.983  17.734  0.00  0.00    +0.000 A 
ATOM     15  C   UNL     1       3.208   4.638  17.921  0.00  0.00    +0.000 A 
ATOM     16  O   UNL     1       4.369   3.929  17.993  0.00  0.00    +0.000 OA
ATOM     17  C   UNL     1       5.390   4.818  17.851  0.00  0.00    +0.000 A 
ATOM     18  C   UNL     1       6.747   4.488  17.865  0.00  0.00    +0.000 A 
ATOM     19  C   UNL     1       7.657   5.537  17.702  0.00  0.00    +0.000 A 
ATOM     20  C   UNL     1       7.217   6.846  17.536  0.00  0.00    +0.000 A 
ATOM     21  C   UNL     1       5.847   7.147  17.528  0.00  0.00    +0.000 A 
ATOM     22  C   UNL     1       4.896   6.113  17.687  0.00  0.00    +0.000 A 
BRANCH  15  23
ATOM     23  C   UNL     1       1.999   3.906  18.042  0.00  0.00    +0.000 C 
ATOM     24  N   UNL     1       1.018   3.284  18.129  0.00  0.00    +0.000 NA
ENDBRANCH  15  23
ENDBRANCH  13  14
ENDBRANCH   1  13
TORSDOF 7
ENDMDL
MODEL 9
REMARK VINA RESULT:      -7.3      3.597      6.938
REMARK  Name = 
REMARK  8 active torsions:
REMARK  status: ('A' for Active; 'I' for Inactive)
REMARK    1  A    between atoms: C_1  and  C_2
REMARK    2  A    between atoms: C_2  and  C_3
REMARK    3  A    between atoms: C_2  and  N_6
REMARK    4  A    between atoms: N_6  and  C_22
REMARK    5  A    between atoms: C_7  and  C_9
REMARK    6  A    between atoms: C_9  and  O_10
REMARK    7  A    between atoms: O_10  and  C_11
REMARK    8  A    between atoms: C_12  and  C_13
REMARK                            x       y       z     vdW  Elec       q    Type
REMARK                         _______ _______ _______ _____ _____    ______ ____
ROOT
ATOM      1  C   UNL     1       2.245   7.944  18.946  0.00  0.00    +0.000 C 
ENDROOT
BRANCH   1   3
ATOM      2  N   UNL     1       0.688   9.866  19.330  0.00  0.00    +0.000 N 
ATOM      3  C   UNL     1       1.647   9.288  18.466  0.00  0.00    +0.000 C 
ATOM      4  O   UNL     1       1.992   9.786  17.396  0.00  0.00    +0.000 OA
BRANCH   2   5
ATOM      5  C   UNL     1       0.297   9.198  20.567  0.00  0.00    +0.000 C 
ATOM      6  C   UNL     1       1.150   9.411  21.796  0.00  0.00    +0.000 C 
ATOM      7  C   UNL     1      -0.281   9.848  21.799  0.00  0.00    +0.000 C 
ENDBRANCH   2   5
BRANCH   2   9
ATOM      8  C   UNL     1      -1.600  10.961  18.916  0.00  0.00    +0.000 C 
ATOM      9  C   UNL     1      -0.074  11.077  18.953  0.00  0.00    +0.000 C 
BRANCH   9  10
ATOM     10  C   UNL     1       0.375  12.331  19.670  0.00  0.00    +0.000 C 
ATOM     11  C   UNL     1       1.826  12.749  19.688  0.00  0.00    +0.000 C 
ATOM     12  C   UNL     1       0.813  13.611  18.992  0.00  0.00    +0.000 C 
ENDBRANCH   9  10
ENDBRANCH   2   9
ENDBRANCH   1   3
BRANCH   1  13
ATOM     13  O   UNL     1       2.201   6.876  18.011  0.00  0.00    +0.000 OA
BRANCH  13  14
ATOM     14  C   UNL     1       2.837   5.737  18.410  0.00  0.00    +0.000 A 
ATOM     15  C   UNL     1       4.005   5.318  17.804  0.00  0.00    +0.000 A 
ATOM     16  O   UNL     1       4.453   4.161  18.368  0.00  0.00    +0.000 OA
ATOM     17  C   UNL     1       3.569   3.826  19.348  0.00  0.00    +0.000 A 
ATOM     18  C   UNL     1       3.673   2.701  20.169  0.00  0.00    +0.000 A 
ATOM     19  C   UNL     1       2.670   2.519  21.126  0.00  0.00    +0.000 A 
ATOM     20  C   UNL     1       1.621   3.426  21.243  0.00  0.00    +0.000 A 
ATOM     21  C   UNL     1       1.544   4.547  20.403  0.00  0.00    +0.000 A 
ATOM     22  C   UNL     1       2.541   4.766  19.425  0.00  0.00    +0.000 A 
BRANCH  15  23
ATOM     23  C   UNL     1       4.783   5.861  16.748  0.00  0.00    +0.000 C 
ATOM     24  N   UNL     1       5.441   6.311  15.899  0.00  0.00    +0.000 NA
ENDBRANCH  15  23
ENDBRANCH  13  14
ENDBRANCH   1  13
TORSDOF 7
ENDMDL
