MODEL 1
REMARK VINA RESULT:      -7.4      0.000      0.000
REMARK  Name = 
REMARK  11 active torsions:
REMARK  status: ('A' for Active; 'I' for Inactive)
REMARK    1  A    between atoms: C_1  and  C_2
REMARK    2  A    between atoms: C_2  and  O_3
REMARK    3  A    between atoms: O_3  and  C_4
REMARK    4  A    between atoms: C_4  and  C_6
REMARK    5  A    between atoms: C_6  and  C_7
REMARK    6  A    between atoms: C_8  and  C_9
REMARK    7  A    between atoms: C_9  and  O_11
REMARK    8  A    between atoms: O_11  and  C_12
REMARK    9  A    between atoms: C_12  and  C_13
REMARK   10  A    between atoms: C_17  and  C_18
REMARK   11  A    between atoms: C_24  and  C_25
REMARK                            x       y       z     vdW  Elec       q    Type
REMARK                         _______ _______ _______ _____ _____    ______ ____
ROOT
ATOM      1  C   UNL     1       3.438   5.715  18.364  0.00  0.00    +0.000 A 
ATOM      2  C   UNL     1       3.285   4.799  19.345  0.00  0.00    +0.000 A 
ATOM      3  N   UNL     1       2.587   5.080  20.508  0.00  0.00    +0.000 NA
ATOM      4  N   UNL     1       2.080   6.212  20.718  0.00  0.00    +0.000 NA
ATOM      5  C   UNL     1       2.169   7.199  19.784  0.00  0.00    +0.000 A 
ATOM      6  C   UNL     1       1.676   8.489  19.716  0.00  0.00    +0.000 A 
ATOM      7  C   UNL     1       2.125   8.971  18.456  0.00  0.00    +0.000 A 
ATOM      8  C   UNL     1       1.885  10.287  17.801  0.00  0.00    +0.000 C 
ATOM      9  N   UNL     1       2.838   8.053  17.790  0.00  0.00    +0.000 NA
ATOM     10  N   UNL     1       2.859   6.965  18.603  0.00  0.00    +0.000 N 
ENDROOT
BRANCH   6  11
ATOM     11  C   UNL     1       0.860   9.102  20.760  0.00  0.00    +0.000 A 
ATOM     12  C   UNL     1       1.098   8.828  22.113  0.00  0.00    +0.000 A 
ATOM     13  C   UNL     1       0.351   9.459  23.112  0.00  0.00    +0.000 A 
ATOM     14  C   UNL     1      -0.668  10.344  22.769  0.00  0.00    +0.000 A 
ATOM     15  C   UNL     1      -0.943  10.599  21.430  0.00  0.00    +0.000 A 
ATOM     16  C   UNL     1      -0.175   9.992  20.434  0.00  0.00    +0.000 A 
ENDBRANCH   6  11
BRANCH   2  17
ATOM     17  C   UNL     1       3.844   3.419  19.199  0.00  0.00    +0.000 C 
ATOM     18  O   UNL     1       4.931   3.049  19.615  0.00  0.00    +0.000 OA
BRANCH  17  19
ATOM     19  O   UNL     1       3.010   2.688  18.410  0.00  0.00    +0.000 OA
BRANCH  19  20
ATOM     20  C   UNL     1       2.054   1.886  19.109  0.00  0.00    +0.000 C 
ATOM     21  C   UNL     1       0.669   2.412  18.778  0.00  0.00    +0.000 C 
ENDBRANCH  19  20
ENDBRANCH  17  19
ENDBRANCH   2  17
BRANCH   1  22
ATOM     22  C   UNL     1       4.185   5.537  17.071  0.00  0.00    +0.000 C 
BRANCH  22  23
ATOM     23  C   UNL     1       5.646   5.856  17.309  0.00  0.00    +0.000 C 
ATOM     24  O   UNL     1       6.103   6.971  17.536  0.00  0.00    +0.000 OA
BRANCH  23  25
ATOM     25  O   UNL     1       6.387   4.723  17.146  0.00  0.00    +0.000 OA
BRANCH  25  27
ATOM     26  C   UNL     1       6.931   4.686  14.831  0.00  0.00    +0.000 C 
ATOM     27  C   UNL     1       6.127   4.013  15.929  0.00  0.00    +0.000 C 
ENDBRANCH  25  27
ENDBRANCH  23  25
ENDBRANCH  22  23
ENDBRANCH   1  22
TORSDOF 8
ENDMDL
MODEL 2
REMARK VINA RESULT:      -7.3      3.432      7.877
REMARK  Name = 
REMARK  11 active torsions:
REMARK  status: ('A' for Active; 'I' for Inactive)
REMARK    1  A    between atoms: C_1  and  C_2
REMARK    2  A    between atoms: C_2  and  O_3
REMARK    3  A    between atoms: O_3  and  C_4
REMARK    4  A    between atoms: C_4  and  C_6
REMARK    5  A    between atoms: C_6  and  C_7
REMARK    6  A    between atoms: C_8  and  C_9
REMARK    7  A    between atoms: C_9  and  O_11
REMARK    8  A    between atoms: O_11  and  C_12
REMARK    9  A    between atoms: C_12  and  C_13
REMARK   10  A    between atoms: C_17  and  C_18
REMARK   11  A    between atoms: C_24  and  C_25
REMARK                            x       y       z     vdW  Elec       q    Type
REMARK                         _______ _______ _______ _____ _____    ______ ____
ROOT
ATOM      1  C   UNL     1       0.850   8.980  20.146  0.00  0.00    +0.000 A 
ATOM      2  C   UNL     1       1.059   9.923  19.201  0.00  0.00    +0.000 A 
ATOM      3  N   UNL     1       1.910   9.711  18.129  0.00  0.00    +0.000 NA
ATOM      4  N   UNL     1       2.549   8.636  17.995  0.00  0.00    +0.000 NA
ATOM      5  C   UNL     1       2.397   7.619  18.888  0.00  0.00    +0.000 A 
ATOM      6  C   UNL     1       2.913   6.338  18.966  0.00  0.00    +0.000 A 
ATOM      7  C   UNL     1       2.334   5.797  20.148  0.00  0.00    +0.000 A 
ATOM      8  C   UNL     1       2.483   4.441  20.743  0.00  0.00    +0.000 C 
ATOM      9  N   UNL     1       1.521   6.671  20.756  0.00  0.00    +0.000 NA
ATOM     10  N   UNL     1       1.556   7.785  19.980  0.00  0.00    +0.000 N 
ENDROOT
BRANCH   6  11
ATOM     11  C   UNL     1       3.819   5.767  17.975  0.00  0.00    +0.000 A 
ATOM     12  C   UNL     1       3.577   4.503  17.422  0.00  0.00    +0.000 A 
ATOM     13  C   UNL     1       4.416   3.983  16.432  0.00  0.00    +0.000 A 
ATOM     14  C   UNL     1       5.530   4.705  16.009  0.00  0.00    +0.000 A 
ATOM     15  C   UNL     1       5.806   5.946  16.574  0.00  0.00    +0.000 A 
ATOM     16  C   UNL     1       4.949   6.478  17.540  0.00  0.00    +0.000 A 
ENDBRANCH   6  11
BRANCH   2  17
ATOM     17  C   UNL     1       0.348  11.238  19.261  0.00  0.00    +0.000 C 
ATOM     18  O   UNL     1       0.712  12.210  19.903  0.00  0.00    +0.000 OA
BRANCH  17  19
ATOM     19  O   UNL     1      -0.836  11.128  18.597  0.00  0.00    +0.000 OA
BRANCH  19  20
ATOM     20  C   UNL     1      -1.962  11.716  19.253  0.00  0.00    +0.000 C 
ATOM     21  C   UNL     1      -3.165  11.574  18.336  0.00  0.00    +0.000 C 
ENDBRANCH  19  20
ENDBRANCH  17  19
ENDBRANCH   2  17
BRANCH   1  22
ATOM     22  C   UNL     1      -0.030   9.098  21.360  0.00  0.00    +0.000 C 
BRANCH  22  23
ATOM     23  C   UNL     1       0.793   9.657  22.502  0.00  0.00    +0.000 C 
ATOM     24  O   UNL     1       2.004   9.523  22.637  0.00  0.00    +0.000 OA
BRANCH  23  25
ATOM     25  O   UNL     1      -0.035  10.259  23.402  0.00  0.00    +0.000 OA
BRANCH  25  27
ATOM     26  C   UNL     1      -1.056  12.344  22.892  0.00  0.00    +0.000 C 
ATOM     27  C   UNL     1      -1.216  10.836  22.831  0.00  0.00    +0.000 C 
ENDBRANCH  25  27
ENDBRANCH  23  25
ENDBRANCH  22  23
ENDBRANCH   1  22
TORSDOF 8
ENDMDL
MODEL 3
REMARK VINA RESULT:      -7.3      3.374      7.921
REMARK  Name = 
REMARK  11 active torsions:
REMARK  status: ('A' for Active; 'I' for Inactive)
REMARK    1  A    between atoms: C_1  and  C_2
REMARK    2  A    between atoms: C_2  and  O_3
REMARK    3  A    between atoms: O_3  and  C_4
REMARK    4  A    between atoms: C_4  and  C_6
REMARK    5  A    between atoms: C_6  and  C_7
REMARK    6  A    between atoms: C_8  and  C_9
REMARK    7  A    between atoms: C_9  and  O_11
REMARK    8  A    between atoms: O_11  and  C_12
REMARK    9  A    between atoms: C_12  and  C_13
REMARK   10  A    between atoms: C_17  and  C_18
REMARK   11  A    between atoms: C_24  and  C_25
REMARK                            x       y       z     vdW  Elec       q    Type
REMARK                         _______ _______ _______ _____ _____    ______ ____
ROOT
ATOM      1  C   UNL     1       0.937   8.988  19.717  0.00  0.00    +0.000 A 
ATOM      2  C   UNL     1       1.075   9.901  18.731  0.00  0.00    +0.000 A 
ATOM      3  N   UNL     1       1.929   9.700  17.659  0.00  0.00    +0.000 NA
ATOM      4  N   UNL     1       2.637   8.665  17.563  0.00  0.00    +0.000 NA
ATOM      5  C   UNL     1       2.560   7.679  18.499  0.00  0.00    +0.000 A 
ATOM      6  C   UNL     1       3.161   6.440  18.625  0.00  0.00    +0.000 A 
ATOM      7  C   UNL     1       2.629   5.912  19.834  0.00  0.00    +0.000 A 
ATOM      8  C   UNL     1       2.873   4.595  20.485  0.00  0.00    +0.000 C 
ATOM      9  N   UNL     1       1.765   6.756  20.415  0.00  0.00    +0.000 NA
ATOM     10  N   UNL     1       1.719   7.836  19.592  0.00  0.00    +0.000 N 
ENDROOT
BRANCH   6  11
ATOM     11  C   UNL     1       4.095   5.888  17.648  0.00  0.00    +0.000 A 
ATOM     12  C   UNL     1       5.234   6.605  17.258  0.00  0.00    +0.000 A 
ATOM     13  C   UNL     1       6.156   6.051  16.365  0.00  0.00    +0.000 A 
ATOM     14  C   UNL     1       5.930   4.788  15.822  0.00  0.00    +0.000 A 
ATOM     15  C   UNL     1       4.786   4.078  16.170  0.00  0.00    +0.000 A 
ATOM     16  C   UNL     1       3.882   4.620  17.086  0.00  0.00    +0.000 A 
ENDBRANCH   6  11
BRANCH   2  17
ATOM     17  C   UNL     1       0.278  11.168  18.743  0.00  0.00    +0.000 C 
ATOM     18  O   UNL     1       0.667  12.243  19.171  0.00  0.00    +0.000 OA
BRANCH  17  19
ATOM     19  O   UNL     1      -0.990  10.893  18.330  0.00  0.00    +0.000 OA
BRANCH  19  20
ATOM     20  C   UNL     1      -2.027  11.566  19.049  0.00  0.00    +0.000 C 
ATOM     21  C   UNL     1      -3.289  11.517  18.206  0.00  0.00    +0.000 C 
ENDBRANCH  19  20
ENDBRANCH  17  19
ENDBRANCH   2  17
BRANCH   1  22
ATOM     22  C   UNL     1       0.061   9.098  20.934  0.00  0.00    +0.000 C 
BRANCH  22  23
ATOM     23  C   UNL     1       0.828   9.829  22.017  0.00  0.00    +0.000 C 
ATOM     24  O   UNL     1       1.829   9.407  22.586  0.00  0.00    +0.000 OA
BRANCH  23  25
ATOM     25  O   UNL     1       0.182  10.990  22.322  0.00  0.00    +0.000 OA
BRANCH  25  27
ATOM     26  C   UNL     1      -1.819  12.125  22.922  0.00  0.00    +0.000 C 
ATOM     27  C   UNL     1      -1.058  10.815  23.018  0.00  0.00    +0.000 C 
ENDBRANCH  25  27
ENDBRANCH  23  25
ENDBRANCH  22  23
ENDBRANCH   1  22
TORSDOF 8
ENDMDL
MODEL 4
REMARK VINA RESULT:      -7.3      1.803      4.271
REMARK  Name = 
REMARK  11 active torsions:
REMARK  status: ('A' for Active; 'I' for Inactive)
REMARK    1  A    between atoms: C_1  and  C_2
REMARK    2  A    between atoms: C_2  and  O_3
REMARK    3  A    between atoms: O_3  and  C_4
REMARK    4  A    between atoms: C_4  and  C_6
REMARK    5  A    between atoms: C_6  and  C_7
REMARK    6  A    between atoms: C_8  and  C_9
REMARK    7  A    between atoms: C_9  and  O_11
REMARK    8  A    between atoms: O_11  and  C_12
REMARK    9  A    between atoms: C_12  and  C_13
REMARK   10  A    between atoms: C_17  and  C_18
REMARK   11  A    between atoms: C_24  and  C_25
REMARK                            x       y       z     vdW  Elec       q    Type
REMARK                         _______ _______ _______ _____ _____    ______ ____
ROOT
ATOM      1  C   UNL     1       2.933   6.464  19.330  0.00  0.00    +0.000 A 
ATOM      2  C   UNL     1       3.470   6.685  18.110  0.00  0.00    +0.000 A 
ATOM      3  N   UNL     1       3.174   7.819  17.373  0.00  0.00    +0.000 NA
ATOM      4  N   UNL     1       2.371   8.691  17.794  0.00  0.00    +0.000 NA
ATOM      5  C   UNL     1       1.788   8.566  19.018  0.00  0.00    +0.000 A 
ATOM      6  C   UNL     1       0.930   9.370  19.748  0.00  0.00    +0.000 A 
ATOM      7  C   UNL     1       0.719   8.651  20.957  0.00  0.00    +0.000 A 
ATOM      8  C   UNL     1      -0.086   9.021  22.154  0.00  0.00    +0.000 C 
ATOM      9  N   UNL     1       1.394   7.494  20.980  0.00  0.00    +0.000 NA
ATOM     10  N   UNL     1       2.052   7.446  19.793  0.00  0.00    +0.000 N 
ENDROOT
BRANCH   6  11
ATOM     11  C   UNL     1       0.442  10.665  19.285  0.00  0.00    +0.000 A 
ATOM     12  C   UNL     1       1.230  11.817  19.411  0.00  0.00    +0.000 A 
ATOM     13  C   UNL     1       0.782  13.046  18.917  0.00  0.00    +0.000 A 
ATOM     14  C   UNL     1      -0.474  13.145  18.323  0.00  0.00    +0.000 A 
ATOM     15  C   UNL     1      -1.284  12.019  18.224  0.00  0.00    +0.000 A 
ATOM     16  C   UNL     1      -0.823  10.786  18.690  0.00  0.00    +0.000 A 
ENDBRANCH   6  11
BRANCH   2  17
ATOM     17  C   UNL     1       4.441   5.714  17.513  0.00  0.00    +0.000 C 
ATOM     18  O   UNL     1       4.142   4.737  16.844  0.00  0.00    +0.000 OA
BRANCH  17  19
ATOM     19  O   UNL     1       5.693   6.019  17.952  0.00  0.00    +0.000 OA
BRANCH  19  20
ATOM     20  C   UNL     1       6.570   6.571  16.966  0.00  0.00    +0.000 C 
ATOM     21  C   UNL     1       7.616   7.405  17.683  0.00  0.00    +0.000 C 
ENDBRANCH  19  20
ENDBRANCH  17  19
ENDBRANCH   2  17
BRANCH   1  22
ATOM     22  C   UNL     1       3.161   5.269  20.214  0.00  0.00    +0.000 C 
BRANCH  22  23
ATOM     23  C   UNL     1       2.239   4.154  19.767  0.00  0.00    +0.000 C 
ATOM     24  O   UNL     1       1.184   4.305  19.161  0.00  0.00    +0.000 OA
BRANCH  23  25
ATOM     25  O   UNL     1       2.720   2.962  20.221  0.00  0.00    +0.000 OA
BRANCH  25  27
ATOM     26  C   UNL     1       3.582   1.573  18.495  0.00  0.00    +0.000 C 
ATOM     27  C   UNL     1       3.943   2.542  19.606  0.00  0.00    +0.000 C 
ENDBRANCH  25  27
ENDBRANCH  23  25
ENDBRANCH  22  23
ENDBRANCH   1  22
TORSDOF 8
ENDMDL
MODEL 5
REMARK VINA RESULT:      -7.3      1.853      4.288
REMARK  Name = 
REMARK  11 active torsions:
REMARK  status: ('A' for Active; 'I' for Inactive)
REMARK    1  A    between atoms: C_1  and  C_2
REMARK    2  A    between atoms: C_2  and  O_3
REMARK    3  A    between atoms: O_3  and  C_4
REMARK    4  A    between atoms: C_4  and  C_6
REMARK    5  A    between atoms: C_6  and  C_7
REMARK    6  A    between atoms: C_8  and  C_9
REMARK    7  A    between atoms: C_9  and  O_11
REMARK    8  A    between atoms: O_11  and  C_12
REMARK    9  A    between atoms: C_12  and  C_13
REMARK   10  A    between atoms: C_17  and  C_18
REMARK   11  A    between atoms: C_24  and  C_25
REMARK                            x       y       z     vdW  Elec       q    Type
REMARK                         _______ _______ _______ _____ _____    ______ ____
ROOT
ATOM      1  C   UNL     1       2.984   6.544  19.109  0.00  0.00    +0.000 A 
ATOM      2  C   UNL     1       3.511   6.769  17.885  0.00  0.00    +0.000 A 
ATOM      3  N   UNL     1       3.209   7.906  17.154  0.00  0.00    +0.000 NA
ATOM      4  N   UNL     1       2.409   8.776  17.586  0.00  0.00    +0.000 NA
ATOM      5  C   UNL     1       1.836   8.647  18.814  0.00  0.00    +0.000 A 
ATOM      6  C   UNL     1       0.984   9.448  19.553  0.00  0.00    +0.000 A 
ATOM      7  C   UNL     1       0.783   8.725  20.762  0.00  0.00    +0.000 A 
ATOM      8  C   UNL     1      -0.012   9.090  21.966  0.00  0.00    +0.000 C 
ATOM      9  N   UNL     1       1.458   7.568  20.775  0.00  0.00    +0.000 NA
ATOM     10  N   UNL     1       2.107   7.524  19.583  0.00  0.00    +0.000 N 
ENDROOT
BRANCH   6  11
ATOM     11  C   UNL     1       0.493  10.745  19.099  0.00  0.00    +0.000 A 
ATOM     12  C   UNL     1      -0.815  10.890  18.619  0.00  0.00    +0.000 A 
ATOM     13  C   UNL     1      -1.301  12.145  18.237  0.00  0.00    +0.000 A 
ATOM     14  C   UNL     1      -0.473  13.263  18.297  0.00  0.00    +0.000 A 
ATOM     15  C   UNL     1       0.840  13.130  18.737  0.00  0.00    +0.000 A 
ATOM     16  C   UNL     1       1.314  11.882  19.147  0.00  0.00    +0.000 A 
ENDBRANCH   6  11
BRANCH   2  17
ATOM     17  C   UNL     1       4.476   5.800  17.277  0.00  0.00    +0.000 C 
ATOM     18  O   UNL     1       4.172   4.773  16.691  0.00  0.00    +0.000 OA
BRANCH  17  19
ATOM     19  O   UNL     1       5.742   6.180  17.602  0.00  0.00    +0.000 OA
BRANCH  19  20
ATOM     20  C   UNL     1       6.541   5.172  18.229  0.00  0.00    +0.000 C 
ATOM     21  C   UNL     1       7.669   5.864  18.973  0.00  0.00    +0.000 C 
ENDBRANCH  19  20
ENDBRANCH  17  19
ENDBRANCH   2  17
BRANCH   1  22
ATOM     22  C   UNL     1       3.219   5.346  19.987  0.00  0.00    +0.000 C 
BRANCH  22  23
ATOM     23  C   UNL     1       2.010   4.437  19.899  0.00  0.00    +0.000 C 
ATOM     24  O   UNL     1       1.168   4.288  20.778  0.00  0.00    +0.000 OA
BRANCH  23  25
ATOM     25  O   UNL     1       2.051   3.744  18.726  0.00  0.00    +0.000 OA
BRANCH  25  27
ATOM     26  C   UNL     1       3.298   1.752  18.368  0.00  0.00    +0.000 C 
ATOM     27  C   UNL     1       1.984   2.321  18.873  0.00  0.00    +0.000 C 
ENDBRANCH  25  27
ENDBRANCH  23  25
ENDBRANCH  22  23
ENDBRANCH   1  22
TORSDOF 8
ENDMDL
MODEL 6
REMARK VINA RESULT:      -7.3      0.711      1.167
REMARK  Name = 
REMARK  11 active torsions:
REMARK  status: ('A' for Active; 'I' for Inactive)
REMARK    1  A    between atoms: C_1  and  C_2
REMARK    2  A    between atoms: C_2  and  O_3
REMARK    3  A    between atoms: O_3  and  C_4
REMARK    4  A    between atoms: C_4  and  C_6
REMARK    5  A    between atoms: C_6  and  C_7
REMARK    6  A    between atoms: C_8  and  C_9
REMARK    7  A    between atoms: C_9  and  O_11
REMARK    8  A    between atoms: O_11  and  C_12
REMARK    9  A    between atoms: C_12  and  C_13
REMARK   10  A    between atoms: C_17  and  C_18
REMARK   11  A    between atoms: C_24  and  C_25
REMARK                            x       y       z     vdW  Elec       q    Type
REMARK                         _______ _______ _______ _____ _____    ______ ____
ROOT
ATOM      1  C   UNL     1       3.365   5.256  18.826  0.00  0.00    +0.000 A 
ATOM      2  C   UNL     1       3.160   4.461  19.899  0.00  0.00    +0.000 A 
ATOM      3  N   UNL     1       2.460   4.896  21.012  0.00  0.00    +0.000 NA
ATOM      4  N   UNL     1       1.998   6.064  21.087  0.00  0.00    +0.000 NA
ATOM      5  C   UNL     1       2.140   6.937  20.053  0.00  0.00    +0.000 A 
ATOM      6  C   UNL     1       1.704   8.231  19.835  0.00  0.00    +0.000 A 
ATOM      7  C   UNL     1       2.189   8.553  18.537  0.00  0.00    +0.000 A 
ATOM      8  C   UNL     1       2.013   9.797  17.738  0.00  0.00    +0.000 C 
ATOM      9  N   UNL     1       2.871   7.538  17.989  0.00  0.00    +0.000 NA
ATOM     10  N   UNL     1       2.836   6.547  18.917  0.00  0.00    +0.000 N 
ENDROOT
BRANCH   6  11
ATOM     11  C   UNL     1       0.900   8.988  20.791  0.00  0.00    +0.000 A 
ATOM     12  C   UNL     1      -0.078   9.889  20.353  0.00  0.00    +0.000 A 
ATOM     13  C   UNL     1      -0.884  10.571  21.270  0.00  0.00    +0.000 A 
ATOM     14  C   UNL     1      -0.696  10.386  22.638  0.00  0.00    +0.000 A 
ATOM     15  C   UNL     1       0.296   9.522  23.090  0.00  0.00    +0.000 A 
ATOM     16  C   UNL     1       1.079   8.819  22.173  0.00  0.00    +0.000 A 
ENDBRANCH   6  11
BRANCH   2  17
ATOM     17  C   UNL     1       3.663   3.052  19.915  0.00  0.00    +0.000 C 
ATOM     18  O   UNL     1       4.833   2.718  19.817  0.00  0.00    +0.000 OA
BRANCH  17  19
ATOM     19  O   UNL     1       2.597   2.205  19.915  0.00  0.00    +0.000 OA
BRANCH  19  20
ATOM     20  C   UNL     1       1.994   1.979  18.638  0.00  0.00    +0.000 C 
ATOM     21  C   UNL     1       0.566   2.494  18.697  0.00  0.00    +0.000 C 
ENDBRANCH  19  20
ENDBRANCH  17  19
ENDBRANCH   2  17
BRANCH   1  22
ATOM     22  C   UNL     1       4.120   4.907  17.574  0.00  0.00    +0.000 C 
BRANCH  22  23
ATOM     23  C   UNL     1       5.536   5.431  17.701  0.00  0.00    +0.000 C 
ATOM     24  O   UNL     1       6.105   5.688  18.756  0.00  0.00    +0.000 OA
BRANCH  23  25
ATOM     25  O   UNL     1       6.048   5.655  16.458  0.00  0.00    +0.000 OA
BRANCH  25  27
ATOM     26  C   UNL     1       6.359   4.174  14.624  0.00  0.00    +0.000 C 
ATOM     27  C   UNL     1       6.903   4.614  15.971  0.00  0.00    +0.000 C 
ENDBRANCH  25  27
ENDBRANCH  23  25
ENDBRANCH  22  23
ENDBRANCH   1  22
TORSDOF 8
ENDMDL
MODEL 7
REMARK VINA RESULT:      -7.3      0.882      1.288
REMARK  Name = 
REMARK  11 active torsions:
REMARK  status: ('A' for Active; 'I' for Inactive)
REMARK    1  A    between atoms: C_1  and  C_2
REMARK    2  A    between atoms: C_2  and  O_3
REMARK    3  A    between atoms: O_3  and  C_4
REMARK    4  A    between atoms: C_4  and  C_6
REMARK    5  A    between atoms: C_6  and  C_7
REMARK    6  A    between atoms: C_8  and  C_9
REMARK    7  A    between atoms: C_9  and  O_11
REMARK    8  A    between atoms: O_11  and  C_12
REMARK    9  A    between atoms: C_12  and  C_13
REMARK   10  A    between atoms: C_17  and  C_18
REMARK   11  A    between atoms: C_24  and  C_25
REMARK                            x       y       z     vdW  Elec       q    Type
REMARK                         _______ _______ _______ _____ _____    ______ ____
ROOT
ATOM      1  C   UNL     1       3.442   5.234  18.687  0.00  0.00    +0.000 A 
ATOM      2  C   UNL     1       3.207   4.396  19.720  0.00  0.00    +0.000 A 
ATOM      3  N   UNL     1       2.477   4.787  20.831  0.00  0.00    +0.000 NA
ATOM      4  N   UNL     1       2.015   5.951  20.941  0.00  0.00    +0.000 NA
ATOM      5  C   UNL     1       2.186   6.866  19.947  0.00  0.00    +0.000 A 
ATOM      6  C   UNL     1       1.757   8.169  19.771  0.00  0.00    +0.000 A 
ATOM      7  C   UNL     1       2.278   8.542  18.501  0.00  0.00    +0.000 A 
ATOM      8  C   UNL     1       2.125   9.818  17.749  0.00  0.00    +0.000 C 
ATOM      9  N   UNL     1       2.974   7.549  17.931  0.00  0.00    +0.000 NA
ATOM     10  N   UNL     1       2.912   6.521  18.816  0.00  0.00    +0.000 N 
ENDROOT
BRANCH   6  11
ATOM     11  C   UNL     1       0.928   8.887  20.734  0.00  0.00    +0.000 A 
ATOM     12  C   UNL     1       1.138   8.742  22.112  0.00  0.00    +0.000 A 
ATOM     13  C   UNL     1       0.379   9.474  23.031  0.00  0.00    +0.000 A 
ATOM     14  C   UNL     1      -0.623  10.332  22.583  0.00  0.00    +0.000 A 
ATOM     15  C   UNL     1      -0.869  10.460  21.221  0.00  0.00    +0.000 A 
ATOM     16  C   UNL     1      -0.090   9.752  20.303  0.00  0.00    +0.000 A 
ENDBRANCH   6  11
BRANCH   2  17
ATOM     17  C   UNL     1       3.709   2.986  19.693  0.00  0.00    +0.000 C 
ATOM     18  O   UNL     1       4.734   2.590  20.223  0.00  0.00    +0.000 OA
BRANCH  17  19
ATOM     19  O   UNL     1       2.911   2.253  18.868  0.00  0.00    +0.000 OA
BRANCH  19  20
ATOM     20  C   UNL     1       1.684   1.801  19.446  0.00  0.00    +0.000 C 
ATOM     21  C   UNL     1       0.542   2.485  18.715  0.00  0.00    +0.000 C 
ENDBRANCH  19  20
ENDBRANCH  17  19
ENDBRANCH   2  17
BRANCH   1  22
ATOM     22  C   UNL     1       4.232   4.934  17.443  0.00  0.00    +0.000 C 
BRANCH  22  23
ATOM     23  C   UNL     1       5.692   5.235  17.713  0.00  0.00    +0.000 C 
ATOM     24  O   UNL     1       6.452   4.532  18.370  0.00  0.00    +0.000 OA
BRANCH  23  25
ATOM     25  O   UNL     1       6.007   6.452  17.186  0.00  0.00    +0.000 OA
BRANCH  25  27
ATOM     26  C   UNL     1       7.757   7.979  17.693  0.00  0.00    +0.000 C 
ATOM     27  C   UNL     1       7.410   6.674  16.999  0.00  0.00    +0.000 C 
ENDBRANCH  25  27
ENDBRANCH  23  25
ENDBRANCH  22  23
ENDBRANCH   1  22
TORSDOF 8
ENDMDL
MODEL 8
REMARK VINA RESULT:      -7.2      1.830      4.454
REMARK  Name = 
REMARK  11 active torsions:
REMARK  status: ('A' for Active; 'I' for Inactive)
REMARK    1  A    between atoms: C_1  and  C_2
REMARK    2  A    between atoms: C_2  and  O_3
REMARK    3  A    between atoms: O_3  and  C_4
REMARK    4  A    between atoms: C_4  and  C_6
REMARK    5  A    between atoms: C_6  and  C_7
REMARK    6  A    between atoms: C_8  and  C_9
REMARK    7  A    between atoms: C_9  and  O_11
REMARK    8  A    between atoms: O_11  and  C_12
REMARK    9  A    between atoms: C_12  and  C_13
REMARK   10  A    between atoms: C_17  and  C_18
REMARK   11  A    between atoms: C_24  and  C_25
REMARK                            x       y       z     vdW  Elec       q    Type
REMARK                         _______ _______ _______ _____ _____    ______ ____
ROOT
ATOM      1  C   UNL     1       3.154   6.570  18.932  0.00  0.00    +0.000 A 
ATOM      2  C   UNL     1       3.660   6.870  17.716  0.00  0.00    +0.000 A 
ATOM      3  N   UNL     1       3.298   8.021  17.035  0.00  0.00    +0.000 NA
ATOM      4  N   UNL     1       2.461   8.832  17.506  0.00  0.00    +0.000 NA
ATOM      5  C   UNL     1       1.904   8.625  18.731  0.00  0.00    +0.000 A 
ATOM      6  C   UNL     1       1.020   9.353  19.507  0.00  0.00    +0.000 A 
ATOM      7  C   UNL     1       0.863   8.572  20.686  0.00  0.00    +0.000 A 
ATOM      8  C   UNL     1       0.059   8.848  21.909  0.00  0.00    +0.000 C 
ATOM      9  N   UNL     1       1.593   7.449  20.647  0.00  0.00    +0.000 NA
ATOM     10  N   UNL     1       2.234   7.486  19.451  0.00  0.00    +0.000 N 
ENDROOT
BRANCH   6  11
ATOM     11  C   UNL     1       0.463  10.642  19.110  0.00  0.00    +0.000 A 
ATOM     12  C   UNL     1       1.227  11.813  19.198  0.00  0.00    +0.000 A 
ATOM     13  C   UNL     1       0.710  13.038  18.765  0.00  0.00    +0.000 A 
ATOM     14  C   UNL     1      -0.591  13.112  18.273  0.00  0.00    +0.000 A 
ATOM     15  C   UNL     1      -1.376  11.966  18.213  0.00  0.00    +0.000 A 
ATOM     16  C   UNL     1      -0.847  10.738  18.617  0.00  0.00    +0.000 A 
ENDBRANCH   6  11
BRANCH   2  17
ATOM     17  C   UNL     1       4.667   5.976  17.063  0.00  0.00    +0.000 C 
ATOM     18  O   UNL     1       4.442   4.856  16.632  0.00  0.00    +0.000 OA
BRANCH  17  19
ATOM     19  O   UNL     1       5.895   6.556  17.154  0.00  0.00    +0.000 OA
BRANCH  19  20
ATOM     20  C   UNL     1       6.980   5.658  17.400  0.00  0.00    +0.000 C 
ATOM     21  C   UNL     1       7.450   5.871  18.828  0.00  0.00    +0.000 C 
ENDBRANCH  19  20
ENDBRANCH  17  19
ENDBRANCH   2  17
BRANCH   1  22
ATOM     22  C   UNL     1       3.452   5.350  19.759  0.00  0.00    +0.000 C 
BRANCH  22  23
ATOM     23  C   UNL     1       2.543   4.225  19.308  0.00  0.00    +0.000 C 
ATOM     24  O   UNL     1       1.544   4.357  18.609  0.00  0.00    +0.000 OA
BRANCH  23  25
ATOM     25  O   UNL     1       2.957   3.056  19.872  0.00  0.00    +0.000 OA
BRANCH  25  27
ATOM     26  C   UNL     1       1.352   2.671  21.583  0.00  0.00    +0.000 C 
ATOM     27  C   UNL     1       2.806   2.996  21.296  0.00  0.00    +0.000 C 
ENDBRANCH  25  27
ENDBRANCH  23  25
ENDBRANCH  22  23
ENDBRANCH   1  22
TORSDOF 8
ENDMDL
MODEL 9
REMARK VINA RESULT:      -7.2      3.383      8.002
REMARK  Name = 
REMARK  11 active torsions:
REMARK  status: ('A' for Active; 'I' for Inactive)
REMARK    1  A    between atoms: C_1  and  C_2
REMARK    2  A    between atoms: C_2  and  O_3
REMARK    3  A    between atoms: O_3  and  C_4
REMARK    4  A    between atoms: C_4  and  C_6
REMARK    5  A    between atoms: C_6  and  C_7
REMARK    6  A    between atoms: C_8  and  C_9
REMARK    7  A    between atoms: C_9  and  O_11
REMARK    8  A    between atoms: O_11  and  C_12
REMARK    9  A    between atoms: C_12  and  C_13
REMARK   10  A    between atoms: C_17  and  C_18
REMARK   11  A    between atoms: C_24  and  C_25
REMARK                            x       y       z     vdW  Elec       q    Type
REMARK                         _______ _______ _______ _____ _____    ______ ____
ROOT
ATOM      1  C   UNL     1       0.872   8.913  20.127  0.00  0.00    +0.000 A 
ATOM      2  C   UNL     1       1.138   9.814  19.156  0.00  0.00    +0.000 A 
ATOM      3  N   UNL     1       2.022   9.542  18.125  0.00  0.00    +0.000 NA
ATOM      4  N   UNL     1       2.639   8.448  18.055  0.00  0.00    +0.000 NA
ATOM      5  C   UNL     1       2.430   7.470  18.978  0.00  0.00    +0.000 A 
ATOM      6  C   UNL     1       2.912   6.181  19.123  0.00  0.00    +0.000 A 
ATOM      7  C   UNL     1       2.278   5.699  20.302  0.00  0.00    +0.000 A 
ATOM      8  C   UNL     1       2.372   4.364  20.952  0.00  0.00    +0.000 C 
ATOM      9  N   UNL     1       1.464   6.614  20.846  0.00  0.00    +0.000 NA
ATOM     10  N   UNL     1       1.555   7.697  20.031  0.00  0.00    +0.000 N 
ENDROOT
BRANCH   6  11
ATOM     11  C   UNL     1       3.840   5.553  18.188  0.00  0.00    +0.000 A 
ATOM     12  C   UNL     1       5.147   6.033  18.040  0.00  0.00    +0.000 A 
ATOM     13  C   UNL     1       6.051   5.394  17.185  0.00  0.00    +0.000 A 
ATOM     14  C   UNL     1       5.646   4.290  16.439  0.00  0.00    +0.000 A 
ATOM     15  C   UNL     1       4.340   3.823  16.546  0.00  0.00    +0.000 A 
ATOM     16  C   UNL     1       3.448   4.442  17.424  0.00  0.00    +0.000 A 
ENDBRANCH   6  11
BRANCH   2  17
ATOM     17  C   UNL     1       0.457  11.146  19.140  0.00  0.00    +0.000 C 
ATOM     18  O   UNL     1      -0.566  11.410  18.527  0.00  0.00    +0.000 OA
BRANCH  17  19
ATOM     19  O   UNL     1       1.235  12.045  19.803  0.00  0.00    +0.000 OA
BRANCH  19  20
ATOM     20  C   UNL     1       1.385  13.315  19.162  0.00  0.00    +0.000 C 
ATOM     21  C   UNL     1       2.521  13.204  18.161  0.00  0.00    +0.000 C 
ENDBRANCH  19  20
ENDBRANCH  17  19
ENDBRANCH   2  17
BRANCH   1  22
ATOM     22  C   UNL     1      -0.048   9.096  21.302  0.00  0.00    +0.000 C 
BRANCH  22  23
ATOM     23  C   UNL     1       0.741   9.700  22.445  0.00  0.00    +0.000 C 
ATOM     24  O   UNL     1       1.903   9.427  22.728  0.00  0.00    +0.000 OA
BRANCH  23  25
ATOM     25  O   UNL     1      -0.068  10.529  23.164  0.00  0.00    +0.000 OA
BRANCH  25  27
ATOM     26  C   UNL     1      -1.361  12.521  23.069  0.00  0.00    +0.000 C 
ATOM     27  C   UNL     1      -1.075  11.193  22.392  0.00  0.00    +0.000 C 
ENDBRANCH  25  27
ENDBRANCH  23  25
ENDBRANCH  22  23
ENDBRANCH   1  22
TORSDOF 8
ENDMDL
