MODEL 1
REMARK VINA RESULT:      -8.4      0.000      0.000
REMARK  Name = 
REMARK  7 active torsions:
REMARK  status: ('A' for Active; 'I' for Inactive)
REMARK    1  A    between atoms: C_1  and  N_2
REMARK    2  A    between atoms: N_2  and  C_3
REMARK    3  A    between atoms: N_2  and  C_17
REMARK    4  A    between atoms: C_3  and  C_4
REMARK    5  A    between atoms: C_5  and  C_6
REMARK    6  A    between atoms: C_9  and  C_10
REMARK    7  A    between atoms: C_17  and  C_18
REMARK                            x       y       z     vdW  Elec       q    Type
REMARK                         _______ _______ _______ _____ _____    ______ ____
ROOT
ATOM      1  C   UNL     1       5.388   6.331  16.536  0.00  0.00    +0.000 C 
ENDROOT
BRANCH   1   3
ATOM      2  C   UNL     1       7.077   4.741  15.960  0.00  0.00    +0.000 C 
ATOM      3  N   UNL     1       5.843   4.943  16.731  0.00  0.00    +0.000 NA
BRANCH   3   4
ATOM      4  C   UNL     1       4.794   3.993  16.307  0.00  0.00    +0.000 C 
BRANCH   4   5
ATOM      5  C   UNL     1       3.745   3.720  17.362  0.00  0.00    +0.000 A 
ATOM      6  C   UNL     1       2.375   3.759  17.053  0.00  0.00    +0.000 A 
ATOM      7  C   UNL     1       1.419   3.488  18.033  0.00  0.00    +0.000 A 
ATOM      8  C   UNL     1       1.825   3.174  19.329  0.00  0.00    +0.000 A 
ATOM      9  C   UNL     1       3.187   3.106  19.639  0.00  0.00    +0.000 A 
ATOM     10  C   UNL     1       4.141   3.391  18.666  0.00  0.00    +0.000 A 
ATOM     11  O   UNL     1       3.663   2.775  20.881  0.00  0.00    +0.000 OA
ATOM     12  C   UNL     1       2.645   2.160  21.675  0.00  0.00    +0.000 C 
ATOM     13  C   UNL     1       1.346   2.946  21.584  0.00  0.00    +0.000 C 
ATOM     14  O   UNL     1       0.834   2.930  20.246  0.00  0.00    +0.000 OA
ENDBRANCH   4   5
ENDBRANCH   3   4
ENDBRANCH   1   3
BRANCH   1  15
ATOM     15  C   UNL     1       4.510   6.808  17.653  0.00  0.00    +0.000 C 
ATOM     16  C   UNL     1       3.268   7.296  17.483  0.00  0.00    +0.000 C 
BRANCH  16  17
ATOM     17  C   UNL     1       2.419   7.767  18.586  0.00  0.00    +0.000 A 
ATOM     18  C   UNL     1       2.276   7.023  19.764  0.00  0.00    +0.000 A 
ATOM     19  C   UNL     1       1.496   7.498  20.821  0.00  0.00    +0.000 A 
ATOM     20  C   UNL     1       0.848   8.738  20.731  0.00  0.00    +0.000 A 
ATOM     21  C   UNL     1       0.999   9.493  19.559  0.00  0.00    +0.000 A 
ATOM     22  C   UNL     1       1.781   9.010  18.508  0.00  0.00    +0.000 A 
ATOM     23  F   UNL     1       1.908   9.769  17.410  0.00  0.00    +0.000 F 
BRANCH  20  24
ATOM     24  C   UNL     1       0.017   9.262  21.875  0.00  0.00    +0.000 C 
ATOM     25  F   UNL     1      -0.915   8.373  22.318  0.00  0.00    +0.000 F 
ATOM     26  F   UNL     1       0.773   9.580  22.961  0.00  0.00    +0.000 F 
ATOM     27  F   UNL     1      -0.669  10.390  21.549  0.00  0.00    +0.000 F 
ENDBRANCH  20  24
ENDBRANCH  16  17
ENDBRANCH   1  15
TORSDOF 6
ENDMDL
MODEL 2
REMARK VINA RESULT:      -8.0      1.009      1.595
REMARK  Name = 
REMARK  7 active torsions:
REMARK  status: ('A' for Active; 'I' for Inactive)
REMARK    1  A    between atoms: C_1  and  N_2
REMARK    2  A    between atoms: N_2  and  C_3
REMARK    3  A    between atoms: N_2  and  C_17
REMARK    4  A    between atoms: C_3  and  C_4
REMARK    5  A    between atoms: C_5  and  C_6
REMARK    6  A    between atoms: C_9  and  C_10
REMARK    7  A    between atoms: C_17  and  C_18
REMARK                            x       y       z     vdW  Elec       q    Type
REMARK                         _______ _______ _______ _____ _____    ______ ____
ROOT
ATOM      1  C   UNL     1       5.369   6.198  16.239  0.00  0.00    +0.000 C 
ENDROOT
BRANCH   1   3
ATOM      2  C   UNL     1       7.209   4.679  16.107  0.00  0.00    +0.000 C 
ATOM      3  N   UNL     1       5.895   4.909  16.722  0.00  0.00    +0.000 NA
BRANCH   3   4
ATOM      4  C   UNL     1       4.959   3.815  16.394  0.00  0.00    +0.000 C 
BRANCH   4   5
ATOM      5  C   UNL     1       3.866   3.607  17.419  0.00  0.00    +0.000 A 
ATOM      6  C   UNL     1       2.513   3.788  17.088  0.00  0.00    +0.000 A 
ATOM      7  C   UNL     1       1.515   3.577  18.040  0.00  0.00    +0.000 A 
ATOM      8  C   UNL     1       1.861   3.182  19.330  0.00  0.00    +0.000 A 
ATOM      9  C   UNL     1       3.204   2.974  19.663  0.00  0.00    +0.000 A 
ATOM     10  C   UNL     1       4.201   3.199  18.718  0.00  0.00    +0.000 A 
ATOM     11  O   UNL     1       3.619   2.556  20.901  0.00  0.00    +0.000 OA
ATOM     12  C   UNL     1       2.530   2.016  21.654  0.00  0.00    +0.000 C 
ATOM     13  C   UNL     1       1.315   2.925  21.567  0.00  0.00    +0.000 C 
ATOM     14  O   UNL     1       0.832   3.004  20.220  0.00  0.00    +0.000 OA
ENDBRANCH   4   5
ENDBRANCH   3   4
ENDBRANCH   1   3
BRANCH   1  15
ATOM     15  C   UNL     1       4.575   6.920  17.285  0.00  0.00    +0.000 C 
ATOM     16  C   UNL     1       3.298   7.314  17.128  0.00  0.00    +0.000 C 
BRANCH  16  17
ATOM     17  C   UNL     1       2.531   8.028  18.158  0.00  0.00    +0.000 A 
ATOM     18  C   UNL     1       1.927   9.263  17.892  0.00  0.00    +0.000 A 
ATOM     19  C   UNL     1       1.170   9.915  18.867  0.00  0.00    +0.000 A 
ATOM     20  C   UNL     1       0.985   9.340  20.133  0.00  0.00    +0.000 A 
ATOM     21  C   UNL     1       1.575   8.097  20.400  0.00  0.00    +0.000 A 
ATOM     22  C   UNL     1       2.331   7.453  19.418  0.00  0.00    +0.000 A 
ATOM     23  F   UNL     1       2.868   6.259  19.711  0.00  0.00    +0.000 F 
BRANCH  20  24
ATOM     24  C   UNL     1       0.155  10.034  21.184  0.00  0.00    +0.000 C 
ATOM     25  F   UNL     1       0.691  11.213  21.606  0.00  0.00    +0.000 F 
ATOM     26  F   UNL     1      -1.097  10.331  20.741  0.00  0.00    +0.000 F 
ATOM     27  F   UNL     1      -0.009   9.277  22.302  0.00  0.00    +0.000 F 
ENDBRANCH  20  24
ENDBRANCH  16  17
ENDBRANCH   1  15
TORSDOF 6
ENDMDL
MODEL 3
REMARK VINA RESULT:      -7.6      5.574      6.641
REMARK  Name = 
REMARK  7 active torsions:
REMARK  status: ('A' for Active; 'I' for Inactive)
REMARK    1  A    between atoms: C_1  and  N_2
REMARK    2  A    between atoms: N_2  and  C_3
REMARK    3  A    between atoms: N_2  and  C_17
REMARK    4  A    between atoms: C_3  and  C_4
REMARK    5  A    between atoms: C_5  and  C_6
REMARK    6  A    between atoms: C_9  and  C_10
REMARK    7  A    between atoms: C_17  and  C_18
REMARK                            x       y       z     vdW  Elec       q    Type
REMARK                         _______ _______ _______ _____ _____    ______ ____
ROOT
ATOM      1  C   UNL     1       7.459   6.923  17.379  0.00  0.00    +0.000 C 
ENDROOT
BRANCH   1   3
ATOM      2  C   UNL     1       7.371   4.542  17.189  0.00  0.00    +0.000 C 
ATOM      3  N   UNL     1       7.613   5.656  18.116  0.00  0.00    +0.000 NA
BRANCH   3   4
ATOM      4  C   UNL     1       6.676   5.606  19.257  0.00  0.00    +0.000 C 
BRANCH   4   5
ATOM      5  C   UNL     1       5.278   5.158  18.890  0.00  0.00    +0.000 A 
ATOM      6  C   UNL     1       4.437   5.968  18.109  0.00  0.00    +0.000 A 
ATOM      7  C   UNL     1       3.156   5.534  17.764  0.00  0.00    +0.000 A 
ATOM      8  C   UNL     1       2.707   4.288  18.195  0.00  0.00    +0.000 A 
ATOM      9  C   UNL     1       3.547   3.464  18.950  0.00  0.00    +0.000 A 
ATOM     10  C   UNL     1       4.819   3.901  19.308  0.00  0.00    +0.000 A 
ATOM     11  O   UNL     1       3.187   2.214  19.384  0.00  0.00    +0.000 OA
ATOM     12  C   UNL     1       2.045   1.730  18.672  0.00  0.00    +0.000 C 
ATOM     13  C   UNL     1       0.972   2.803  18.589  0.00  0.00    +0.000 C 
ATOM     14  O   UNL     1       1.434   3.929  17.831  0.00  0.00    +0.000 OA
ENDBRANCH   4   5
ENDBRANCH   3   4
ENDBRANCH   1   3
BRANCH   1  15
ATOM     15  C   UNL     1       8.068   8.084  18.104  0.00  0.00    +0.000 C 
ATOM     16  C   UNL     1       8.085   9.344  17.635  0.00  0.00    +0.000 C 
BRANCH  16  17
ATOM     17  C   UNL     1       8.691  10.475  18.352  0.00  0.00    +0.000 A 
ATOM     18  C   UNL     1       9.529  10.271  19.455  0.00  0.00    +0.000 A 
ATOM     19  C   UNL     1      10.130  11.351  20.107  0.00  0.00    +0.000 A 
ATOM     20  C   UNL     1       9.918  12.663  19.662  0.00  0.00    +0.000 A 
ATOM     21  C   UNL     1       9.091  12.871  18.550  0.00  0.00    +0.000 A 
ATOM     22  C   UNL     1       8.495  11.786  17.905  0.00  0.00    +0.000 A 
ATOM     23  F   UNL     1       7.721  12.028  16.837  0.00  0.00    +0.000 F 
BRANCH  20  24
ATOM     24  C   UNL     1      10.576  13.831  20.354  0.00  0.00    +0.000 C 
ATOM     25  F   UNL     1      11.923  13.888  20.155  0.00  0.00    +0.000 F 
ATOM     26  F   UNL     1      10.087  15.027  19.928  0.00  0.00    +0.000 F 
ATOM     27  F   UNL     1      10.399  13.807  21.702  0.00  0.00    +0.000 F 
ENDBRANCH  20  24
ENDBRANCH  16  17
ENDBRANCH   1  15
TORSDOF 6
ENDMDL
MODEL 4
REMARK VINA RESULT:      -7.5      1.361      1.863
REMARK  Name = 
REMARK  7 active torsions:
REMARK  status: ('A' for Active; 'I' for Inactive)
REMARK    1  A    between atoms: C_1  and  N_2
REMARK    2  A    between atoms: N_2  and  C_3
REMARK    3  A    between atoms: N_2  and  C_17
REMARK    4  A    between atoms: C_3  and  C_4
REMARK    5  A    between atoms: C_5  and  C_6
REMARK    6  A    between atoms: C_9  and  C_10
REMARK    7  A    between atoms: C_17  and  C_18
REMARK                            x       y       z     vdW  Elec       q    Type
REMARK                         _______ _______ _______ _____ _____    ______ ____
ROOT
ATOM      1  C   UNL     1       5.146   6.586  16.383  0.00  0.00    +0.000 C 
ENDROOT
BRANCH   1   3
ATOM      2  C   UNL     1       7.452   6.347  16.967  0.00  0.00    +0.000 C 
ATOM      3  N   UNL     1       6.084   5.941  17.319  0.00  0.00    +0.000 NA
BRANCH   3   4
ATOM      4  C   UNL     1       5.939   4.472  17.263  0.00  0.00    +0.000 C 
BRANCH   4   5
ATOM      5  C   UNL     1       4.630   3.959  17.823  0.00  0.00    +0.000 A 
ATOM      6  C   UNL     1       3.655   3.388  16.989  0.00  0.00    +0.000 A 
ATOM      7  C   UNL     1       2.460   2.904  17.522  0.00  0.00    +0.000 A 
ATOM      8  C   UNL     1       2.231   2.985  18.894  0.00  0.00    +0.000 A 
ATOM      9  C   UNL     1       3.206   3.527  19.736  0.00  0.00    +0.000 A 
ATOM     10  C   UNL     1       4.393   4.024  19.203  0.00  0.00    +0.000 A 
ATOM     11  O   UNL     1       3.066   3.613  21.097  0.00  0.00    +0.000 OA
ATOM     12  C   UNL     1       2.011   2.766  21.560  0.00  0.00    +0.000 C 
ATOM     13  C   UNL     1       0.773   2.929  20.694  0.00  0.00    +0.000 C 
ATOM     14  O   UNL     1       1.031   2.501  19.350  0.00  0.00    +0.000 OA
ENDBRANCH   4   5
ENDBRANCH   3   4
ENDBRANCH   1   3
BRANCH   1  15
ATOM     15  C   UNL     1       4.231   7.555  17.068  0.00  0.00    +0.000 C 
ATOM     16  C   UNL     1       3.231   7.197  17.893  0.00  0.00    +0.000 C 
BRANCH  16  17
ATOM     17  C   UNL     1       2.335   8.157  18.554  0.00  0.00    +0.000 A 
ATOM     18  C   UNL     1       1.918   9.327  17.908  0.00  0.00    +0.000 A 
ATOM     19  C   UNL     1       1.037  10.214  18.531  0.00  0.00    +0.000 A 
ATOM     20  C   UNL     1       0.538   9.945  19.813  0.00  0.00    +0.000 A 
ATOM     21  C   UNL     1       0.941   8.768  20.458  0.00  0.00    +0.000 A 
ATOM     22  C   UNL     1       1.822   7.887  19.828  0.00  0.00    +0.000 A 
ATOM     23  F   UNL     1       2.172   6.766  20.475  0.00  0.00    +0.000 F 
BRANCH  20  24
ATOM     24  C   UNL     1      -0.425  10.892  20.483  0.00  0.00    +0.000 C 
ATOM     25  F   UNL     1      -1.602  11.032  19.811  0.00  0.00    +0.000 F 
ATOM     26  F   UNL     1      -0.760  10.487  21.739  0.00  0.00    +0.000 F 
ATOM     27  F   UNL     1       0.082  12.148  20.613  0.00  0.00    +0.000 F 
ENDBRANCH  20  24
ENDBRANCH  16  17
ENDBRANCH   1  15
TORSDOF 6
ENDMDL
MODEL 5
REMARK VINA RESULT:      -7.4      5.732      6.771
REMARK  Name = 
REMARK  7 active torsions:
REMARK  status: ('A' for Active; 'I' for Inactive)
REMARK    1  A    between atoms: C_1  and  N_2
REMARK    2  A    between atoms: N_2  and  C_3
REMARK    3  A    between atoms: N_2  and  C_17
REMARK    4  A    between atoms: C_3  and  C_4
REMARK    5  A    between atoms: C_5  and  C_6
REMARK    6  A    between atoms: C_9  and  C_10
REMARK    7  A    between atoms: C_17  and  C_18
REMARK                            x       y       z     vdW  Elec       q    Type
REMARK                         _______ _______ _______ _____ _____    ______ ____
ROOT
ATOM      1  C   UNL     1       7.539   7.144  17.377  0.00  0.00    +0.000 C 
ENDROOT
BRANCH   1   3
ATOM      2  C   UNL     1       6.941   5.300  18.776  0.00  0.00    +0.000 C 
ATOM      3  N   UNL     1       6.479   6.586  18.234  0.00  0.00    +0.000 NA
BRANCH   3   4
ATOM      4  C   UNL     1       5.230   6.415  17.464  0.00  0.00    +0.000 C 
BRANCH   4   5
ATOM      5  C   UNL     1       4.315   5.337  18.001  0.00  0.00    +0.000 A 
ATOM      6  C   UNL     1       3.990   4.208  17.230  0.00  0.00    +0.000 A 
ATOM      7  C   UNL     1       3.158   3.213  17.745  0.00  0.00    +0.000 A 
ATOM      8  C   UNL     1       2.645   3.338  19.035  0.00  0.00    +0.000 A 
ATOM      9  C   UNL     1       2.984   4.445  19.819  0.00  0.00    +0.000 A 
ATOM     10  C   UNL     1       3.802   5.446  19.301  0.00  0.00    +0.000 A 
ATOM     11  O   UNL     1       2.544   4.623  21.105  0.00  0.00    +0.000 OA
ATOM     12  C   UNL     1       2.035   3.401  21.648  0.00  0.00    +0.000 C 
ATOM     13  C   UNL     1       1.109   2.718  20.655  0.00  0.00    +0.000 C 
ATOM     14  O   UNL     1       1.824   2.331  19.475  0.00  0.00    +0.000 OA
ENDBRANCH   4   5
ENDBRANCH   3   4
ENDBRANCH   1   3
BRANCH   1  15
ATOM     15  C   UNL     1       8.255   8.290  18.026  0.00  0.00    +0.000 C 
ATOM     16  C   UNL     1       8.066   9.582  17.700  0.00  0.00    +0.000 C 
BRANCH  16  17
ATOM     17  C   UNL     1       8.779  10.697  18.338  0.00  0.00    +0.000 A 
ATOM     18  C   UNL     1       9.683  10.479  19.385  0.00  0.00    +0.000 A 
ATOM     19  C   UNL     1      10.383  11.542  19.960  0.00  0.00    +0.000 A 
ATOM     20  C   UNL     1      10.206  12.852  19.492  0.00  0.00    +0.000 A 
ATOM     21  C   UNL     1       9.313  13.074  18.435  0.00  0.00    +0.000 A 
ATOM     22  C   UNL     1       8.618  12.004  17.866  0.00  0.00    +0.000 A 
ATOM     23  F   UNL     1       7.782  12.259  16.849  0.00  0.00    +0.000 F 
BRANCH  20  24
ATOM     24  C   UNL     1      10.972  14.001  20.100  0.00  0.00    +0.000 C 
ATOM     25  F   UNL     1      12.323  13.865  19.997  0.00  0.00    +0.000 F 
ATOM     26  F   UNL     1      10.671  15.190  19.512  0.00  0.00    +0.000 F 
ATOM     27  F   UNL     1      10.713  14.157  21.426  0.00  0.00    +0.000 F 
ENDBRANCH  20  24
ENDBRANCH  16  17
ENDBRANCH   1  15
TORSDOF 6
ENDMDL
MODEL 6
REMARK VINA RESULT:      -7.4      0.979      1.168
REMARK  Name = 
REMARK  7 active torsions:
REMARK  status: ('A' for Active; 'I' for Inactive)
REMARK    1  A    between atoms: C_1  and  N_2
REMARK    2  A    between atoms: N_2  and  C_3
REMARK    3  A    between atoms: N_2  and  C_17
REMARK    4  A    between atoms: C_3  and  C_4
REMARK    5  A    between atoms: C_5  and  C_6
REMARK    6  A    between atoms: C_9  and  C_10
REMARK    7  A    between atoms: C_17  and  C_18
REMARK                            x       y       z     vdW  Elec       q    Type
REMARK                         _______ _______ _______ _____ _____    ______ ____
ROOT
ATOM      1  C   UNL     1       4.918   6.477  16.757  0.00  0.00    +0.000 C 
ENDROOT
BRANCH   1   3
ATOM      2  C   UNL     1       7.300   6.297  16.693  0.00  0.00    +0.000 C 
ATOM      3  N   UNL     1       6.092   5.889  17.424  0.00  0.00    +0.000 NA
BRANCH   3   4
ATOM      4  C   UNL     1       5.976   4.417  17.472  0.00  0.00    +0.000 C 
BRANCH   4   5
ATOM      5  C   UNL     1       4.633   3.920  17.961  0.00  0.00    +0.000 A 
ATOM      6  C   UNL     1       3.669   3.429  17.065  0.00  0.00    +0.000 A 
ATOM      7  C   UNL     1       2.441   2.957  17.532  0.00  0.00    +0.000 A 
ATOM      8  C   UNL     1       2.168   2.972  18.899  0.00  0.00    +0.000 A 
ATOM      9  C   UNL     1       3.132   3.435  19.801  0.00  0.00    +0.000 A 
ATOM     10  C   UNL     1       4.351   3.919  19.334  0.00  0.00    +0.000 A 
ATOM     11  O   UNL     1       2.948   3.451  21.159  0.00  0.00    +0.000 OA
ATOM     12  C   UNL     1       1.851   2.617  21.541  0.00  0.00    +0.000 C 
ATOM     13  C   UNL     1       0.649   2.869  20.645  0.00  0.00    +0.000 C 
ATOM     14  O   UNL     1       0.939   2.506  19.289  0.00  0.00    +0.000 OA
ENDBRANCH   4   5
ENDBRANCH   3   4
ENDBRANCH   1   3
BRANCH   1  15
ATOM     15  C   UNL     1       4.117   7.352  17.672  0.00  0.00    +0.000 C 
ATOM     16  C   UNL     1       2.871   7.070  18.091  0.00  0.00    +0.000 C 
BRANCH  16  17
ATOM     17  C   UNL     1       2.093   7.940  18.984  0.00  0.00    +0.000 A 
ATOM     18  C   UNL     1       1.898   7.612  20.332  0.00  0.00    +0.000 A 
ATOM     19  C   UNL     1       1.188   8.465  21.181  0.00  0.00    +0.000 A 
ATOM     20  C   UNL     1       0.667   9.676  20.706  0.00  0.00    +0.000 A 
ATOM     21  C   UNL     1       0.872  10.016  19.361  0.00  0.00    +0.000 A 
ATOM     22  C   UNL     1       1.583   9.158  18.520  0.00  0.00    +0.000 A 
ATOM     23  F   UNL     1       1.767   9.526  17.244  0.00  0.00    +0.000 F 
BRANCH  20  24
ATOM     24  C   UNL     1      -0.087  10.607  21.623  0.00  0.00    +0.000 C 
ATOM     25  F   UNL     1      -1.356  10.869  21.204  0.00  0.00    +0.000 F 
ATOM     26  F   UNL     1      -0.206  10.107  22.882  0.00  0.00    +0.000 F 
ATOM     27  F   UNL     1       0.521  11.817  21.752  0.00  0.00    +0.000 F 
ENDBRANCH  20  24
ENDBRANCH  16  17
ENDBRANCH   1  15
TORSDOF 6
ENDMDL
MODEL 7
REMARK VINA RESULT:      -7.4      2.522      4.313
REMARK  Name = 
REMARK  7 active torsions:
REMARK  status: ('A' for Active; 'I' for Inactive)
REMARK    1  A    between atoms: C_1  and  N_2
REMARK    2  A    between atoms: N_2  and  C_3
REMARK    3  A    between atoms: N_2  and  C_17
REMARK    4  A    between atoms: C_3  and  C_4
REMARK    5  A    between atoms: C_5  and  C_6
REMARK    6  A    between atoms: C_9  and  C_10
REMARK    7  A    between atoms: C_17  and  C_18
REMARK                            x       y       z     vdW  Elec       q    Type
REMARK                         _______ _______ _______ _____ _____    ______ ____
ROOT
ATOM      1  C   UNL     1       2.484   3.968  20.358  0.00  0.00    +0.000 C 
ENDROOT
BRANCH   1   3
ATOM      2  C   UNL     1       1.434   2.030  19.435  0.00  0.00    +0.000 C 
ATOM      3  N   UNL     1       2.189   3.247  19.108  0.00  0.00    +0.000 NA
BRANCH   3   4
ATOM      4  C   UNL     1       3.440   2.916  18.396  0.00  0.00    +0.000 C 
BRANCH   4   5
ATOM      5  C   UNL     1       4.283   4.120  18.036  0.00  0.00    +0.000 A 
ATOM      6  C   UNL     1       3.804   5.108  17.161  0.00  0.00    +0.000 A 
ATOM      7  C   UNL     1       4.587   6.221  16.851  0.00  0.00    +0.000 A 
ATOM      8  C   UNL     1       5.853   6.357  17.416  0.00  0.00    +0.000 A 
ATOM      9  C   UNL     1       6.328   5.392  18.309  0.00  0.00    +0.000 A 
ATOM     10  C   UNL     1       5.554   4.273  18.607  0.00  0.00    +0.000 A 
ATOM     11  O   UNL     1       7.549   5.471  18.928  0.00  0.00    +0.000 OA
ATOM     12  C   UNL     1       8.084   6.794  18.844  0.00  0.00    +0.000 C 
ATOM     13  C   UNL     1       7.953   7.337  17.430  0.00  0.00    +0.000 C 
ATOM     14  O   UNL     1       6.574   7.468  17.060  0.00  0.00    +0.000 OA
ENDBRANCH   4   5
ENDBRANCH   3   4
ENDBRANCH   1   3
BRANCH   1  15
ATOM     15  C   UNL     1       1.806   5.303  20.423  0.00  0.00    +0.000 C 
ATOM     16  C   UNL     1       2.385   6.464  20.071  0.00  0.00    +0.000 C 
BRANCH  16  17
ATOM     17  C   UNL     1       1.711   7.768  20.145  0.00  0.00    +0.000 A 
ATOM     18  C   UNL     1       1.185   8.248  21.351  0.00  0.00    +0.000 A 
ATOM     19  C   UNL     1       0.579   9.505  21.418  0.00  0.00    +0.000 A 
ATOM     20  C   UNL     1       0.497  10.321  20.282  0.00  0.00    +0.000 A 
ATOM     21  C   UNL     1       1.035   9.852  19.076  0.00  0.00    +0.000 A 
ATOM     22  C   UNL     1       1.639   8.595  19.018  0.00  0.00    +0.000 A 
ATOM     23  F   UNL     1       2.152   8.189  17.847  0.00  0.00    +0.000 F 
BRANCH  20  24
ATOM     24  C   UNL     1      -0.142  11.686  20.353  0.00  0.00    +0.000 C 
ATOM     25  F   UNL     1      -1.383  11.732  19.793  0.00  0.00    +0.000 F 
ATOM     26  F   UNL     1      -0.297  12.117  21.635  0.00  0.00    +0.000 F 
ATOM     27  F   UNL     1       0.590  12.639  19.718  0.00  0.00    +0.000 F 
ENDBRANCH  20  24
ENDBRANCH  16  17
ENDBRANCH   1  15
TORSDOF 6
ENDMDL
MODEL 8
REMARK VINA RESULT:      -7.3      2.647      4.717
REMARK  Name = 
REMARK  7 active torsions:
REMARK  status: ('A' for Active; 'I' for Inactive)
REMARK    1  A    between atoms: C_1  and  N_2
REMARK    2  A    between atoms: N_2  and  C_3
REMARK    3  A    between atoms: N_2  and  C_17
REMARK    4  A    between atoms: C_3  and  C_4
REMARK    5  A    between atoms: C_5  and  C_6
REMARK    6  A    between atoms: C_9  and  C_10
REMARK    7  A    between atoms: C_17  and  C_18
REMARK                            x       y       z     vdW  Elec       q    Type
REMARK                         _______ _______ _______ _____ _____    ______ ____
ROOT
ATOM      1  C   UNL     1       2.303   4.847  20.989  0.00  0.00    +0.000 C 
ENDROOT
BRANCH   1   3
ATOM      2  C   UNL     1       1.376   2.676  21.366  0.00  0.00    +0.000 C 
ATOM      3  N   UNL     1       1.823   3.619  20.332  0.00  0.00    +0.000 NA
BRANCH   3   4
ATOM      4  C   UNL     1       2.894   3.025  19.505  0.00  0.00    +0.000 C 
BRANCH   4   5
ATOM      5  C   UNL     1       3.774   4.042  18.812  0.00  0.00    +0.000 A 
ATOM      6  C   UNL     1       3.280   4.841  17.768  0.00  0.00    +0.000 A 
ATOM      7  C   UNL     1       4.099   5.787  17.149  0.00  0.00    +0.000 A 
ATOM      8  C   UNL     1       5.418   5.942  17.570  0.00  0.00    +0.000 A 
ATOM      9  C   UNL     1       5.912   5.169  18.626  0.00  0.00    +0.000 A 
ATOM     10  C   UNL     1       5.100   4.215  19.234  0.00  0.00    +0.000 A 
ATOM     11  O   UNL     1       7.187   5.285  19.115  0.00  0.00    +0.000 OA
ATOM     12  C   UNL     1       7.794   6.506  18.685  0.00  0.00    +0.000 C 
ATOM     13  C   UNL     1       7.568   6.722  17.197  0.00  0.00    +0.000 C 
ATOM     14  O   UNL     1       6.172   6.880  16.912  0.00  0.00    +0.000 OA
ENDBRANCH   4   5
ENDBRANCH   3   4
ENDBRANCH   1   3
BRANCH   1  15
ATOM     15  C   UNL     1       1.566   6.067  20.529  0.00  0.00    +0.000 C 
ATOM     16  C   UNL     1       2.131   7.278  20.370  0.00  0.00    +0.000 C 
BRANCH  16  17
ATOM     17  C   UNL     1       1.396   8.470  19.924  0.00  0.00    +0.000 A 
ATOM     18  C   UNL     1       1.491   8.933  18.606  0.00  0.00    +0.000 A 
ATOM     19  C   UNL     1       0.759  10.045  18.184  0.00  0.00    +0.000 A 
ATOM     20  C   UNL     1      -0.098  10.715  19.067  0.00  0.00    +0.000 A 
ATOM     21  C   UNL     1      -0.208  10.247  20.384  0.00  0.00    +0.000 A 
ATOM     22  C   UNL     1       0.528   9.135  20.797  0.00  0.00    +0.000 A 
ATOM     23  F   UNL     1       0.385   8.712  22.062  0.00  0.00    +0.000 F 
BRANCH  20  24
ATOM     24  C   UNL     1      -0.902  11.907  18.611  0.00  0.00    +0.000 C 
ATOM     25  F   UNL     1      -0.148  13.024  18.412  0.00  0.00    +0.000 F 
ATOM     26  F   UNL     1      -1.544  11.678  17.434  0.00  0.00    +0.000 F 
ATOM     27  F   UNL     1      -1.864  12.261  19.505  0.00  0.00    +0.000 F 
ENDBRANCH  20  24
ENDBRANCH  16  17
ENDBRANCH   1  15
TORSDOF 6
ENDMDL
MODEL 9
REMARK VINA RESULT:      -7.2      2.648      5.000
REMARK  Name = 
REMARK  7 active torsions:
REMARK  status: ('A' for Active; 'I' for Inactive)
REMARK    1  A    between atoms: C_1  and  N_2
REMARK    2  A    between atoms: N_2  and  C_3
REMARK    3  A    between atoms: N_2  and  C_17
REMARK    4  A    between atoms: C_3  and  C_4
REMARK    5  A    between atoms: C_5  and  C_6
REMARK    6  A    between atoms: C_9  and  C_10
REMARK    7  A    between atoms: C_17  and  C_18
REMARK                            x       y       z     vdW  Elec       q    Type
REMARK                         _______ _______ _______ _____ _____    ______ ____
ROOT
ATOM      1  C   UNL     1       2.001   3.914  20.002  0.00  0.00    +0.000 C 
ENDROOT
BRANCH   1   3
ATOM      2  C   UNL     1       2.867   1.993  18.874  0.00  0.00    +0.000 C 
ATOM      3  N   UNL     1       2.982   3.452  19.005  0.00  0.00    +0.000 NA
BRANCH   3   4
ATOM      4  C   UNL     1       4.349   3.840  19.408  0.00  0.00    +0.000 C 
BRANCH   4   5
ATOM      5  C   UNL     1       5.255   4.201  18.251  0.00  0.00    +0.000 A 
ATOM      6  C   UNL     1       6.524   4.762  18.469  0.00  0.00    +0.000 A 
ATOM      7  C   UNL     1       7.356   5.075  17.392  0.00  0.00    +0.000 A 
ATOM      8  C   UNL     1       6.926   4.828  16.090  0.00  0.00    +0.000 A 
ATOM      9  C   UNL     1       5.674   4.246  15.864  0.00  0.00    +0.000 A 
ATOM     10  C   UNL     1       4.838   3.947  16.937  0.00  0.00    +0.000 A 
ATOM     11  O   UNL     1       5.196   3.945  14.615  0.00  0.00    +0.000 OA
ATOM     12  C   UNL     1       6.247   3.948  13.647  0.00  0.00    +0.000 C 
ATOM     13  C   UNL     1       7.123   5.180  13.809  0.00  0.00    +0.000 C 
ATOM     14  O   UNL     1       7.787   5.170  15.079  0.00  0.00    +0.000 OA
ENDBRANCH   4   5
ENDBRANCH   3   4
ENDBRANCH   1   3
BRANCH   1  15
ATOM     15  C   UNL     1       1.596   5.341  19.789  0.00  0.00    +0.000 C 
ATOM     16  C   UNL     1       2.462   6.354  19.609  0.00  0.00    +0.000 C 
BRANCH  16  17
ATOM     17  C   UNL     1       2.053   7.751  19.408  0.00  0.00    +0.000 A 
ATOM     18  C   UNL     1       2.256   8.400  18.183  0.00  0.00    +0.000 A 
ATOM     19  C   UNL     1       1.829   9.716  17.991  0.00  0.00    +0.000 A 
ATOM     20  C   UNL     1       1.176  10.414  19.016  0.00  0.00    +0.000 A 
ATOM     21  C   UNL     1       0.958   9.765  20.240  0.00  0.00    +0.000 A 
ATOM     22  C   UNL     1       1.388   8.449  20.422  0.00  0.00    +0.000 A 
ATOM     23  F   UNL     1       1.149   7.861  21.604  0.00  0.00    +0.000 F 
BRANCH  20  24
ATOM     24  C   UNL     1       0.700  11.830  18.808  0.00  0.00    +0.000 C 
ATOM     25  F   UNL     1      -0.486  11.910  18.144  0.00  0.00    +0.000 F 
ATOM     26  F   UNL     1       0.516  12.491  19.982  0.00  0.00    +0.000 F 
ATOM     27  F   UNL     1       1.581  12.576  18.088  0.00  0.00    +0.000 F 
ENDBRANCH  20  24
ENDBRANCH  16  17
ENDBRANCH   1  15
TORSDOF 6
ENDMDL
