MODEL 1
REMARK VINA RESULT:      -7.5      0.000      0.000
REMARK  Name = 
REMARK  7 active torsions:
REMARK  status: ('A' for Active; 'I' for Inactive)
REMARK    1  A    between atoms: C_1  and  N_2
REMARK    2  A    between atoms: N_2  and  C_3
REMARK    3  A    between atoms: N_2  and  C_15
REMARK    4  A    between atoms: C_3  and  C_4
REMARK    5  A    between atoms: N_6  and  C_7
REMARK    6  A    between atoms: C_11  and  C_12
REMARK    7  A    between atoms: C_15  and  C_16
REMARK                            x       y       z     vdW  Elec       q    Type
REMARK                         _______ _______ _______ _____ _____    ______ ____
ROOT
ATOM      1  C   UNL     1       4.231   5.347  17.948  0.00  0.00    +0.000 C 
ATOM      2  O   UNL     1       3.359   4.897  17.201  0.00  0.00    +0.000 OA
ATOM      3  N   UNL     1       4.273   5.156  19.322  0.00  0.00    +0.000 N 
ATOM      4  H   UNL     1       4.642   5.914  19.880  0.00  0.00    +0.000 HD
ENDROOT
BRANCH   3   5
ATOM      5  C   UNL     1       3.290   4.378  19.895  0.00  0.00    +0.000 A 
ATOM      6  S   UNL     1       1.990   5.258  20.533  0.00  0.00    +0.000 S 
ATOM      7  C   UNL     1       1.081   3.828  20.762  0.00  0.00    +0.000 A 
ATOM      8  C   UNL     1       1.825   2.699  20.482  0.00  0.00    +0.000 A 
ATOM      9  C   UNL     1       3.154   3.007  20.017  0.00  0.00    +0.000 A 
BRANCH   9  10
ATOM     10  C   UNL     1       4.237   2.058  19.764  0.00  0.00    +0.000 C 
ATOM     11  N   UNL     1       4.170   1.382  18.580  0.00  0.00    +0.000 N 
ATOM     12  O   UNL     1       5.143   1.822  20.554  0.00  0.00    +0.000 OA
ATOM     13  H   UNL     1       3.620   1.740  17.812  0.00  0.00    +0.000 HD
ATOM     14  H   UNL     1       4.987   0.828  18.357  0.00  0.00    +0.000 HD
ENDBRANCH   9  10
ENDBRANCH   3   5
BRANCH   1  15
ATOM     15  C   UNL     1       5.356   6.235  17.404  0.00  0.00    +0.000 C 
BRANCH  15  17
ATOM     16  C   UNL     1       7.568   7.057  17.844  0.00  0.00    +0.000 C 
ATOM     17  N   UNL     1       6.658   5.920  18.030  0.00  0.00    +0.000 NA
BRANCH  17  18
ATOM     18  C   UNL     1       7.240   4.689  17.441  0.00  0.00    +0.000 C 
BRANCH  18  19
ATOM     19  C   UNL     1       6.933   4.550  15.988  0.00  0.00    +0.000 A 
ATOM     20  C   UNL     1       6.042   3.763  15.286  0.00  0.00    +0.000 A 
ATOM     21  C   UNL     1       6.248   4.060  13.918  0.00  0.00    +0.000 A 
ATOM     22  C   UNL     1       7.235   5.016  13.878  0.00  0.00    +0.000 A 
ATOM     23  O   UNL     1       7.660   5.321  15.129  0.00  0.00    +0.000 OA
ENDBRANCH  18  19
ENDBRANCH  17  18
ENDBRANCH  15  17
ENDBRANCH   1  15
TORSDOF 6
ENDMDL
MODEL 2
REMARK VINA RESULT:      -7.1      1.589      1.793
REMARK  Name = 
REMARK  7 active torsions:
REMARK  status: ('A' for Active; 'I' for Inactive)
REMARK    1  A    between atoms: C_1  and  N_2
REMARK    2  A    between atoms: N_2  and  C_3
REMARK    3  A    between atoms: N_2  and  C_15
REMARK    4  A    between atoms: C_3  and  C_4
REMARK    5  A    between atoms: N_6  and  C_7
REMARK    6  A    between atoms: C_11  and  C_12
REMARK    7  A    between atoms: C_15  and  C_16
REMARK                            x       y       z     vdW  Elec       q    Type
REMARK                         _______ _______ _______ _____ _____    ______ ____
ROOT
ATOM      1  C   UNL     1       6.195   4.547  18.284  0.00  0.00    +0.000 C 
ATOM      2  O   UNL     1       6.238   4.962  19.444  0.00  0.00    +0.000 OA
ATOM      3  N   UNL     1       5.097   3.926  17.704  0.00  0.00    +0.000 N 
ATOM      4  H   UNL     1       5.285   3.199  17.027  0.00  0.00    +0.000 HD
ENDROOT
BRANCH   3   5
ATOM      5  C   UNL     1       3.956   3.793  18.465  0.00  0.00    +0.000 A 
ATOM      6  S   UNL     1       2.831   5.044  18.256  0.00  0.00    +0.000 S 
ATOM      7  C   UNL     1       1.647   4.181  19.138  0.00  0.00    +0.000 A 
ATOM      8  C   UNL     1       2.162   3.027  19.692  0.00  0.00    +0.000 A 
ATOM      9  C   UNL     1       3.544   2.809  19.346  0.00  0.00    +0.000 A 
BRANCH   9  10
ATOM     10  C   UNL     1       4.427   1.767  19.868  0.00  0.00    +0.000 C 
ATOM     11  N   UNL     1       4.529   0.638  19.106  0.00  0.00    +0.000 N 
ATOM     12  O   UNL     1       5.022   1.841  20.936  0.00  0.00    +0.000 OA
ATOM     13  H   UNL     1       4.289   0.655  18.125  0.00  0.00    +0.000 HD
ATOM     14  H   UNL     1       5.237  -0.018  19.407  0.00  0.00    +0.000 HD
ENDBRANCH   9  10
ENDBRANCH   3   5
BRANCH   1  15
ATOM     15  C   UNL     1       7.421   4.637  17.367  0.00  0.00    +0.000 C 
BRANCH  15  17
ATOM     16  C   UNL     1       7.397   7.037  17.354  0.00  0.00    +0.000 C 
ATOM     17  N   UNL     1       7.376   5.838  16.506  0.00  0.00    +0.000 NA
BRANCH  17  18
ATOM     18  C   UNL     1       6.162   5.829  15.653  0.00  0.00    +0.000 C 
BRANCH  18  19
ATOM     19  C   UNL     1       6.342   5.020  14.412  0.00  0.00    +0.000 A 
ATOM     20  C   UNL     1       5.656   3.945  13.883  0.00  0.00    +0.000 A 
ATOM     21  C   UNL     1       6.335   3.594  12.692  0.00  0.00    +0.000 A 
ATOM     22  C   UNL     1       7.375   4.484  12.567  0.00  0.00    +0.000 A 
ATOM     23  O   UNL     1       7.390   5.355  13.607  0.00  0.00    +0.000 OA
ENDBRANCH  18  19
ENDBRANCH  17  18
ENDBRANCH  15  17
ENDBRANCH   1  15
TORSDOF 6
ENDMDL
MODEL 3
REMARK VINA RESULT:      -7.0      0.845      1.053
REMARK  Name = 
REMARK  7 active torsions:
REMARK  status: ('A' for Active; 'I' for Inactive)
REMARK    1  A    between atoms: C_1  and  N_2
REMARK    2  A    between atoms: N_2  and  C_3
REMARK    3  A    between atoms: N_2  and  C_15
REMARK    4  A    between atoms: C_3  and  C_4
REMARK    5  A    between atoms: N_6  and  C_7
REMARK    6  A    between atoms: C_11  and  C_12
REMARK    7  A    between atoms: C_15  and  C_16
REMARK                            x       y       z     vdW  Elec       q    Type
REMARK                         _______ _______ _______ _____ _____    ______ ____
ROOT
ATOM      1  C   UNL     1       4.275   5.030  17.907  0.00  0.00    +0.000 C 
ATOM      2  O   UNL     1       3.441   4.465  17.196  0.00  0.00    +0.000 OA
ATOM      3  N   UNL     1       4.273   5.015  19.295  0.00  0.00    +0.000 N 
ATOM      4  H   UNL     1       4.603   5.848  19.764  0.00  0.00    +0.000 HD
ENDROOT
BRANCH   3   5
ATOM      5  C   UNL     1       3.290   4.288  19.930  0.00  0.00    +0.000 A 
ATOM      6  S   UNL     1       1.954   5.205  20.424  0.00  0.00    +0.000 S 
ATOM      7  C   UNL     1       1.069   3.791  20.798  0.00  0.00    +0.000 A 
ATOM      8  C   UNL     1       1.843   2.655  20.674  0.00  0.00    +0.000 A 
ATOM      9  C   UNL     1       3.179   2.938  20.210  0.00  0.00    +0.000 A 
BRANCH   9  10
ATOM     10  C   UNL     1       4.289   1.992  20.101  0.00  0.00    +0.000 C 
ATOM     11  N   UNL     1       4.381   1.319  18.917  0.00  0.00    +0.000 N 
ATOM     12  O   UNL     1       5.083   1.755  21.004  0.00  0.00    +0.000 OA
ATOM     13  H   UNL     1       3.936   1.678  18.083  0.00  0.00    +0.000 HD
ATOM     14  H   UNL     1       5.221   0.768  18.802  0.00  0.00    +0.000 HD
ENDBRANCH   9  10
ENDBRANCH   3   5
BRANCH   1  15
ATOM     15  C   UNL     1       5.395   5.876  17.290  0.00  0.00    +0.000 C 
BRANCH  15  17
ATOM     16  C   UNL     1       7.496   4.998  18.051  0.00  0.00    +0.000 C 
ATOM     17  N   UNL     1       6.565   5.051  16.917  0.00  0.00    +0.000 NA
BRANCH  17  18
ATOM     18  C   UNL     1       7.240   5.609  15.719  0.00  0.00    +0.000 C 
BRANCH  18  19
ATOM     19  C   UNL     1       6.885   4.875  14.470  0.00  0.00    +0.000 A 
ATOM     20  C   UNL     1       6.010   3.840  14.203  0.00  0.00    +0.000 A 
ATOM     21  C   UNL     1       6.148   3.554  12.824  0.00  0.00    +0.000 A 
ATOM     22  C   UNL     1       7.082   4.440  12.341  0.00  0.00    +0.000 A 
ATOM     23  O   UNL     1       7.537   5.247  13.332  0.00  0.00    +0.000 OA
ENDBRANCH  18  19
ENDBRANCH  17  18
ENDBRANCH  15  17
ENDBRANCH   1  15
TORSDOF 6
ENDMDL
MODEL 4
REMARK VINA RESULT:      -6.9      1.841      2.629
REMARK  Name = 
REMARK  7 active torsions:
REMARK  status: ('A' for Active; 'I' for Inactive)
REMARK    1  A    between atoms: C_1  and  N_2
REMARK    2  A    between atoms: N_2  and  C_3
REMARK    3  A    between atoms: N_2  and  C_15
REMARK    4  A    between atoms: C_3  and  C_4
REMARK    5  A    between atoms: N_6  and  C_7
REMARK    6  A    between atoms: C_11  and  C_12
REMARK    7  A    between atoms: C_15  and  C_16
REMARK                            x       y       z     vdW  Elec       q    Type
REMARK                         _______ _______ _______ _____ _____    ______ ____
ROOT
ATOM      1  C   UNL     1       6.352   4.573  18.640  0.00  0.00    +0.000 C 
ATOM      2  O   UNL     1       6.348   5.210  19.696  0.00  0.00    +0.000 OA
ATOM      3  N   UNL     1       5.368   3.675  18.253  0.00  0.00    +0.000 N 
ATOM      4  H   UNL     1       5.664   2.871  17.717  0.00  0.00    +0.000 HD
ENDROOT
BRANCH   3   5
ATOM      5  C   UNL     1       4.285   3.506  19.088  0.00  0.00    +0.000 A 
ATOM      6  S   UNL     1       4.469   2.258  20.220  0.00  0.00    +0.000 S 
ATOM      7  C   UNL     1       3.063   2.756  21.058  0.00  0.00    +0.000 A 
ATOM      8  C   UNL     1       2.403   3.769  20.392  0.00  0.00    +0.000 A 
ATOM      9  C   UNL     1       3.087   4.189  19.195  0.00  0.00    +0.000 A 
BRANCH   9  10
ATOM     10  C   UNL     1       2.600   5.135  18.192  0.00  0.00    +0.000 C 
ATOM     11  N   UNL     1       1.414   4.813  17.598  0.00  0.00    +0.000 N 
ATOM     12  O   UNL     1       3.207   6.141  17.844  0.00  0.00    +0.000 OA
ATOM     13  H   UNL     1       0.774   4.169  18.041  0.00  0.00    +0.000 HD
ATOM     14  H   UNL     1       1.023   5.533  17.005  0.00  0.00    +0.000 HD
ENDBRANCH   9  10
ENDBRANCH   3   5
BRANCH   1  15
ATOM     15  C   UNL     1       7.522   4.685  17.655  0.00  0.00    +0.000 C 
BRANCH  15  17
ATOM     16  C   UNL     1       7.422   7.081  17.563  0.00  0.00    +0.000 C 
ATOM     17  N   UNL     1       7.377   5.853  16.760  0.00  0.00    +0.000 NA
BRANCH  17  18
ATOM     18  C   UNL     1       6.105   5.778  15.999  0.00  0.00    +0.000 C 
BRANCH  18  19
ATOM     19  C   UNL     1       6.246   5.016  14.725  0.00  0.00    +0.000 A 
ATOM     20  C   UNL     1       5.500   4.010  14.144  0.00  0.00    +0.000 A 
ATOM     21  C   UNL     1       6.166   3.669  12.943  0.00  0.00    +0.000 A 
ATOM     22  C   UNL     1       7.260   4.498  12.864  0.00  0.00    +0.000 A 
ATOM     23  O   UNL     1       7.320   5.319  13.941  0.00  0.00    +0.000 OA
ENDBRANCH  18  19
ENDBRANCH  17  18
ENDBRANCH  15  17
ENDBRANCH   1  15
TORSDOF 6
ENDMDL
MODEL 5
REMARK VINA RESULT:      -6.8      1.922      3.108
REMARK  Name = 
REMARK  7 active torsions:
REMARK  status: ('A' for Active; 'I' for Inactive)
REMARK    1  A    between atoms: C_1  and  N_2
REMARK    2  A    between atoms: N_2  and  C_3
REMARK    3  A    between atoms: N_2  and  C_15
REMARK    4  A    between atoms: C_3  and  C_4
REMARK    5  A    between atoms: N_6  and  C_7
REMARK    6  A    between atoms: C_11  and  C_12
REMARK    7  A    between atoms: C_15  and  C_16
REMARK                            x       y       z     vdW  Elec       q    Type
REMARK                         _______ _______ _______ _____ _____    ______ ____
ROOT
ATOM      1  C   UNL     1       3.751   3.935  17.439  0.00  0.00    +0.000 C 
ATOM      2  O   UNL     1       2.564   3.834  17.120  0.00  0.00    +0.000 OA
ATOM      3  N   UNL     1       4.211   4.563  18.588  0.00  0.00    +0.000 N 
ATOM      4  H   UNL     1       5.097   5.046  18.524  0.00  0.00    +0.000 HD
ENDROOT
BRANCH   3   5
ATOM      5  C   UNL     1       3.277   5.082  19.458  0.00  0.00    +0.000 A 
ATOM      6  S   UNL     1       2.962   6.733  19.238  0.00  0.00    +0.000 S 
ATOM      7  C   UNL     1       1.623   6.661  20.299  0.00  0.00    +0.000 A 
ATOM      8  C   UNL     1       1.518   5.426  20.907  0.00  0.00    +0.000 A 
ATOM      9  C   UNL     1       2.523   4.496  20.459  0.00  0.00    +0.000 A 
BRANCH   9  10
ATOM     10  C   UNL     1       2.783   3.159  20.992  0.00  0.00    +0.000 C 
ATOM     11  N   UNL     1       2.050   2.804  22.089  0.00  0.00    +0.000 N 
ATOM     12  O   UNL     1       3.624   2.390  20.543  0.00  0.00    +0.000 OA
ATOM     13  H   UNL     1       1.184   3.278  22.305  0.00  0.00    +0.000 HD
ATOM     14  H   UNL     1       2.142   1.837  22.369  0.00  0.00    +0.000 HD
ENDBRANCH   9  10
ENDBRANCH   3   5
BRANCH   1  15
ATOM     15  C   UNL     1       4.862   3.402  16.528  0.00  0.00    +0.000 C 
BRANCH  15  17
ATOM     16  C   UNL     1       5.257   4.299  14.337  0.00  0.00    +0.000 C 
ATOM     17  N   UNL     1       5.519   4.488  15.769  0.00  0.00    +0.000 NA
BRANCH  17  18
ATOM     18  C   UNL     1       6.979   4.503  16.031  0.00  0.00    +0.000 C 
BRANCH  18  19
ATOM     19  C   UNL     1       7.342   5.357  17.199  0.00  0.00    +0.000 A 
ATOM     20  C   UNL     1       7.542   6.715  17.345  0.00  0.00    +0.000 A 
ATOM     21  C   UNL     1       7.905   6.916  18.697  0.00  0.00    +0.000 A 
ATOM     22  C   UNL     1       7.886   5.675  19.288  0.00  0.00    +0.000 A 
ATOM     23  O   UNL     1       7.546   4.719  18.387  0.00  0.00    +0.000 OA
ENDBRANCH  18  19
ENDBRANCH  17  18
ENDBRANCH  15  17
ENDBRANCH   1  15
TORSDOF 6
ENDMDL
MODEL 6
REMARK VINA RESULT:      -6.8      2.097      3.681
REMARK  Name = 
REMARK  7 active torsions:
REMARK  status: ('A' for Active; 'I' for Inactive)
REMARK    1  A    between atoms: C_1  and  N_2
REMARK    2  A    between atoms: N_2  and  C_3
REMARK    3  A    between atoms: N_2  and  C_15
REMARK    4  A    between atoms: C_3  and  C_4
REMARK    5  A    between atoms: N_6  and  C_7
REMARK    6  A    between atoms: C_11  and  C_12
REMARK    7  A    between atoms: C_15  and  C_16
REMARK                            x       y       z     vdW  Elec       q    Type
REMARK                         _______ _______ _______ _____ _____    ______ ____
ROOT
ATOM      1  C   UNL     1       4.117   3.441  17.505  0.00  0.00    +0.000 C 
ATOM      2  O   UNL     1       4.696   3.144  18.553  0.00  0.00    +0.000 OA
ATOM      3  N   UNL     1       2.806   3.889  17.424  0.00  0.00    +0.000 N 
ATOM      4  H   UNL     1       2.276   3.613  16.609  0.00  0.00    +0.000 HD
ENDROOT
BRANCH   3   5
ATOM      5  C   UNL     1       2.106   4.051  18.600  0.00  0.00    +0.000 A 
ATOM      6  S   UNL     1       1.097   2.747  18.995  0.00  0.00    +0.000 S 
ATOM      7  C   UNL     1       0.814   3.386  20.555  0.00  0.00    +0.000 A 
ATOM      8  C   UNL     1       1.375   4.638  20.705  0.00  0.00    +0.000 A 
ATOM      9  C   UNL     1       2.100   5.069  19.536  0.00  0.00    +0.000 A 
BRANCH   9  10
ATOM     10  C   UNL     1       2.693   6.386  19.306  0.00  0.00    +0.000 C 
ATOM     11  N   UNL     1       2.267   7.383  20.136  0.00  0.00    +0.000 N 
ATOM     12  O   UNL     1       3.493   6.633  18.411  0.00  0.00    +0.000 OA
ATOM     13  H   UNL     1       1.844   7.165  21.028  0.00  0.00    +0.000 HD
ATOM     14  H   UNL     1       2.776   8.253  20.056  0.00  0.00    +0.000 HD
ENDBRANCH   9  10
ENDBRANCH   3   5
BRANCH   1  15
ATOM     15  C   UNL     1       4.810   3.278  16.147  0.00  0.00    +0.000 C 
BRANCH  15  17
ATOM     16  C   UNL     1       5.506   4.680  14.328  0.00  0.00    +0.000 C 
ATOM     17  N   UNL     1       5.588   4.480  15.780  0.00  0.00    +0.000 NA
BRANCH  17  18
ATOM     18  C   UNL     1       7.004   4.340  16.204  0.00  0.00    +0.000 C 
BRANCH  18  19
ATOM     19  C   UNL     1       7.369   5.285  17.299  0.00  0.00    +0.000 A 
ATOM     20  C   UNL     1       7.522   6.657  17.345  0.00  0.00    +0.000 A 
ATOM     21  C   UNL     1       7.917   6.964  18.668  0.00  0.00    +0.000 A 
ATOM     22  C   UNL     1       7.963   5.766  19.342  0.00  0.00    +0.000 A 
ATOM     23  O   UNL     1       7.633   4.740  18.520  0.00  0.00    +0.000 OA
ENDBRANCH  18  19
ENDBRANCH  17  18
ENDBRANCH  15  17
ENDBRANCH   1  15
TORSDOF 6
ENDMDL
MODEL 7
REMARK VINA RESULT:      -6.8      2.023      3.471
REMARK  Name = 
REMARK  7 active torsions:
REMARK  status: ('A' for Active; 'I' for Inactive)
REMARK    1  A    between atoms: C_1  and  N_2
REMARK    2  A    between atoms: N_2  and  C_3
REMARK    3  A    between atoms: N_2  and  C_15
REMARK    4  A    between atoms: C_3  and  C_4
REMARK    5  A    between atoms: N_6  and  C_7
REMARK    6  A    between atoms: C_11  and  C_12
REMARK    7  A    between atoms: C_15  and  C_16
REMARK                            x       y       z     vdW  Elec       q    Type
REMARK                         _______ _______ _______ _____ _____    ______ ____
ROOT
ATOM      1  C   UNL     1       4.057   3.717  17.262  0.00  0.00    +0.000 C 
ATOM      2  O   UNL     1       2.992   3.662  16.644  0.00  0.00    +0.000 OA
ATOM      3  N   UNL     1       4.169   3.802  18.643  0.00  0.00    +0.000 N 
ATOM      4  H   UNL     1       4.942   4.341  19.009  0.00  0.00    +0.000 HD
ENDROOT
BRANCH   3   5
ATOM      5  C   UNL     1       3.008   3.788  19.385  0.00  0.00    +0.000 A 
ATOM      6  S   UNL     1       2.358   2.242  19.631  0.00  0.00    +0.000 S 
ATOM      7  C   UNL     1       1.242   2.849  20.776  0.00  0.00    +0.000 A 
ATOM      8  C   UNL     1       1.285   4.227  20.852  0.00  0.00    +0.000 A 
ATOM      9  C   UNL     1       2.291   4.802  19.995  0.00  0.00    +0.000 A 
BRANCH   9  10
ATOM     10  C   UNL     1       2.512   6.223  19.732  0.00  0.00    +0.000 C 
ATOM     11  N   UNL     1       1.937   7.088  20.618  0.00  0.00    +0.000 N 
ATOM     12  O   UNL     1       3.131   6.656  18.766  0.00  0.00    +0.000 OA
ATOM     13  H   UNL     1       1.672   6.779  21.542  0.00  0.00    +0.000 HD
ATOM     14  H   UNL     1       2.202   8.058  20.503  0.00  0.00    +0.000 HD
ENDBRANCH   9  10
ENDBRANCH   3   5
BRANCH   1  15
ATOM     15  C   UNL     1       5.399   3.753  16.521  0.00  0.00    +0.000 C 
BRANCH  15  17
ATOM     16  C   UNL     1       6.734   4.794  14.820  0.00  0.00    +0.000 C 
ATOM     17  N   UNL     1       5.439   4.832  15.510  0.00  0.00    +0.000 NA
BRANCH  17  18
ATOM     18  C   UNL     1       5.231   6.156  16.146  0.00  0.00    +0.000 C 
BRANCH  18  19
ATOM     19  C   UNL     1       6.371   6.555  17.023  0.00  0.00    +0.000 A 
ATOM     20  C   UNL     1       6.987   5.947  18.099  0.00  0.00    +0.000 A 
ATOM     21  C   UNL     1       7.991   6.843  18.534  0.00  0.00    +0.000 A 
ATOM     22  C   UNL     1       7.932   7.926  17.689  0.00  0.00    +0.000 A 
ATOM     23  O   UNL     1       6.951   7.762  16.767  0.00  0.00    +0.000 OA
ENDBRANCH  18  19
ENDBRANCH  17  18
ENDBRANCH  15  17
ENDBRANCH   1  15
TORSDOF 6
ENDMDL
MODEL 8
REMARK VINA RESULT:      -6.8      1.329      1.329
REMARK  Name = 
REMARK  7 active torsions:
REMARK  status: ('A' for Active; 'I' for Inactive)
REMARK    1  A    between atoms: C_1  and  N_2
REMARK    2  A    between atoms: N_2  and  C_3
REMARK    3  A    between atoms: N_2  and  C_15
REMARK    4  A    between atoms: C_3  and  C_4
REMARK    5  A    between atoms: N_6  and  C_7
REMARK    6  A    between atoms: C_11  and  C_12
REMARK    7  A    between atoms: C_15  and  C_16
REMARK                            x       y       z     vdW  Elec       q    Type
REMARK                         _______ _______ _______ _____ _____    ______ ____
ROOT
ATOM      1  C   UNL     1       4.232   5.811  17.844  0.00  0.00    +0.000 C 
ATOM      2  O   UNL     1       3.180   6.381  17.547  0.00  0.00    +0.000 OA
ATOM      3  N   UNL     1       4.331   4.736  18.717  0.00  0.00    +0.000 N 
ATOM      4  H   UNL     1       5.167   4.680  19.284  0.00  0.00    +0.000 HD
ENDROOT
BRANCH   3   5
ATOM      5  C   UNL     1       3.168   4.243  19.267  0.00  0.00    +0.000 A 
ATOM      6  S   UNL     1       2.597   5.128  20.595  0.00  0.00    +0.000 S 
ATOM      7  C   UNL     1       1.118   4.269  20.583  0.00  0.00    +0.000 A 
ATOM      8  C   UNL     1       1.134   3.237  19.667  0.00  0.00    +0.000 A 
ATOM      9  C   UNL     1       2.362   3.176  18.915  0.00  0.00    +0.000 A 
BRANCH   9  10
ATOM     10  C   UNL     1       2.762   2.135  17.970  0.00  0.00    +0.000 C 
ATOM     11  N   UNL     1       3.667   1.224  18.436  0.00  0.00    +0.000 N 
ATOM     12  O   UNL     1       2.369   2.070  16.811  0.00  0.00    +0.000 OA
ATOM     13  H   UNL     1       3.791   1.083  19.428  0.00  0.00    +0.000 HD
ATOM     14  H   UNL     1       3.837   0.438  17.823  0.00  0.00    +0.000 HD
ENDBRANCH   9  10
ENDBRANCH   3   5
BRANCH   1  15
ATOM     15  C   UNL     1       5.577   6.298  17.293  0.00  0.00    +0.000 C 
BRANCH  15  17
ATOM     16  C   UNL     1       7.700   6.866  18.258  0.00  0.00    +0.000 C 
ATOM     17  N   UNL     1       6.714   5.791  18.092  0.00  0.00    +0.000 NA
BRANCH  17  18
ATOM     18  C   UNL     1       7.336   4.615  17.433  0.00  0.00    +0.000 C 
BRANCH  18  19
ATOM     19  C   UNL     1       6.943   4.489  16.000  0.00  0.00    +0.000 A 
ATOM     20  C   UNL     1       5.988   3.732  15.350  0.00  0.00    +0.000 A 
ATOM     21  C   UNL     1       6.127   4.024  13.972  0.00  0.00    +0.000 A 
ATOM     22  C   UNL     1       7.141   4.947  13.876  0.00  0.00    +0.000 A 
ATOM     23  O   UNL     1       7.645   5.236  15.101  0.00  0.00    +0.000 OA
ENDBRANCH  18  19
ENDBRANCH  17  18
ENDBRANCH  15  17
ENDBRANCH   1  15
TORSDOF 6
ENDMDL
MODEL 9
REMARK VINA RESULT:      -6.7      1.989      2.347
REMARK  Name = 
REMARK  7 active torsions:
REMARK  status: ('A' for Active; 'I' for Inactive)
REMARK    1  A    between atoms: C_1  and  N_2
REMARK    2  A    between atoms: N_2  and  C_3
REMARK    3  A    between atoms: N_2  and  C_15
REMARK    4  A    between atoms: C_3  and  C_4
REMARK    5  A    between atoms: N_6  and  C_7
REMARK    6  A    between atoms: C_11  and  C_12
REMARK    7  A    between atoms: C_15  and  C_16
REMARK                            x       y       z     vdW  Elec       q    Type
REMARK                         _______ _______ _______ _____ _____    ______ ____
ROOT
ATOM      1  C   UNL     1       5.305   4.701  19.009  0.00  0.00    +0.000 C 
ATOM      2  O   UNL     1       5.732   3.556  19.171  0.00  0.00    +0.000 OA
ATOM      3  N   UNL     1       3.973   5.026  18.789  0.00  0.00    +0.000 N 
ATOM      4  H   UNL     1       3.786   5.813  18.182  0.00  0.00    +0.000 HD
ENDROOT
BRANCH   3   5
ATOM      5  C   UNL     1       3.052   4.002  18.788  0.00  0.00    +0.000 A 
ATOM      6  S   UNL     1       2.824   3.271  17.276  0.00  0.00    +0.000 S 
ATOM      7  C   UNL     1       1.907   2.010  17.977  0.00  0.00    +0.000 A 
ATOM      8  C   UNL     1       1.672   2.234  19.318  0.00  0.00    +0.000 A 
ATOM      9  C   UNL     1       2.299   3.438  19.802  0.00  0.00    +0.000 A 
BRANCH   9  10
ATOM     10  C   UNL     1       2.142   4.038  21.126  0.00  0.00    +0.000 C 
ATOM     11  N   UNL     1       2.109   3.165  22.175  0.00  0.00    +0.000 N 
ATOM     12  O   UNL     1       2.002   5.240  21.325  0.00  0.00    +0.000 OA
ATOM     13  H   UNL     1       2.490   2.234  22.083  0.00  0.00    +0.000 HD
ATOM     14  H   UNL     1       2.131   3.595  23.091  0.00  0.00    +0.000 HD
ENDBRANCH   9  10
ENDBRANCH   3   5
BRANCH   1  15
ATOM     15  C   UNL     1       6.257   5.902  18.979  0.00  0.00    +0.000 C 
BRANCH  15  17
ATOM     16  C   UNL     1       7.597   7.368  17.631  0.00  0.00    +0.000 C 
ATOM     17  N   UNL     1       6.829   6.116  17.632  0.00  0.00    +0.000 NA
BRANCH  17  18
ATOM     18  C   UNL     1       5.757   6.165  16.607  0.00  0.00    +0.000 C 
BRANCH  18  19
ATOM     19  C   UNL     1       6.082   5.349  15.401  0.00  0.00    +0.000 A 
ATOM     20  C   UNL     1       5.412   4.336  14.744  0.00  0.00    +0.000 A 
ATOM     21  C   UNL     1       6.255   3.933  13.681  0.00  0.00    +0.000 A 
ATOM     22  C   UNL     1       7.370   4.734  13.751  0.00  0.00    +0.000 A 
ATOM     23  O   UNL     1       7.276   5.598  14.793  0.00  0.00    +0.000 OA
ENDBRANCH  18  19
ENDBRANCH  17  18
ENDBRANCH  15  17
ENDBRANCH   1  15
TORSDOF 6
ENDMDL
