MODEL 1
REMARK VINA RESULT:      -6.7      0.000      0.000
REMARK  Name = 
REMARK  6 active torsions:
REMARK  status: ('A' for Active; 'I' for Inactive)
REMARK    1  A    between atoms: C_1  and  C_2
REMARK    2  A    between atoms: C_5  and  C_6
REMARK    3  A    between atoms: C_6  and  C_7
REMARK    4  A    between atoms: C_6  and  C_8
REMARK    5  A    between atoms: C_11  and  C_12
REMARK    6  A    between atoms: C_11  and  N_13
REMARK                            x       y       z     vdW  Elec       q    Type
REMARK                         _______ _______ _______ _____ _____    ______ ____
ROOT
ATOM      1  C   UNL     1       2.424   2.479  20.516  0.00  0.00    +0.000 C 
ATOM      2  C   UNL     1       3.166   3.074  19.352  0.00  0.00    +0.000 C 
ATOM      3  C   UNL     1       4.190   3.926  19.538  0.00  0.00    +0.000 C 
ATOM      4  C   UNL     1       4.897   4.629  18.413  0.00  0.00    +0.000 C 
ATOM      5  C   UNL     1       4.596   6.172  18.347  0.00  0.00    +0.000 C 
ATOM      6  C   UNL     1       5.485   6.746  17.222  0.00  0.00    +0.000 C 
ATOM      7  C   UNL     1       5.224   6.067  15.878  0.00  0.00    +0.000 C 
ATOM      8  C   UNL     1       5.504   4.544  15.894  0.00  0.00    +0.000 C 
ATOM      9  C   UNL     1       7.037   4.327  16.030  0.00  0.00    +0.000 C 
ATOM     10  C   UNL     1       4.741   3.849  17.070  0.00  0.00    +0.000 C 
ATOM     11  C   UNL     1       3.252   3.534  16.818  0.00  0.00    +0.000 C 
ATOM     12  C   UNL     1       2.622   2.751  17.981  0.00  0.00    +0.000 C 
ENDROOT
BRANCH   5  13
ATOM     13  C   UNL     1       3.104   6.674  18.221  0.00  0.00    +0.000 C 
ATOM     14  C   UNL     1       2.292   6.646  19.522  0.00  0.00    +0.000 C 
ATOM     15  C   UNL     1       3.005   8.120  17.701  0.00  0.00    +0.000 C 
ENDBRANCH   5  13
BRANCH   8  16
ATOM     16  N   UNL     1       5.066   4.041  14.562  0.00  0.00    +0.000 NA
ATOM     17  C   UNL     1       5.841   4.011  13.683  0.00  0.00    +0.000 C 
ATOM     18  S   UNL     1       6.882   3.930  12.478  0.00  0.00    +0.000 S 
ENDBRANCH   8  16
TORSDOF 2
ENDMDL
MODEL 2
REMARK VINA RESULT:      -6.6      3.236      4.987
REMARK  Name = 
REMARK  6 active torsions:
REMARK  status: ('A' for Active; 'I' for Inactive)
REMARK    1  A    between atoms: C_1  and  C_2
REMARK    2  A    between atoms: C_5  and  C_6
REMARK    3  A    between atoms: C_6  and  C_7
REMARK    4  A    between atoms: C_6  and  C_8
REMARK    5  A    between atoms: C_11  and  C_12
REMARK    6  A    between atoms: C_11  and  N_13
REMARK                            x       y       z     vdW  Elec       q    Type
REMARK                         _______ _______ _______ _____ _____    ______ ____
ROOT
ATOM      1  C   UNL     1       7.632   7.145  17.180  0.00  0.00    +0.000 C 
ATOM      2  C   UNL     1       6.526   6.217  17.597  0.00  0.00    +0.000 C 
ATOM      3  C   UNL     1       5.471   5.985  16.798  0.00  0.00    +0.000 C 
ATOM      4  C   UNL     1       4.289   5.149  17.206  0.00  0.00    +0.000 C 
ATOM      5  C   UNL     1       2.980   5.988  17.449  0.00  0.00    +0.000 C 
ATOM      6  C   UNL     1       1.854   4.971  17.741  0.00  0.00    +0.000 C 
ATOM      7  C   UNL     1       2.179   4.080  18.940  0.00  0.00    +0.000 C 
ATOM      8  C   UNL     1       3.464   3.237  18.748  0.00  0.00    +0.000 C 
ATOM      9  C   UNL     1       3.189   2.161  17.661  0.00  0.00    +0.000 C 
ATOM     10  C   UNL     1       4.670   4.144  18.337  0.00  0.00    +0.000 C 
ATOM     11  C   UNL     1       5.378   4.891  19.485  0.00  0.00    +0.000 C 
ATOM     12  C   UNL     1       6.616   5.660  18.998  0.00  0.00    +0.000 C 
ENDROOT
BRANCH   5  13
ATOM     13  C   UNL     1       2.987   7.164  18.503  0.00  0.00    +0.000 C 
ATOM     14  C   UNL     1       2.418   8.497  18.000  0.00  0.00    +0.000 C 
ATOM     15  C   UNL     1       2.190   6.827  19.776  0.00  0.00    +0.000 C 
ENDBRANCH   5  13
BRANCH   8  16
ATOM     16  N   UNL     1       3.692   2.551  20.052  0.00  0.00    +0.000 NA
ATOM     17  C   UNL     1       2.853   2.590  20.869  0.00  0.00    +0.000 C 
ATOM     18  S   UNL     1       1.716   2.601  21.987  0.00  0.00    +0.000 S 
ENDBRANCH   8  16
TORSDOF 2
ENDMDL
MODEL 3
REMARK VINA RESULT:      -6.2      2.913      5.092
REMARK  Name = 
REMARK  6 active torsions:
REMARK  status: ('A' for Active; 'I' for Inactive)
REMARK    1  A    between atoms: C_1  and  C_2
REMARK    2  A    between atoms: C_5  and  C_6
REMARK    3  A    between atoms: C_6  and  C_7
REMARK    4  A    between atoms: C_6  and  C_8
REMARK    5  A    between atoms: C_11  and  C_12
REMARK    6  A    between atoms: C_11  and  N_13
REMARK                            x       y       z     vdW  Elec       q    Type
REMARK                         _______ _______ _______ _____ _____    ______ ____
ROOT
ATOM      1  C   UNL     1       6.888   4.758  13.247  0.00  0.00    +0.000 C 
ATOM      2  C   UNL     1       6.104   4.713  14.529  0.00  0.00    +0.000 C 
ATOM      3  C   UNL     1       5.458   5.797  14.991  0.00  0.00    +0.000 C 
ATOM      4  C   UNL     1       4.747   5.836  16.315  0.00  0.00    +0.000 C 
ATOM      5  C   UNL     1       5.472   6.725  17.392  0.00  0.00    +0.000 C 
ATOM      6  C   UNL     1       4.555   6.745  18.635  0.00  0.00    +0.000 C 
ATOM      7  C   UNL     1       4.272   5.340  19.167  0.00  0.00    +0.000 C 
ATOM      8  C   UNL     1       3.561   4.426  18.139  0.00  0.00    +0.000 C 
ATOM      9  C   UNL     1       2.113   4.950  17.934  0.00  0.00    +0.000 C 
ATOM     10  C   UNL     1       4.338   4.404  16.781  0.00  0.00    +0.000 C 
ATOM     11  C   UNL     1       5.559   3.464  16.715  0.00  0.00    +0.000 C 
ATOM     12  C   UNL     1       6.183   3.424  15.312  0.00  0.00    +0.000 C 
ENDROOT
BRANCH   5  13
ATOM     13  C   UNL     1       6.971   6.415  17.783  0.00  0.00    +0.000 C 
ATOM     14  C   UNL     1       7.891   7.640  17.870  0.00  0.00    +0.000 C 
ATOM     15  C   UNL     1       7.097   5.705  19.143  0.00  0.00    +0.000 C 
ENDBRANCH   5  13
BRANCH   8  16
ATOM     16  N   UNL     1       3.497   3.080  18.775  0.00  0.00    +0.000 NA
ATOM     17  C   UNL     1       3.006   2.975  19.834  0.00  0.00    +0.000 C 
ATOM     18  S   UNL     1       2.316   2.798  21.260  0.00  0.00    +0.000 S 
ENDBRANCH   8  16
TORSDOF 2
ENDMDL
MODEL 4
REMARK VINA RESULT:      -5.6      2.763      5.306
REMARK  Name = 
REMARK  6 active torsions:
REMARK  status: ('A' for Active; 'I' for Inactive)
REMARK    1  A    between atoms: C_1  and  C_2
REMARK    2  A    between atoms: C_5  and  C_6
REMARK    3  A    between atoms: C_6  and  C_7
REMARK    4  A    between atoms: C_6  and  C_8
REMARK    5  A    between atoms: C_11  and  C_12
REMARK    6  A    between atoms: C_11  and  N_13
REMARK                            x       y       z     vdW  Elec       q    Type
REMARK                         _______ _______ _______ _____ _____    ______ ____
ROOT
ATOM      1  C   UNL     1       8.059   8.431  17.524  0.00  0.00    +0.000 C 
ATOM      2  C   UNL     1       7.042   7.326  17.582  0.00  0.00    +0.000 C 
ATOM      3  C   UNL     1       7.414   6.034  17.600  0.00  0.00    +0.000 C 
ATOM      4  C   UNL     1       6.439   4.890  17.554  0.00  0.00    +0.000 C 
ATOM      5  C   UNL     1       6.454   4.106  16.189  0.00  0.00    +0.000 C 
ATOM      6  C   UNL     1       5.491   2.910  16.359  0.00  0.00    +0.000 C 
ATOM      7  C   UNL     1       4.078   3.356  16.734  0.00  0.00    +0.000 C 
ATOM      8  C   UNL     1       4.014   4.136  18.071  0.00  0.00    +0.000 C 
ATOM      9  C   UNL     1       4.318   3.148  19.231  0.00  0.00    +0.000 C 
ATOM     10  C   UNL     1       5.033   5.323  18.073  0.00  0.00    +0.000 C 
ATOM     11  C   UNL     1       4.579   6.605  17.347  0.00  0.00    +0.000 C 
ATOM     12  C   UNL     1       5.595   7.749  17.503  0.00  0.00    +0.000 C 
ENDROOT
BRANCH   5  13
ATOM     13  C   UNL     1       6.185   4.880  14.839  0.00  0.00    +0.000 C 
ATOM     14  C   UNL     1       7.440   5.372  14.106  0.00  0.00    +0.000 C 
ATOM     15  C   UNL     1       5.410   4.033  13.812  0.00  0.00    +0.000 C 
ENDBRANCH   5  13
BRANCH   8  16
ATOM     16  N   UNL     1       2.604   4.602  18.196  0.00  0.00    +0.000 NA
ATOM     17  C   UNL     1       1.774   3.828  18.492  0.00  0.00    +0.000 C 
ATOM     18  S   UNL     1       0.631   2.805  18.924  0.00  0.00    +0.000 S 
ENDBRANCH   8  16
TORSDOF 2
ENDMDL
MODEL 5
REMARK VINA RESULT:      -5.6      8.939     10.628
REMARK  Name = 
REMARK  6 active torsions:
REMARK  status: ('A' for Active; 'I' for Inactive)
REMARK    1  A    between atoms: C_1  and  C_2
REMARK    2  A    between atoms: C_5  and  C_6
REMARK    3  A    between atoms: C_6  and  C_7
REMARK    4  A    between atoms: C_6  and  C_8
REMARK    5  A    between atoms: C_11  and  C_12
REMARK    6  A    between atoms: C_11  and  N_13
REMARK                            x       y       z     vdW  Elec       q    Type
REMARK                         _______ _______ _______ _____ _____    ______ ____
ROOT
ATOM      1  C   UNL     1       8.300   8.943  18.130  0.00  0.00    +0.000 C 
ATOM      2  C   UNL     1       8.887  10.322  18.241  0.00  0.00    +0.000 C 
ATOM      3  C   UNL     1       9.926  10.576  19.055  0.00  0.00    +0.000 C 
ATOM      4  C   UNL     1      10.485  11.953  19.281  0.00  0.00    +0.000 C 
ATOM      5  C   UNL     1      10.179  12.528  20.713  0.00  0.00    +0.000 C 
ATOM      6  C   UNL     1      10.918  13.881  20.810  0.00  0.00    +0.000 C 
ATOM      7  C   UNL     1      10.487  14.854  19.712  0.00  0.00    +0.000 C 
ATOM      8  C   UNL     1      10.767  14.328  18.282  0.00  0.00    +0.000 C 
ATOM      9  C   UNL     1      12.304  14.306  18.058  0.00  0.00    +0.000 C 
ATOM     10  C   UNL     1      10.159  12.900  18.085  0.00  0.00    +0.000 C 
ATOM     11  C   UNL     1       8.651  12.844  17.770  0.00  0.00    +0.000 C 
ATOM     12  C   UNL     1       8.173  11.412  17.478  0.00  0.00    +0.000 C 
ENDROOT
BRANCH   5  13
ATOM     13  C   UNL     1       8.683  12.648  21.205  0.00  0.00    +0.000 C 
ATOM     14  C   UNL     1       8.311  11.749  22.392  0.00  0.00    +0.000 C 
ATOM     15  C   UNL     1       8.311  14.078  21.636  0.00  0.00    +0.000 C 
ENDBRANCH   5  13
BRANCH   8  16
ATOM     16  N   UNL     1      10.163  15.331  17.361  0.00  0.00    +0.000 NA
ATOM     17  C   UNL     1      10.526  16.444  17.415  0.00  0.00    +0.000 C 
ATOM     18  S   UNL     1      11.023  17.958  17.447  0.00  0.00    +0.000 S 
ENDBRANCH   8  16
TORSDOF 2
ENDMDL
MODEL 6
REMARK VINA RESULT:      -5.5      3.146      5.225
REMARK  Name = 
REMARK  6 active torsions:
REMARK  status: ('A' for Active; 'I' for Inactive)
REMARK    1  A    between atoms: C_1  and  C_2
REMARK    2  A    between atoms: C_5  and  C_6
REMARK    3  A    between atoms: C_6  and  C_7
REMARK    4  A    between atoms: C_6  and  C_8
REMARK    5  A    between atoms: C_11  and  C_12
REMARK    6  A    between atoms: C_11  and  N_13
REMARK                            x       y       z     vdW  Elec       q    Type
REMARK                         _______ _______ _______ _____ _____    ______ ____
ROOT
ATOM      1  C   UNL     1       7.986   4.939  18.176  0.00  0.00    +0.000 C 
ATOM      2  C   UNL     1       6.540   5.329  18.308  0.00  0.00    +0.000 C 
ATOM      3  C   UNL     1       5.813   4.961  19.377  0.00  0.00    +0.000 C 
ATOM      4  C   UNL     1       4.341   5.234  19.512  0.00  0.00    +0.000 C 
ATOM      5  C   UNL     1       3.448   3.944  19.390  0.00  0.00    +0.000 C 
ATOM      6  C   UNL     1       1.994   4.388  19.667  0.00  0.00    +0.000 C 
ATOM      7  C   UNL     1       1.532   5.481  18.704  0.00  0.00    +0.000 C 
ATOM      8  C   UNL     1       2.384   6.772  18.786  0.00  0.00    +0.000 C 
ATOM      9  C   UNL     1       2.107   7.459  20.152  0.00  0.00    +0.000 C 
ATOM     10  C   UNL     1       3.906   6.446  18.629  0.00  0.00    +0.000 C 
ATOM     11  C   UNL     1       4.411   6.249  17.186  0.00  0.00    +0.000 C 
ATOM     12  C   UNL     1       5.934   6.049  17.128  0.00  0.00    +0.000 C 
ENDROOT
BRANCH   5  13
ATOM     13  C   UNL     1       3.543   3.045  18.095  0.00  0.00    +0.000 C 
ATOM     14  C   UNL     1       3.613   1.534  18.352  0.00  0.00    +0.000 C 
ATOM     15  C   UNL     1       2.353   3.249  17.140  0.00  0.00    +0.000 C 
ENDBRANCH   5  13
BRANCH   8  16
ATOM     16  N   UNL     1       1.881   7.655  17.696  0.00  0.00    +0.000 NA
ATOM     17  C   UNL     1       1.800   8.808  17.890  0.00  0.00    +0.000 C 
ATOM     18  S   UNL     1       1.710  10.383  18.116  0.00  0.00    +0.000 S 
ENDBRANCH   8  16
TORSDOF 2
ENDMDL
MODEL 7
REMARK VINA RESULT:      -5.4      3.009      4.840
REMARK  Name = 
REMARK  6 active torsions:
REMARK  status: ('A' for Active; 'I' for Inactive)
REMARK    1  A    between atoms: C_1  and  C_2
REMARK    2  A    between atoms: C_5  and  C_6
REMARK    3  A    between atoms: C_6  and  C_7
REMARK    4  A    between atoms: C_6  and  C_8
REMARK    5  A    between atoms: C_11  and  C_12
REMARK    6  A    between atoms: C_11  and  N_13
REMARK                            x       y       z     vdW  Elec       q    Type
REMARK                         _______ _______ _______ _____ _____    ______ ____
ROOT
ATOM      1  C   UNL     1       7.471   6.759  17.016  0.00  0.00    +0.000 C 
ATOM      2  C   UNL     1       6.371   5.912  17.593  0.00  0.00    +0.000 C 
ATOM      3  C   UNL     1       5.287   5.586  16.868  0.00  0.00    +0.000 C 
ATOM      4  C   UNL     1       4.114   4.831  17.426  0.00  0.00    +0.000 C 
ATOM      5  C   UNL     1       2.820   5.712  17.593  0.00  0.00    +0.000 C 
ATOM      6  C   UNL     1       1.697   4.760  18.059  0.00  0.00    +0.000 C 
ATOM      7  C   UNL     1       2.054   4.039  19.359  0.00  0.00    +0.000 C 
ATOM      8  C   UNL     1       3.325   3.160  19.244  0.00  0.00    +0.000 C 
ATOM      9  C   UNL     1       3.003   1.949  18.325  0.00  0.00    +0.000 C 
ATOM     10  C   UNL     1       4.524   3.985  18.672  0.00  0.00    +0.000 C 
ATOM     11  C   UNL     1       5.277   4.874  19.682  0.00  0.00    +0.000 C 
ATOM     12  C   UNL     1       6.504   5.553  19.053  0.00  0.00    +0.000 C 
ENDROOT
BRANCH   5  13
ATOM     13  C   UNL     1       2.874   7.021  18.474  0.00  0.00    +0.000 C 
ATOM     14  C   UNL     1       2.300   8.280  17.810  0.00  0.00    +0.000 C 
ATOM     15  C   UNL     1       2.116   6.874  19.806  0.00  0.00    +0.000 C 
ENDBRANCH   5  13
BRANCH   8  16
ATOM     16  N   UNL     1       3.591   2.657  20.621  0.00  0.00    +0.000 NA
ATOM     17  C   UNL     1       4.366   1.791  20.770  0.00  0.00    +0.000 C 
ATOM     18  S   UNL     1       5.438   0.635  21.005  0.00  0.00    +0.000 S 
ENDBRANCH   8  16
TORSDOF 2
ENDMDL
MODEL 8
REMARK VINA RESULT:      -5.4      3.034      5.147
REMARK  Name = 
REMARK  6 active torsions:
REMARK  status: ('A' for Active; 'I' for Inactive)
REMARK    1  A    between atoms: C_1  and  C_2
REMARK    2  A    between atoms: C_5  and  C_6
REMARK    3  A    between atoms: C_6  and  C_7
REMARK    4  A    between atoms: C_6  and  C_8
REMARK    5  A    between atoms: C_11  and  C_12
REMARK    6  A    between atoms: C_11  and  N_13
REMARK                            x       y       z     vdW  Elec       q    Type
REMARK                         _______ _______ _______ _____ _____    ______ ____
ROOT
ATOM      1  C   UNL     1       6.667   4.440  13.673  0.00  0.00    +0.000 C 
ATOM      2  C   UNL     1       5.776   4.473  14.884  0.00  0.00    +0.000 C 
ATOM      3  C   UNL     1       5.525   5.622  15.536  0.00  0.00    +0.000 C 
ATOM      4  C   UNL     1       4.727   5.695  16.808  0.00  0.00    +0.000 C 
ATOM      5  C   UNL     1       5.597   6.030  18.076  0.00  0.00    +0.000 C 
ATOM      6  C   UNL     1       4.612   6.181  19.256  0.00  0.00    +0.000 C 
ATOM      7  C   UNL     1       3.770   4.923  19.470  0.00  0.00    +0.000 C 
ATOM      8  C   UNL     1       2.899   4.552  18.245  0.00  0.00    +0.000 C 
ATOM      9  C   UNL     1       1.781   5.620  18.095  0.00  0.00    +0.000 C 
ATOM     10  C   UNL     1       3.767   4.473  16.946  0.00  0.00    +0.000 C 
ATOM     11  C   UNL     1       4.554   3.164  16.736  0.00  0.00    +0.000 C 
ATOM     12  C   UNL     1       5.281   3.137  15.382  0.00  0.00    +0.000 C 
ENDROOT
BRANCH   5  13
ATOM     13  C   UNL     1       6.818   5.104  18.455  0.00  0.00    +0.000 C 
ATOM     14  C   UNL     1       7.804   4.821  17.314  0.00  0.00    +0.000 C 
ATOM     15  C   UNL     1       7.667   5.679  19.604  0.00  0.00    +0.000 C 
ENDBRANCH   5  13
BRANCH   8  16
ATOM     16  N   UNL     1       2.269   3.244  18.583  0.00  0.00    +0.000 NA
ATOM     17  C   UNL     1       1.953   3.035  19.692  0.00  0.00    +0.000 C 
ATOM     18  S   UNL     1       1.485   2.736  21.186  0.00  0.00    +0.000 S 
ENDBRANCH   8  16
TORSDOF 2
ENDMDL
MODEL 9
REMARK VINA RESULT:      -5.3      3.858      5.327
REMARK  Name = 
REMARK  6 active torsions:
REMARK  status: ('A' for Active; 'I' for Inactive)
REMARK    1  A    between atoms: C_1  and  C_2
REMARK    2  A    between atoms: C_5  and  C_6
REMARK    3  A    between atoms: C_6  and  C_7
REMARK    4  A    between atoms: C_6  and  C_8
REMARK    5  A    between atoms: C_11  and  C_12
REMARK    6  A    between atoms: C_11  and  N_13
REMARK                            x       y       z     vdW  Elec       q    Type
REMARK                         _______ _______ _______ _____ _____    ______ ____
ROOT
ATOM      1  C   UNL     1       0.693   1.792  19.059  0.00  0.00    +0.000 C 
ATOM      2  C   UNL     1       1.162   3.220  19.017  0.00  0.00    +0.000 C 
ATOM      3  C   UNL     1       1.644   3.763  17.886  0.00  0.00    +0.000 C 
ATOM      4  C   UNL     1       2.220   5.150  17.813  0.00  0.00    +0.000 C 
ATOM      5  C   UNL     1       3.781   5.173  17.611  0.00  0.00    +0.000 C 
ATOM      6  C   UNL     1       4.180   6.655  17.442  0.00  0.00    +0.000 C 
ATOM      7  C   UNL     1       3.758   7.507  18.640  0.00  0.00    +0.000 C 
ATOM      8  C   UNL     1       2.228   7.512  18.880  0.00  0.00    +0.000 C 
ATOM      9  C   UNL     1       1.551   8.295  17.721  0.00  0.00    +0.000 C 
ATOM     10  C   UNL     1       1.672   6.053  18.962  0.00  0.00    +0.000 C 
ATOM     11  C   UNL     1       1.843   5.337  20.317  0.00  0.00    +0.000 C 
ATOM     12  C   UNL     1       1.164   3.958  20.333  0.00  0.00    +0.000 C 
ENDROOT
BRANCH   5  13
ATOM     13  C   UNL     1       4.715   4.435  18.648  0.00  0.00    +0.000 C 
ATOM     14  C   UNL     1       4.621   2.903  18.639  0.00  0.00    +0.000 C 
ATOM     15  C   UNL     1       6.206   4.760  18.443  0.00  0.00    +0.000 C 
ENDBRANCH   5  13
BRANCH   8  16
ATOM     16  N   UNL     1       2.024   8.266  20.149  0.00  0.00    +0.000 NA
ATOM     17  C   UNL     1       1.130   9.020  20.225  0.00  0.00    +0.000 C 
ATOM     18  S   UNL     1      -0.096  10.029  20.367  0.00  0.00    +0.000 S 
ENDBRANCH   8  16
TORSDOF 2
ENDMDL
