MODEL 1
REMARK VINA RESULT:      -8.5      0.000      0.000
REMARK  Name = 
REMARK  4 active torsions:
REMARK  status: ('A' for Active; 'I' for Inactive)
REMARK    1  A    between atoms: C_7  and  C_8
REMARK    2  A    between atoms: N_9  and  C_10
REMARK    3  A    between atoms: C_15  and  N_16
REMARK    4  A    between atoms: N_16  and  C_17
REMARK                            x       y       z     vdW  Elec       q    Type
REMARK                         _______ _______ _______ _____ _____    ______ ____
ROOT
ATOM      1  C   UNL     1       4.773   5.809  17.096  0.00  0.00    +0.000 A 
ATOM      2  C   UNL     1       5.202   6.267  15.839  0.00  0.00    +0.000 A 
ATOM      3  C   UNL     1       5.769   5.391  14.921  0.00  0.00    +0.000 A 
ATOM      4  C   UNL     1       5.869   4.063  15.273  0.00  0.00    +0.000 A 
ATOM      5  N   UNL     1       5.459   3.573  16.458  0.00  0.00    +0.000 NA
ATOM      6  C   UNL     1       4.904   4.427  17.360  0.00  0.00    +0.000 A 
ENDROOT
BRANCH   1   8
ATOM      7  C   UNL     1       2.992   7.162  17.717  0.00  0.00    +0.000 C 
ATOM      8  N   UNL     1       4.174   6.706  18.020  0.00  0.00    +0.000 NA
BRANCH   7  15
ATOM      9 CL   UNL     1      -0.795  12.151  22.384  0.00  0.00    +0.000 Cl
ATOM     10  C   UNL     1      -0.002  10.795  21.677  0.00  0.00    +0.000 A 
ATOM     11  C   UNL     1       0.347   9.711  22.478  0.00  0.00    +0.000 A 
ATOM     12  C   UNL     1       1.009   8.611  21.921  0.00  0.00    +0.000 A 
ATOM     13  C   UNL     1       1.331   8.605  20.547  0.00  0.00    +0.000 A 
ATOM     14  N   UNL     1       2.013   7.607  19.872  0.00  0.00    +0.000 NA
ATOM     15  C   UNL     1       2.181   7.958  18.613  0.00  0.00    +0.000 A 
ATOM     16  S   UNL     1       1.475   9.439  18.144  0.00  0.00    +0.000 S 
ATOM     17  C   UNL     1       0.959   9.705  19.767  0.00  0.00    +0.000 A 
ATOM     18  C   UNL     1       0.286  10.811  20.310  0.00  0.00    +0.000 A 
ENDBRANCH   7  15
ENDBRANCH   1   8
BRANCH   6  19
ATOM     19  N   UNL     1       4.512   3.925  18.618  0.00  0.00    +0.000 N 
ATOM     20  H   UNL     1       5.270   3.848  19.278  0.00  0.00    +0.000 HD
BRANCH  19  21
ATOM     21  C   UNL     1       3.211   3.643  19.071  0.00  0.00    +0.000 A 
ATOM     22  C   UNL     1       2.318   2.902  18.286  0.00  0.00    +0.000 A 
ATOM     23  C   UNL     1       1.041   2.583  18.739  0.00  0.00    +0.000 A 
ATOM     24  C   UNL     1       0.610   3.046  19.978  0.00  0.00    +0.000 A 
ATOM     25  C   UNL     1       1.454   3.840  20.750  0.00  0.00    +0.000 A 
ATOM     26  C   UNL     1       2.749   4.138  20.297  0.00  0.00    +0.000 A 
ENDBRANCH  19  21
ENDBRANCH   6  19
TORSDOF 4
ENDMDL
MODEL 2
REMARK VINA RESULT:      -8.2      0.442      1.017
REMARK  Name = 
REMARK  4 active torsions:
REMARK  status: ('A' for Active; 'I' for Inactive)
REMARK    1  A    between atoms: C_7  and  C_8
REMARK    2  A    between atoms: N_9  and  C_10
REMARK    3  A    between atoms: C_15  and  N_16
REMARK    4  A    between atoms: N_16  and  C_17
REMARK                            x       y       z     vdW  Elec       q    Type
REMARK                         _______ _______ _______ _____ _____    ______ ____
ROOT
ATOM      1  C   UNL     1       4.675   6.169  17.221  0.00  0.00    +0.000 A 
ATOM      2  C   UNL     1       5.026   6.558  15.917  0.00  0.00    +0.000 A 
ATOM      3  C   UNL     1       5.604   5.650  15.038  0.00  0.00    +0.000 A 
ATOM      4  C   UNL     1       5.793   4.358  15.476  0.00  0.00    +0.000 A 
ATOM      5  N   UNL     1       5.459   3.933  16.710  0.00  0.00    +0.000 NA
ATOM      6  C   UNL     1       4.894   4.818  17.574  0.00  0.00    +0.000 A 
ENDROOT
BRANCH   1   8
ATOM      7  C   UNL     1       2.825   7.416  17.863  0.00  0.00    +0.000 C 
ATOM      8  N   UNL     1       4.064   7.096  18.107  0.00  0.00    +0.000 NA
BRANCH   7  15
ATOM      9 CL   UNL     1      -0.931  12.434  22.523  0.00  0.00    +0.000 Cl
ATOM     10  C   UNL     1      -0.175  11.064  21.805  0.00  0.00    +0.000 A 
ATOM     11  C   UNL     1       0.077   9.935  22.581  0.00  0.00    +0.000 A 
ATOM     12  C   UNL     1       0.708   8.822  22.016  0.00  0.00    +0.000 A 
ATOM     13  C   UNL     1       1.099   8.846  20.660  0.00  0.00    +0.000 A 
ATOM     14  N   UNL     1       1.762   7.837  19.983  0.00  0.00    +0.000 NA
ATOM     15  C   UNL     1       2.012   8.222  18.747  0.00  0.00    +0.000 A 
ATOM     16  S   UNL     1       1.408   9.755  18.301  0.00  0.00    +0.000 S 
ATOM     17  C   UNL     1       0.825   9.991  19.904  0.00  0.00    +0.000 A 
ATOM     18  C   UNL     1       0.183  11.111  20.455  0.00  0.00    +0.000 A 
ENDBRANCH   7  15
ENDBRANCH   1   8
BRANCH   6  19
ATOM     19  N   UNL     1       4.582   4.387  18.880  0.00  0.00    +0.000 N 
ATOM     20  H   UNL     1       5.315   4.562  19.550  0.00  0.00    +0.000 HD
BRANCH  19  21
ATOM     21  C   UNL     1       3.363   3.870  19.354  0.00  0.00    +0.000 A 
ATOM     22  C   UNL     1       2.646   4.523  20.365  0.00  0.00    +0.000 A 
ATOM     23  C   UNL     1       1.421   4.044  20.816  0.00  0.00    +0.000 A 
ATOM     24  C   UNL     1       0.905   2.862  20.294  0.00  0.00    +0.000 A 
ATOM     25  C   UNL     1       1.629   2.157  19.334  0.00  0.00    +0.000 A 
ATOM     26  C   UNL     1       2.853   2.660  18.868  0.00  0.00    +0.000 A 
ENDBRANCH  19  21
ENDBRANCH   6  19
TORSDOF 4
ENDMDL
MODEL 3
REMARK VINA RESULT:      -8.2      1.032      1.667
REMARK  Name = 
REMARK  4 active torsions:
REMARK  status: ('A' for Active; 'I' for Inactive)
REMARK    1  A    between atoms: C_7  and  C_8
REMARK    2  A    between atoms: N_9  and  C_10
REMARK    3  A    between atoms: C_15  and  N_16
REMARK    4  A    between atoms: N_16  and  C_17
REMARK                            x       y       z     vdW  Elec       q    Type
REMARK                         _______ _______ _______ _____ _____    ______ ____
ROOT
ATOM      1  C   UNL     1       5.011   5.522  16.820  0.00  0.00    +0.000 A 
ATOM      2  C   UNL     1       5.377   6.022  15.559  0.00  0.00    +0.000 A 
ATOM      3  C   UNL     1       5.847   5.170  14.567  0.00  0.00    +0.000 A 
ATOM      4  C   UNL     1       5.914   3.824  14.852  0.00  0.00    +0.000 A 
ATOM      5  N   UNL     1       5.561   3.294  16.039  0.00  0.00    +0.000 NA
ATOM      6  C   UNL     1       5.102   4.125  17.013  0.00  0.00    +0.000 A 
ENDROOT
BRANCH   1   8
ATOM      7  C   UNL     1       3.290   6.824  17.674  0.00  0.00    +0.000 C 
ATOM      8  N   UNL     1       4.511   6.396  17.822  0.00  0.00    +0.000 NA
BRANCH   7  15
ATOM      9 CL   UNL     1      -1.139  10.260  23.113  0.00  0.00    +0.000 Cl
ATOM     10  C   UNL     1      -0.189   9.871  21.730  0.00  0.00    +0.000 A 
ATOM     11  C   UNL     1      -0.175  10.741  20.643  0.00  0.00    +0.000 A 
ATOM     12  C   UNL     1       0.577  10.429  19.505  0.00  0.00    +0.000 A 
ATOM     13  C   UNL     1       1.316   9.227  19.456  0.00  0.00    +0.000 A 
ATOM     14  N   UNL     1       2.070   8.774  18.388  0.00  0.00    +0.000 NA
ATOM     15  C   UNL     1       2.579   7.592  18.673  0.00  0.00    +0.000 A 
ATOM     16  S   UNL     1       2.262   6.995  20.240  0.00  0.00    +0.000 S 
ATOM     17  C   UNL     1       1.288   8.378  20.568  0.00  0.00    +0.000 A 
ATOM     18  C   UNL     1       0.546   8.683  21.720  0.00  0.00    +0.000 A 
ENDBRANCH   7  15
ENDBRANCH   1   8
BRANCH   6  19
ATOM     19  N   UNL     1       4.771   3.579  18.270  0.00  0.00    +0.000 N 
ATOM     20  H   UNL     1       5.569   3.421  18.866  0.00  0.00    +0.000 HD
BRANCH  19  21
ATOM     21  C   UNL     1       3.491   3.352  18.806  0.00  0.00    +0.000 A 
ATOM     22  C   UNL     1       3.293   3.274  20.191  0.00  0.00    +0.000 A 
ATOM     23  C   UNL     1       2.026   3.088  20.737  0.00  0.00    +0.000 A 
ATOM     24  C   UNL     1       0.928   2.927  19.899  0.00  0.00    +0.000 A 
ATOM     25  C   UNL     1       1.107   2.935  18.518  0.00  0.00    +0.000 A 
ATOM     26  C   UNL     1       2.384   3.146  17.975  0.00  0.00    +0.000 A 
ENDBRANCH  19  21
ENDBRANCH   6  19
TORSDOF 4
ENDMDL
MODEL 4
REMARK VINA RESULT:      -8.1      0.880      1.101
REMARK  Name = 
REMARK  4 active torsions:
REMARK  status: ('A' for Active; 'I' for Inactive)
REMARK    1  A    between atoms: C_7  and  C_8
REMARK    2  A    between atoms: N_9  and  C_10
REMARK    3  A    between atoms: C_15  and  N_16
REMARK    4  A    between atoms: N_16  and  C_17
REMARK                            x       y       z     vdW  Elec       q    Type
REMARK                         _______ _______ _______ _____ _____    ______ ____
ROOT
ATOM      1  C   UNL     1       4.770   5.738  17.544  0.00  0.00    +0.000 A 
ATOM      2  C   UNL     1       6.015   6.215  17.100  0.00  0.00    +0.000 A 
ATOM      3  C   UNL     1       6.767   5.487  16.186  0.00  0.00    +0.000 A 
ATOM      4  C   UNL     1       6.241   4.306  15.712  0.00  0.00    +0.000 A 
ATOM      5  N   UNL     1       5.047   3.815  16.094  0.00  0.00    +0.000 NA
ATOM      6  C   UNL     1       4.308   4.523  16.990  0.00  0.00    +0.000 A 
ENDROOT
BRANCH   1   8
ATOM      7  C   UNL     1       3.158   7.357  17.955  0.00  0.00    +0.000 C 
ATOM      8  N   UNL     1       3.996   6.498  18.461  0.00  0.00    +0.000 NA
BRANCH   7  15
ATOM      9 CL   UNL     1      -1.534  12.096  22.021  0.00  0.00    +0.000 Cl
ATOM     10  C   UNL     1      -0.542  10.807  21.456  0.00  0.00    +0.000 A 
ATOM     11  C   UNL     1      -0.150   9.806  22.340  0.00  0.00    +0.000 A 
ATOM     12  C   UNL     1       0.672   8.762  21.899  0.00  0.00    +0.000 A 
ATOM     13  C   UNL     1       1.111   8.730  20.558  0.00  0.00    +0.000 A 
ATOM     14  N   UNL     1       1.952   7.786  19.996  0.00  0.00    +0.000 NA
ATOM     15  C   UNL     1       2.191   8.097  18.737  0.00  0.00    +0.000 A 
ATOM     16  S   UNL     1       1.374   9.468  18.134  0.00  0.00    +0.000 S 
ATOM     17  C   UNL     1       0.694   9.747  19.692  0.00  0.00    +0.000 A 
ATOM     18  C   UNL     1      -0.139  10.794  20.118  0.00  0.00    +0.000 A 
ENDBRANCH   7  15
ENDBRANCH   1   8
BRANCH   6  19
ATOM     19  N   UNL     1       3.076   3.992  17.423  0.00  0.00    +0.000 N 
ATOM     20  H   UNL     1       2.450   3.752  16.669  0.00  0.00    +0.000 HD
BRANCH  19  21
ATOM     21  C   UNL     1       2.686   3.663  18.734  0.00  0.00    +0.000 A 
ATOM     22  C   UNL     1       1.444   4.067  19.240  0.00  0.00    +0.000 A 
ATOM     23  C   UNL     1       1.030   3.716  20.521  0.00  0.00    +0.000 A 
ATOM     24  C   UNL     1       1.878   2.987  21.348  0.00  0.00    +0.000 A 
ATOM     25  C   UNL     1       3.145   2.627  20.892  0.00  0.00    +0.000 A 
ATOM     26  C   UNL     1       3.546   2.966  19.590  0.00  0.00    +0.000 A 
ENDBRANCH  19  21
ENDBRANCH   6  19
TORSDOF 4
ENDMDL
MODEL 5
REMARK VINA RESULT:      -7.9      3.792      8.352
REMARK  Name = 
REMARK  4 active torsions:
REMARK  status: ('A' for Active; 'I' for Inactive)
REMARK    1  A    between atoms: C_7  and  C_8
REMARK    2  A    between atoms: N_9  and  C_10
REMARK    3  A    between atoms: C_15  and  N_16
REMARK    4  A    between atoms: N_16  and  C_17
REMARK                            x       y       z     vdW  Elec       q    Type
REMARK                         _______ _______ _______ _____ _____    ______ ____
ROOT
ATOM      1  C   UNL     1       0.573   9.624  21.031  0.00  0.00    +0.000 A 
ATOM      2  C   UNL     1       0.671   9.120  22.338  0.00  0.00    +0.000 A 
ATOM      3  C   UNL     1      -0.122   9.633  23.357  0.00  0.00    +0.000 A 
ATOM      4  C   UNL     1      -1.021  10.627  23.037  0.00  0.00    +0.000 A 
ATOM      5  N   UNL     1      -1.162  11.133  21.797  0.00  0.00    +0.000 NA
ATOM      6  C   UNL     1      -0.387  10.634  20.797  0.00  0.00    +0.000 A 
ENDROOT
BRANCH   1   8
ATOM      7  C   UNL     1       1.795   7.858  20.150  0.00  0.00    +0.000 C 
ATOM      8  N   UNL     1       1.371   9.080  19.989  0.00  0.00    +0.000 NA
BRANCH   7  15
ATOM      9 CL   UNL     1       6.004   3.398  15.313  0.00  0.00    +0.000 Cl
ATOM     10  C   UNL     1       5.171   4.678  16.108  0.00  0.00    +0.000 A 
ATOM     11  C   UNL     1       5.394   5.993  15.707  0.00  0.00    +0.000 A 
ATOM     12  C   UNL     1       4.738   7.045  16.357  0.00  0.00    +0.000 A 
ATOM     13  C   UNL     1       3.858   6.773  17.427  0.00  0.00    +0.000 A 
ATOM     14  N   UNL     1       3.175   7.711  18.181  0.00  0.00    +0.000 NA
ATOM     15  C   UNL     1       2.486   7.104  19.126  0.00  0.00    +0.000 A 
ATOM     16  S   UNL     1       2.545   5.398  19.122  0.00  0.00    +0.000 S 
ATOM     17  C   UNL     1       3.649   5.442  17.800  0.00  0.00    +0.000 A 
ATOM     18  C   UNL     1       4.292   4.375  17.151  0.00  0.00    +0.000 A 
ENDBRANCH   7  15
ENDBRANCH   1   8
BRANCH   6  19
ATOM     19  N   UNL     1      -0.504  11.190  19.506  0.00  0.00    +0.000 N 
ATOM     20  H   UNL     1       0.303  11.722  19.220  0.00  0.00    +0.000 HD
BRANCH  19  21
ATOM     21  C   UNL     1      -1.532  10.992  18.567  0.00  0.00    +0.000 A 
ATOM     22  C   UNL     1      -2.745  11.685  18.668  0.00  0.00    +0.000 A 
ATOM     23  C   UNL     1      -3.755  11.529  17.724  0.00  0.00    +0.000 A 
ATOM     24  C   UNL     1      -3.590  10.630  16.676  0.00  0.00    +0.000 A 
ATOM     25  C   UNL     1      -2.419   9.880  16.588  0.00  0.00    +0.000 A 
ATOM     26  C   UNL     1      -1.395  10.061  17.531  0.00  0.00    +0.000 A 
ENDBRANCH  19  21
ENDBRANCH   6  19
TORSDOF 4
ENDMDL
MODEL 6
REMARK VINA RESULT:      -7.9      0.976      1.480
REMARK  Name = 
REMARK  4 active torsions:
REMARK  status: ('A' for Active; 'I' for Inactive)
REMARK    1  A    between atoms: C_7  and  C_8
REMARK    2  A    between atoms: N_9  and  C_10
REMARK    3  A    between atoms: C_15  and  N_16
REMARK    4  A    between atoms: N_16  and  C_17
REMARK                            x       y       z     vdW  Elec       q    Type
REMARK                         _______ _______ _______ _____ _____    ______ ____
ROOT
ATOM      1  C   UNL     1       4.796   5.858  16.969  0.00  0.00    +0.000 A 
ATOM      2  C   UNL     1       5.216   6.228  15.680  0.00  0.00    +0.000 A 
ATOM      3  C   UNL     1       5.735   5.282  14.805  0.00  0.00    +0.000 A 
ATOM      4  C   UNL     1       5.797   3.973  15.232  0.00  0.00    +0.000 A 
ATOM      5  N   UNL     1       5.394   3.567  16.451  0.00  0.00    +0.000 NA
ATOM      6  C   UNL     1       4.886   4.490  17.311  0.00  0.00    +0.000 A 
ENDROOT
BRANCH   1   8
ATOM      7  C   UNL     1       3.167   7.439  17.454  0.00  0.00    +0.000 C 
ATOM      8  N   UNL     1       4.246   6.827  17.851  0.00  0.00    +0.000 NA
BRANCH   7  15
ATOM      9 CL   UNL     1      -1.613  11.602  22.017  0.00  0.00    +0.000 Cl
ATOM     10  C   UNL     1      -0.552  11.031  20.787  0.00  0.00    +0.000 A 
ATOM     11  C   UNL     1      -0.396  11.772  19.618  0.00  0.00    +0.000 A 
ATOM     12  C   UNL     1       0.448  11.311  18.602  0.00  0.00    +0.000 A 
ATOM     13  C   UNL     1       1.136  10.088  18.758  0.00  0.00    +0.000 A 
ATOM     14  N   UNL     1       1.969   9.495  17.826  0.00  0.00    +0.000 NA
ATOM     15  C   UNL     1       2.397   8.337  18.287  0.00  0.00    +0.000 A 
ATOM     16  S   UNL     1       1.905   7.929  19.870  0.00  0.00    +0.000 S 
ATOM     17  C   UNL     1       0.965   9.371  19.947  0.00  0.00    +0.000 A 
ATOM     18  C   UNL     1       0.129   9.827  20.979  0.00  0.00    +0.000 A 
ENDBRANCH   7  15
ENDBRANCH   1   8
BRANCH   6  19
ATOM     19  N   UNL     1       4.502   4.075  18.603  0.00  0.00    +0.000 N 
ATOM     20  H   UNL     1       5.253   4.095  19.275  0.00  0.00    +0.000 HD
BRANCH  19  21
ATOM     21  C   UNL     1       3.210   3.764  19.065  0.00  0.00    +0.000 A 
ATOM     22  C   UNL     1       2.341   2.975  18.300  0.00  0.00    +0.000 A 
ATOM     23  C   UNL     1       1.076   2.626  18.762  0.00  0.00    +0.000 A 
ATOM     24  C   UNL     1       0.631   3.106  19.989  0.00  0.00    +0.000 A 
ATOM     25  C   UNL     1       1.450   3.946  20.741  0.00  0.00    +0.000 A 
ATOM     26  C   UNL     1       2.734   4.274  20.278  0.00  0.00    +0.000 A 
ENDBRANCH  19  21
ENDBRANCH   6  19
TORSDOF 4
ENDMDL
MODEL 7
REMARK VINA RESULT:      -7.9      1.072      1.347
REMARK  Name = 
REMARK  4 active torsions:
REMARK  status: ('A' for Active; 'I' for Inactive)
REMARK    1  A    between atoms: C_7  and  C_8
REMARK    2  A    between atoms: N_9  and  C_10
REMARK    3  A    between atoms: C_15  and  N_16
REMARK    4  A    between atoms: N_16  and  C_17
REMARK                            x       y       z     vdW  Elec       q    Type
REMARK                         _______ _______ _______ _____ _____    ______ ____
ROOT
ATOM      1  C   UNL     1       4.386   6.161  17.351  0.00  0.00    +0.000 A 
ATOM      2  C   UNL     1       5.630   6.776  17.132  0.00  0.00    +0.000 A 
ATOM      3  C   UNL     1       6.735   6.025  16.747  0.00  0.00    +0.000 A 
ATOM      4  C   UNL     1       6.562   4.671  16.563  0.00  0.00    +0.000 A 
ATOM      5  N   UNL     1       5.387   4.038  16.745  0.00  0.00    +0.000 NA
ATOM      6  C   UNL     1       4.304   4.769  17.122  0.00  0.00    +0.000 A 
ENDROOT
BRANCH   1   8
ATOM      7  C   UNL     1       3.041   7.093  18.997  0.00  0.00    +0.000 C 
ATOM      8  N   UNL     1       3.257   6.938  17.722  0.00  0.00    +0.000 NA
BRANCH   7  15
ATOM      9 CL   UNL     1      -1.836  12.545  21.733  0.00  0.00    +0.000 Cl
ATOM     10  C   UNL     1      -0.848  11.156  21.488  0.00  0.00    +0.000 A 
ATOM     11  C   UNL     1      -0.596  10.298  22.555  0.00  0.00    +0.000 A 
ATOM     12  C   UNL     1       0.220   9.175  22.375  0.00  0.00    +0.000 A 
ATOM     13  C   UNL     1       0.796   8.918  21.112  0.00  0.00    +0.000 A 
ATOM     14  N   UNL     1       1.648   7.874  20.800  0.00  0.00    +0.000 NA
ATOM     15  C   UNL     1       2.032   7.974  19.543  0.00  0.00    +0.000 A 
ATOM     16  S   UNL     1       1.345   9.253  18.647  0.00  0.00    +0.000 S 
ATOM     17  C   UNL     1       0.518   9.795  20.058  0.00  0.00    +0.000 A 
ATOM     18  C   UNL     1      -0.308  10.919  20.222  0.00  0.00    +0.000 A 
ENDBRANCH   7  15
ENDBRANCH   1   8
BRANCH   6  19
ATOM     19  N   UNL     1       3.083   4.103  17.354  0.00  0.00    +0.000 N 
ATOM     20  H   UNL     1       2.586   3.862  16.510  0.00  0.00    +0.000 HD
BRANCH  19  21
ATOM     21  C   UNL     1       2.561   3.650  18.579  0.00  0.00    +0.000 A 
ATOM     22  C   UNL     1       3.404   3.166  19.588  0.00  0.00    +0.000 A 
ATOM     23  C   UNL     1       2.905   2.751  20.818  0.00  0.00    +0.000 A 
ATOM     24  C   UNL     1       1.533   2.767  21.050  0.00  0.00    +0.000 A 
ATOM     25  C   UNL     1       0.667   3.182  20.040  0.00  0.00    +0.000 A 
ATOM     26  C   UNL     1       1.181   3.621  18.810  0.00  0.00    +0.000 A 
ENDBRANCH  19  21
ENDBRANCH   6  19
TORSDOF 4
ENDMDL
MODEL 8
REMARK VINA RESULT:      -7.7      2.024      4.516
REMARK  Name = 
REMARK  4 active torsions:
REMARK  status: ('A' for Active; 'I' for Inactive)
REMARK    1  A    between atoms: C_7  and  C_8
REMARK    2  A    between atoms: N_9  and  C_10
REMARK    3  A    between atoms: C_15  and  N_16
REMARK    4  A    between atoms: N_16  and  C_17
REMARK                            x       y       z     vdW  Elec       q    Type
REMARK                         _______ _______ _______ _____ _____    ______ ____
ROOT
ATOM      1  C   UNL     1       2.651   5.088  20.087  0.00  0.00    +0.000 A 
ATOM      2  C   UNL     1       2.033   4.401  21.146  0.00  0.00    +0.000 A 
ATOM      3  C   UNL     1       2.348   3.074  21.408  0.00  0.00    +0.000 A 
ATOM      4  C   UNL     1       3.300   2.467  20.618  0.00  0.00    +0.000 A 
ATOM      5  N   UNL     1       3.930   3.088  19.602  0.00  0.00    +0.000 NA
ATOM      6  C   UNL     1       3.624   4.386  19.341  0.00  0.00    +0.000 A 
ENDROOT
BRANCH   1   8
ATOM      7  C   UNL     1       1.563   7.046  20.698  0.00  0.00    +0.000 C 
ATOM      8  N   UNL     1       2.340   6.452  19.838  0.00  0.00    +0.000 NA
BRANCH   7  15
ATOM      9 CL   UNL     1      -0.823  14.478  20.958  0.00  0.00    +0.000 Cl
ATOM     10  C   UNL     1      -0.184  12.941  20.517  0.00  0.00    +0.000 A 
ATOM     11  C   UNL     1       0.118  12.683  19.182  0.00  0.00    +0.000 A 
ATOM     12  C   UNL     1       0.620  11.432  18.806  0.00  0.00    +0.000 A 
ATOM     13  C   UNL     1       0.813  10.428  19.780  0.00  0.00    +0.000 A 
ATOM     14  N   UNL     1       1.264   9.141  19.548  0.00  0.00    +0.000 NA
ATOM     15  C   UNL     1       1.273   8.463  20.679  0.00  0.00    +0.000 A 
ATOM     16  S   UNL     1       0.829   9.331  22.079  0.00  0.00    +0.000 S 
ATOM     17  C   UNL     1       0.509  10.722  21.114  0.00  0.00    +0.000 A 
ATOM     18  C   UNL     1       0.013  11.975  21.507  0.00  0.00    +0.000 A 
ENDBRANCH   7  15
ENDBRANCH   1   8
BRANCH   6  19
ATOM     19  N   UNL     1       4.252   5.026  18.252  0.00  0.00    +0.000 N 
ATOM     20  H   UNL     1       3.681   5.067  17.422  0.00  0.00    +0.000 HD
BRANCH  19  21
ATOM     21  C   UNL     1       5.492   5.690  18.234  0.00  0.00    +0.000 A 
ATOM     22  C   UNL     1       5.759   6.693  17.293  0.00  0.00    +0.000 A 
ATOM     23  C   UNL     1       6.966   7.385  17.287  0.00  0.00    +0.000 A 
ATOM     24  C   UNL     1       7.959   7.051  18.201  0.00  0.00    +0.000 A 
ATOM     25  C   UNL     1       7.745   6.013  19.106  0.00  0.00    +0.000 A 
ATOM     26  C   UNL     1       6.515   5.335  19.120  0.00  0.00    +0.000 A 
ENDBRANCH  19  21
ENDBRANCH   6  19
TORSDOF 4
ENDMDL
MODEL 9
REMARK VINA RESULT:      -7.6      1.212      1.862
REMARK  Name = 
REMARK  4 active torsions:
REMARK  status: ('A' for Active; 'I' for Inactive)
REMARK    1  A    between atoms: C_7  and  C_8
REMARK    2  A    between atoms: N_9  and  C_10
REMARK    3  A    between atoms: C_15  and  N_16
REMARK    4  A    between atoms: N_16  and  C_17
REMARK                            x       y       z     vdW  Elec       q    Type
REMARK                         _______ _______ _______ _____ _____    ______ ____
ROOT
ATOM      1  C   UNL     1       4.554   6.403  17.241  0.00  0.00    +0.000 A 
ATOM      2  C   UNL     1       4.976   6.551  15.909  0.00  0.00    +0.000 A 
ATOM      3  C   UNL     1       5.533   5.482  15.218  0.00  0.00    +0.000 A 
ATOM      4  C   UNL     1       5.630   4.272  15.871  0.00  0.00    +0.000 A 
ATOM      5  N   UNL     1       5.227   4.076  17.141  0.00  0.00    +0.000 NA
ATOM      6  C   UNL     1       4.682   5.120  17.821  0.00  0.00    +0.000 A 
ENDROOT
BRANCH   1   8
ATOM      7  C   UNL     1       2.667   7.590  17.887  0.00  0.00    +0.000 C 
ATOM      8  N   UNL     1       3.965   7.494  17.933  0.00  0.00    +0.000 NA
BRANCH   7  15
ATOM      9 CL   UNL     1      -2.018  12.041  22.273  0.00  0.00    +0.000 Cl
ATOM     10  C   UNL     1      -1.029  11.368  21.035  0.00  0.00    +0.000 A 
ATOM     11  C   UNL     1      -1.045  11.933  19.762  0.00  0.00    +0.000 A 
ATOM     12  C   UNL     1      -0.261  11.385  18.741  0.00  0.00    +0.000 A 
ATOM     13  C   UNL     1       0.542  10.253  19.000  0.00  0.00    +0.000 A 
ATOM     14  N   UNL     1       1.334   9.586  18.082  0.00  0.00    +0.000 NA
ATOM     15  C   UNL     1       1.901   8.545  18.658  0.00  0.00    +0.000 A 
ATOM     16  S   UNL     1       1.593   8.348  20.325  0.00  0.00    +0.000 S 
ATOM     17  C   UNL     1       0.543   9.713  20.290  0.00  0.00    +0.000 A 
ATOM     18  C   UNL     1      -0.231  10.259  21.327  0.00  0.00    +0.000 A 
ENDBRANCH   7  15
ENDBRANCH   1   8
BRANCH   6  19
ATOM     19  N   UNL     1       4.297   4.929  19.163  0.00  0.00    +0.000 N 
ATOM     20  H   UNL     1       4.867   5.433  19.825  0.00  0.00    +0.000 HD
BRANCH  19  21
ATOM     21  C   UNL     1       3.176   4.234  19.653  0.00  0.00    +0.000 A 
ATOM     22  C   UNL     1       3.201   3.623  20.914  0.00  0.00    +0.000 A 
ATOM     23  C   UNL     1       2.087   2.967  21.428  0.00  0.00    +0.000 A 
ATOM     24  C   UNL     1       0.930   2.864  20.662  0.00  0.00    +0.000 A 
ATOM     25  C   UNL     1       0.900   3.406  19.379  0.00  0.00    +0.000 A 
ATOM     26  C   UNL     1       2.021   4.087  18.878  0.00  0.00    +0.000 A 
ENDBRANCH  19  21
ENDBRANCH   6  19
TORSDOF 4
ENDMDL
