MODEL 1
REMARK VINA RESULT:      -8.5      0.000      0.000
REMARK  Name = 
REMARK  6 active torsions:
REMARK  status: ('A' for Active; 'I' for Inactive)
REMARK    1  A    between atoms: C_1  and  C_2
REMARK    2  A    between atoms: C_7  and  C_8
REMARK    3  A    between atoms: C_8  and  N_9
REMARK    4  A    between atoms: C_11  and  C_12
REMARK    5  A    between atoms: C_12  and  S_13
REMARK    6  A    between atoms: S_13  and  C_14
REMARK                            x       y       z     vdW  Elec       q    Type
REMARK                         _______ _______ _______ _____ _____    ______ ____
ROOT
ATOM      1  N   UNL     1       1.894   5.222  20.771  0.00  0.00    +0.000 N 
ATOM      2  C   UNL     1       2.940   4.346  20.692  0.00  0.00    +0.000 A 
ATOM      3  C   UNL     1       2.439   3.284  19.965  0.00  0.00    +0.000 A 
ATOM      4  N   UNL     1       1.113   3.529  19.693  0.00  0.00    +0.000 NA
ATOM      5  N   UNL     1       0.796   4.721  20.179  0.00  0.00    +0.000 NA
ENDROOT
BRANCH   1   6
ATOM      6  C   UNL     1       1.895   6.588  21.302  0.00  0.00    +0.000 C 
BRANCH   6  13
ATOM      7  C   UNL     1      -0.382  12.094  18.957  0.00  0.00    +0.000 C 
ATOM      8  C   UNL     1      -0.112  11.028  19.982  0.00  0.00    +0.000 A 
ATOM      9  C   UNL     1      -0.677  11.147  21.257  0.00  0.00    +0.000 A 
ATOM     10  C   UNL     1      -0.469  10.160  22.219  0.00  0.00    +0.000 A 
ATOM     11  C   UNL     1       0.307   9.034  21.918  0.00  0.00    +0.000 A 
ATOM     12  C   UNL     1       0.892   8.881  20.654  0.00  0.00    +0.000 A 
ATOM     13  C   UNL     1       1.729   7.698  20.285  0.00  0.00    +0.000 A 
ATOM     14  C   UNL     1       2.299   7.676  19.069  0.00  0.00    +0.000 A 
ATOM     15  C   UNL     1       2.100   8.756  18.077  0.00  0.00    +0.000 A 
ATOM     16  O   UNL     1       2.628   8.702  16.972  0.00  0.00    +0.000 OA
ATOM     17  N   UNL     1       1.298   9.791  18.445  0.00  0.00    +0.000 N 
ATOM     18  C   UNL     1       0.685   9.903  19.701  0.00  0.00    +0.000 A 
ATOM     19  H   UNL     1       1.187  10.514  17.749  0.00  0.00    +0.000 HD
ENDBRANCH   6  13
ENDBRANCH   1   6
BRANCH   3  20
ATOM     20  C   UNL     1       3.116   2.049  19.465  0.00  0.00    +0.000 C 
BRANCH  20  21
ATOM     21  S   UNL     1       3.611   2.293  17.732  0.00  0.00    +0.000 S 
BRANCH  21  22
ATOM     22  C   UNL     1       4.513   3.756  17.786  0.00  0.00    +0.000 A 
ATOM     23  N   UNL     1       4.270   4.910  17.214  0.00  0.00    +0.000 NA
ATOM     24  C   UNL     1       5.400   5.667  17.473  0.00  0.00    +0.000 A 
ATOM     25  C   UNL     1       5.766   6.943  17.014  0.00  0.00    +0.000 A 
ATOM     26  C   UNL     1       7.011   7.468  17.401  0.00  0.00    +0.000 A 
ATOM     27  C   UNL     1       7.841   6.774  18.286  0.00  0.00    +0.000 A 
ATOM     28  C   UNL     1       7.489   5.510  18.766  0.00  0.00    +0.000 A 
ATOM     29  C   UNL     1       6.288   4.976  18.294  0.00  0.00    +0.000 A 
ATOM     30  N   UNL     1       5.720   3.739  18.422  0.00  0.00    +0.000 N 
ATOM     31  H   UNL     1       6.146   2.920  18.827  0.00  0.00    +0.000 HD
ENDBRANCH  21  22
ENDBRANCH  20  21
ENDBRANCH   3  20
TORSDOF 5
ENDMDL
MODEL 2
REMARK VINA RESULT:      -8.3      2.646      2.999
REMARK  Name = 
REMARK  6 active torsions:
REMARK  status: ('A' for Active; 'I' for Inactive)
REMARK    1  A    between atoms: C_1  and  C_2
REMARK    2  A    between atoms: C_7  and  C_8
REMARK    3  A    between atoms: C_8  and  N_9
REMARK    4  A    between atoms: C_11  and  C_12
REMARK    5  A    between atoms: C_12  and  S_13
REMARK    6  A    between atoms: S_13  and  C_14
REMARK                            x       y       z     vdW  Elec       q    Type
REMARK                         _______ _______ _______ _____ _____    ______ ____
ROOT
ATOM      1  N   UNL     1       2.295   5.491  20.022  0.00  0.00    +0.000 N 
ATOM      2  C   UNL     1       3.638   5.269  19.893  0.00  0.00    +0.000 A 
ATOM      3  C   UNL     1       3.731   4.332  18.882  0.00  0.00    +0.000 A 
ATOM      4  N   UNL     1       2.459   3.985  18.490  0.00  0.00    +0.000 NA
ATOM      5  N   UNL     1       1.592   4.709  19.184  0.00  0.00    +0.000 NA
ENDROOT
BRANCH   1   6
ATOM      6  C   UNL     1       1.619   6.499  20.843  0.00  0.00    +0.000 C 
BRANCH   6  13
ATOM      7  C   UNL     1      -0.430  12.552  20.438  0.00  0.00    +0.000 C 
ATOM      8  C   UNL     1      -0.164  11.217  21.075  0.00  0.00    +0.000 A 
ATOM      9  C   UNL     1      -0.628  10.973  22.372  0.00  0.00    +0.000 A 
ATOM     10  C   UNL     1      -0.422   9.734  22.978  0.00  0.00    +0.000 A 
ATOM     11  C   UNL     1       0.251   8.717  22.290  0.00  0.00    +0.000 A 
ATOM     12  C   UNL     1       0.734   8.924  20.992  0.00  0.00    +0.000 A 
ATOM     13  C   UNL     1       1.460   7.870  20.218  0.00  0.00    +0.000 A 
ATOM     14  C   UNL     1       1.940   8.188  19.005  0.00  0.00    +0.000 A 
ATOM     15  C   UNL     1       1.747   9.523  18.397  0.00  0.00    +0.000 A 
ATOM     16  O   UNL     1       2.191   9.780  17.283  0.00  0.00    +0.000 OA
ATOM     17  N   UNL     1       1.046  10.435  19.124  0.00  0.00    +0.000 N 
ATOM     18  C   UNL     1       0.532  10.193  20.405  0.00  0.00    +0.000 A 
ATOM     19  H   UNL     1       0.937  11.339  18.684  0.00  0.00    +0.000 HD
ENDBRANCH   6  13
ENDBRANCH   1   6
BRANCH   3  20
ATOM     20  C   UNL     1       4.933   3.747  18.215  0.00  0.00    +0.000 C 
BRANCH  20  21
ATOM     21  S   UNL     1       6.146   5.063  17.895  0.00  0.00    +0.000 S 
BRANCH  21  22
ATOM     22  C   UNL     1       6.558   4.821  16.243  0.00  0.00    +0.000 A 
ATOM     23  N   UNL     1       7.478   5.406  15.515  0.00  0.00    +0.000 NA
ATOM     24  C   UNL     1       7.255   4.934  14.233  0.00  0.00    +0.000 A 
ATOM     25  C   UNL     1       7.850   5.296  13.013  0.00  0.00    +0.000 A 
ATOM     26  C   UNL     1       7.397   4.682  11.834  0.00  0.00    +0.000 A 
ATOM     27  C   UNL     1       6.428   3.675  11.872  0.00  0.00    +0.000 A 
ATOM     28  C   UNL     1       5.835   3.289  13.077  0.00  0.00    +0.000 A 
ATOM     29  C   UNL     1       6.241   3.980  14.221  0.00  0.00    +0.000 A 
ATOM     30  N   UNL     1       5.776   3.979  15.507  0.00  0.00    +0.000 N 
ATOM     31  H   UNL     1       4.947   3.518  15.847  0.00  0.00    +0.000 HD
ENDBRANCH  21  22
ENDBRANCH  20  21
ENDBRANCH   3  20
TORSDOF 5
ENDMDL
MODEL 3
REMARK VINA RESULT:      -8.2      2.004      2.784
REMARK  Name = 
REMARK  6 active torsions:
REMARK  status: ('A' for Active; 'I' for Inactive)
REMARK    1  A    between atoms: C_1  and  C_2
REMARK    2  A    between atoms: C_7  and  C_8
REMARK    3  A    between atoms: C_8  and  N_9
REMARK    4  A    between atoms: C_11  and  C_12
REMARK    5  A    between atoms: C_12  and  S_13
REMARK    6  A    between atoms: S_13  and  C_14
REMARK                            x       y       z     vdW  Elec       q    Type
REMARK                         _______ _______ _______ _____ _____    ______ ____
ROOT
ATOM      1  N   UNL     1       2.011   6.574  19.585  0.00  0.00    +0.000 N 
ATOM      2  C   UNL     1       2.085   5.667  18.565  0.00  0.00    +0.000 A 
ATOM      3  C   UNL     1       1.689   4.476  19.140  0.00  0.00    +0.000 A 
ATOM      4  N   UNL     1       1.454   4.694  20.478  0.00  0.00    +0.000 NA
ATOM      5  N   UNL     1       1.642   5.982  20.735  0.00  0.00    +0.000 NA
ENDROOT
BRANCH   1   6
ATOM      6  C   UNL     1       2.175   8.028  19.518  0.00  0.00    +0.000 C 
BRANCH   6  13
ATOM      7  C   UNL     1      -2.367  12.345  20.838  0.00  0.00    +0.000 C 
ATOM      8  C   UNL     1      -1.513  11.444  19.991  0.00  0.00    +0.000 A 
ATOM      9  C   UNL     1      -1.641  11.491  18.598  0.00  0.00    +0.000 A 
ATOM     10  C   UNL     1      -0.842  10.690  17.785  0.00  0.00    +0.000 A 
ATOM     11  C   UNL     1       0.103   9.828  18.354  0.00  0.00    +0.000 A 
ATOM     12  C   UNL     1       0.259   9.749  19.744  0.00  0.00    +0.000 A 
ATOM     13  C   UNL     1       1.253   8.845  20.400  0.00  0.00    +0.000 A 
ATOM     14  C   UNL     1       1.281   8.795  21.742  0.00  0.00    +0.000 A 
ATOM     15  C   UNL     1       0.393   9.624  22.588  0.00  0.00    +0.000 A 
ATOM     16  O   UNL     1       0.448   9.561  23.811  0.00  0.00    +0.000 OA
ATOM     17  N   UNL     1      -0.466  10.460  21.945  0.00  0.00    +0.000 N 
ATOM     18  C   UNL     1      -0.575  10.556  20.551  0.00  0.00    +0.000 A 
ATOM     19  H   UNL     1      -1.062  11.008  22.549  0.00  0.00    +0.000 HD
ENDBRANCH   6  13
ENDBRANCH   1   6
BRANCH   3  20
ATOM     20  C   UNL     1       1.474   3.131  18.526  0.00  0.00    +0.000 C 
BRANCH  20  21
ATOM     21  S   UNL     1       2.902   2.066  18.892  0.00  0.00    +0.000 S 
BRANCH  21  22
ATOM     22  C   UNL     1       4.244   3.106  18.622  0.00  0.00    +0.000 A 
ATOM     23  N   UNL     1       4.991   3.749  19.485  0.00  0.00    +0.000 NA
ATOM     24  C   UNL     1       5.810   4.546  18.705  0.00  0.00    +0.000 A 
ATOM     25  C   UNL     1       6.735   5.539  19.073  0.00  0.00    +0.000 A 
ATOM     26  C   UNL     1       7.411   6.239  18.061  0.00  0.00    +0.000 A 
ATOM     27  C   UNL     1       7.232   5.910  16.715  0.00  0.00    +0.000 A 
ATOM     28  C   UNL     1       6.329   4.916  16.327  0.00  0.00    +0.000 A 
ATOM     29  C   UNL     1       5.606   4.299  17.350  0.00  0.00    +0.000 A 
ATOM     30  N   UNL     1       4.556   3.422  17.332  0.00  0.00    +0.000 N 
ATOM     31  H   UNL     1       4.033   3.127  16.523  0.00  0.00    +0.000 HD
ENDBRANCH  21  22
ENDBRANCH  20  21
ENDBRANCH   3  20
TORSDOF 5
ENDMDL
MODEL 4
REMARK VINA RESULT:      -8.2      4.427      6.424
REMARK  Name = 
REMARK  6 active torsions:
REMARK  status: ('A' for Active; 'I' for Inactive)
REMARK    1  A    between atoms: C_1  and  C_2
REMARK    2  A    between atoms: C_7  and  C_8
REMARK    3  A    between atoms: C_8  and  N_9
REMARK    4  A    between atoms: C_11  and  C_12
REMARK    5  A    between atoms: C_12  and  S_13
REMARK    6  A    between atoms: S_13  and  C_14
REMARK                            x       y       z     vdW  Elec       q    Type
REMARK                         _______ _______ _______ _____ _____    ______ ____
ROOT
ATOM      1  N   UNL     1       5.757   5.002  17.709  0.00  0.00    +0.000 N 
ATOM      2  C   UNL     1       6.430   5.716  18.661  0.00  0.00    +0.000 A 
ATOM      3  C   UNL     1       7.366   6.437  17.946  0.00  0.00    +0.000 A 
ATOM      4  N   UNL     1       7.264   6.089  16.619  0.00  0.00    +0.000 NA
ATOM      5  N   UNL     1       6.269   5.222  16.485  0.00  0.00    +0.000 NA
ENDROOT
BRANCH   1   6
ATOM      6  C   UNL     1       4.559   4.176  17.875  0.00  0.00    +0.000 C 
BRANCH   6  13
ATOM      7  C   UNL     1       0.793   8.083  21.275  0.00  0.00    +0.000 C 
ATOM      8  C   UNL     1       1.632   7.628  20.114  0.00  0.00    +0.000 A 
ATOM      9  C   UNL     1       1.865   8.508  19.052  0.00  0.00    +0.000 A 
ATOM     10  C   UNL     1       2.663   8.124  17.975  0.00  0.00    +0.000 A 
ATOM     11  C   UNL     1       3.245   6.851  17.947  0.00  0.00    +0.000 A 
ATOM     12  C   UNL     1       3.032   5.940  18.990  0.00  0.00    +0.000 A 
ATOM     13  C   UNL     1       3.630   4.569  19.006  0.00  0.00    +0.000 A 
ATOM     14  C   UNL     1       3.313   3.748  20.020  0.00  0.00    +0.000 A 
ATOM     15  C   UNL     1       2.428   4.161  21.132  0.00  0.00    +0.000 A 
ATOM     16  O   UNL     1       2.165   3.390  22.048  0.00  0.00    +0.000 OA
ATOM     17  N   UNL     1       1.942   5.431  21.093  0.00  0.00    +0.000 N 
ATOM     18  C   UNL     1       2.203   6.342  20.061  0.00  0.00    +0.000 A 
ATOM     19  H   UNL     1       1.336   5.680  21.863  0.00  0.00    +0.000 HD
ENDBRANCH   6  13
ENDBRANCH   1   6
BRANCH   3  20
ATOM     20  C   UNL     1       8.345   7.470  18.402  0.00  0.00    +0.000 C 
BRANCH  20  21
ATOM     21  S   UNL     1       7.870   9.090  17.726  0.00  0.00    +0.000 S 
BRANCH  21  22
ATOM     22  C   UNL     1       9.058  10.148  18.379  0.00  0.00    +0.000 A 
ATOM     23  N   UNL     1       9.330  10.429  19.630  0.00  0.00    +0.000 NA
ATOM     24  C   UNL     1      10.263  11.449  19.559  0.00  0.00    +0.000 A 
ATOM     25  C   UNL     1      10.835  12.234  20.574  0.00  0.00    +0.000 A 
ATOM     26  C   UNL     1      11.737  13.249  20.215  0.00  0.00    +0.000 A 
ATOM     27  C   UNL     1      12.123  13.431  18.885  0.00  0.00    +0.000 A 
ATOM     28  C   UNL     1      11.579  12.652  17.861  0.00  0.00    +0.000 A 
ATOM     29  C   UNL     1      10.618  11.712  18.238  0.00  0.00    +0.000 A 
ATOM     30  N   UNL     1       9.784  10.908  17.509  0.00  0.00    +0.000 N 
ATOM     31  H   UNL     1       9.648  10.929  16.511  0.00  0.00    +0.000 HD
ENDBRANCH  21  22
ENDBRANCH  20  21
ENDBRANCH   3  20
TORSDOF 5
ENDMDL
MODEL 5
REMARK VINA RESULT:      -8.1      0.549      1.197
REMARK  Name = 
REMARK  6 active torsions:
REMARK  status: ('A' for Active; 'I' for Inactive)
REMARK    1  A    between atoms: C_1  and  C_2
REMARK    2  A    between atoms: C_7  and  C_8
REMARK    3  A    between atoms: C_8  and  N_9
REMARK    4  A    between atoms: C_11  and  C_12
REMARK    5  A    between atoms: C_12  and  S_13
REMARK    6  A    between atoms: S_13  and  C_14
REMARK                            x       y       z     vdW  Elec       q    Type
REMARK                         _______ _______ _______ _____ _____    ______ ____
ROOT
ATOM      1  N   UNL     1       1.877   5.302  20.709  0.00  0.00    +0.000 N 
ATOM      2  C   UNL     1       3.020   4.643  20.348  0.00  0.00    +0.000 A 
ATOM      3  C   UNL     1       2.569   3.541  19.647  0.00  0.00    +0.000 A 
ATOM      4  N   UNL     1       1.193   3.544  19.667  0.00  0.00    +0.000 NA
ATOM      5  N   UNL     1       0.783   4.631  20.307  0.00  0.00    +0.000 NA
ENDROOT
BRANCH   1   6
ATOM      6  C   UNL     1       1.752   6.616  21.343  0.00  0.00    +0.000 C 
BRANCH   6  13
ATOM      7  C   UNL     1      -0.609  12.266  19.469  0.00  0.00    +0.000 C 
ATOM      8  C   UNL     1      -0.296  11.136  20.409  0.00  0.00    +0.000 A 
ATOM      9  C   UNL     1      -0.799  11.172  21.714  0.00  0.00    +0.000 A 
ATOM     10  C   UNL     1      -0.550  10.125  22.600  0.00  0.00    +0.000 A 
ATOM     11  C   UNL     1       0.206   9.020  22.191  0.00  0.00    +0.000 A 
ATOM     12  C   UNL     1       0.730   8.948  20.893  0.00  0.00    +0.000 A 
ATOM     13  C   UNL     1       1.543   7.790  20.409  0.00  0.00    +0.000 A 
ATOM     14  C   UNL     1       2.054   7.845  19.169  0.00  0.00    +0.000 A 
ATOM     15  C   UNL     1       1.814   8.988  18.259  0.00  0.00    +0.000 A 
ATOM     16  O   UNL     1       2.288   9.004  17.128  0.00  0.00    +0.000 OA
ATOM     17  N   UNL     1       1.034   9.998  18.730  0.00  0.00    +0.000 N 
ATOM     18  C   UNL     1       0.483  10.030  20.019  0.00  0.00    +0.000 A 
ATOM     19  H   UNL     1       0.894  10.765  18.088  0.00  0.00    +0.000 HD
ENDBRANCH   6  13
ENDBRANCH   1   6
BRANCH   3  20
ATOM     20  C   UNL     1       3.330   2.482  18.919  0.00  0.00    +0.000 C 
BRANCH  20  21
ATOM     21  S   UNL     1       3.750   3.079  17.253  0.00  0.00    +0.000 S 
BRANCH  21  22
ATOM     22  C   UNL     1       5.064   4.150  17.542  0.00  0.00    +0.000 A 
ATOM     23  N   UNL     1       6.034   4.066  18.420  0.00  0.00    +0.000 NA
ATOM     24  C   UNL     1       6.706   5.270  18.307  0.00  0.00    +0.000 A 
ATOM     25  C   UNL     1       7.758   5.802  19.071  0.00  0.00    +0.000 A 
ATOM     26  C   UNL     1       8.232   7.088  18.765  0.00  0.00    +0.000 A 
ATOM     27  C   UNL     1       7.725   7.801  17.675  0.00  0.00    +0.000 A 
ATOM     28  C   UNL     1       6.689   7.285  16.892  0.00  0.00    +0.000 A 
ATOM     29  C   UNL     1       6.178   6.043  17.276  0.00  0.00    +0.000 A 
ATOM     30  N   UNL     1       5.093   5.326  16.852  0.00  0.00    +0.000 N 
ATOM     31  H   UNL     1       4.378   5.637  16.214  0.00  0.00    +0.000 HD
ENDBRANCH  21  22
ENDBRANCH  20  21
ENDBRANCH   3  20
TORSDOF 5
ENDMDL
MODEL 6
REMARK VINA RESULT:      -8.0      3.348      8.655
REMARK  Name = 
REMARK  6 active torsions:
REMARK  status: ('A' for Active; 'I' for Inactive)
REMARK    1  A    between atoms: C_1  and  C_2
REMARK    2  A    between atoms: C_7  and  C_8
REMARK    3  A    between atoms: C_8  and  N_9
REMARK    4  A    between atoms: C_11  and  C_12
REMARK    5  A    between atoms: C_12  and  S_13
REMARK    6  A    between atoms: S_13  and  C_14
REMARK                            x       y       z     vdW  Elec       q    Type
REMARK                         _______ _______ _______ _____ _____    ______ ____
ROOT
ATOM      1  N   UNL     1       2.276   7.822  18.835  0.00  0.00    +0.000 N 
ATOM      2  C   UNL     1       1.640   9.031  18.892  0.00  0.00    +0.000 A 
ATOM      3  C   UNL     1       1.190   9.116  20.195  0.00  0.00    +0.000 A 
ATOM      4  N   UNL     1       1.510   7.947  20.845  0.00  0.00    +0.000 NA
ATOM      5  N   UNL     1       2.185   7.170  20.008  0.00  0.00    +0.000 NA
ENDROOT
BRANCH   1   6
ATOM      6  C   UNL     1       3.074   7.269  17.738  0.00  0.00    +0.000 C 
BRANCH   6  13
ATOM      7  C   UNL     1       4.102   1.070  18.973  0.00  0.00    +0.000 C 
ATOM      8  C   UNL     1       3.337   2.292  18.548  0.00  0.00    +0.000 A 
ATOM      9  C   UNL     1       1.979   2.174  18.233  0.00  0.00    +0.000 A 
ATOM     10  C   UNL     1       1.236   3.294  17.864  0.00  0.00    +0.000 A 
ATOM     11  C   UNL     1       1.843   4.555  17.807  0.00  0.00    +0.000 A 
ATOM     12  C   UNL     1       3.201   4.714  18.112  0.00  0.00    +0.000 A 
ATOM     13  C   UNL     1       3.894   6.038  18.065  0.00  0.00    +0.000 A 
ATOM     14  C   UNL     1       5.213   6.075  18.311  0.00  0.00    +0.000 A 
ATOM     15  C   UNL     1       5.993   4.866  18.659  0.00  0.00    +0.000 A 
ATOM     16  O   UNL     1       7.196   4.934  18.887  0.00  0.00    +0.000 OA
ATOM     17  N   UNL     1       5.310   3.691  18.729  0.00  0.00    +0.000 N 
ATOM     18  C   UNL     1       3.939   3.562  18.463  0.00  0.00    +0.000 A 
ATOM     19  H   UNL     1       5.870   2.884  18.963  0.00  0.00    +0.000 HD
ENDBRANCH   6  13
ENDBRANCH   1   6
BRANCH   3  20
ATOM     20  C   UNL     1       0.499  10.233  20.907  0.00  0.00    +0.000 C 
BRANCH  20  21
ATOM     21  S   UNL     1       0.418  11.686  19.816  0.00  0.00    +0.000 S 
BRANCH  21  22
ATOM     22  C   UNL     1      -1.139  11.548  19.099  0.00  0.00    +0.000 A 
ATOM     23  N   UNL     1      -1.477  11.104  17.912  0.00  0.00    +0.000 NA
ATOM     24  C   UNL     1      -2.833  11.368  17.819  0.00  0.00    +0.000 A 
ATOM     25  C   UNL     1      -3.717  11.223  16.738  0.00  0.00    +0.000 A 
ATOM     26  C   UNL     1      -5.056  11.615  16.904  0.00  0.00    +0.000 A 
ATOM     27  C   UNL     1      -5.525  12.070  18.139  0.00  0.00    +0.000 A 
ATOM     28  C   UNL     1      -4.665  12.207  19.232  0.00  0.00    +0.000 A 
ATOM     29  C   UNL     1      -3.323  11.894  19.012  0.00  0.00    +0.000 A 
ATOM     30  N   UNL     1      -2.204  12.054  19.783  0.00  0.00    +0.000 N 
ATOM     31  H   UNL     1      -2.144  12.544  20.662  0.00  0.00    +0.000 HD
ENDBRANCH  21  22
ENDBRANCH  20  21
ENDBRANCH   3  20
TORSDOF 5
ENDMDL
MODEL 7
REMARK VINA RESULT:      -7.9      2.042      2.670
REMARK  Name = 
REMARK  6 active torsions:
REMARK  status: ('A' for Active; 'I' for Inactive)
REMARK    1  A    between atoms: C_1  and  C_2
REMARK    2  A    between atoms: C_7  and  C_8
REMARK    3  A    between atoms: C_8  and  N_9
REMARK    4  A    between atoms: C_11  and  C_12
REMARK    5  A    between atoms: C_12  and  S_13
REMARK    6  A    between atoms: S_13  and  C_14
REMARK                            x       y       z     vdW  Elec       q    Type
REMARK                         _______ _______ _______ _____ _____    ______ ____
ROOT
ATOM      1  N   UNL     1       1.986   6.252  20.247  0.00  0.00    +0.000 N 
ATOM      2  C   UNL     1       3.013   5.374  20.457  0.00  0.00    +0.000 A 
ATOM      3  C   UNL     1       2.387   4.156  20.634  0.00  0.00    +0.000 A 
ATOM      4  N   UNL     1       1.026   4.353  20.588  0.00  0.00    +0.000 NA
ATOM      5  N   UNL     1       0.795   5.635  20.337  0.00  0.00    +0.000 NA
ENDROOT
BRANCH   1   6
ATOM      6  C   UNL     1       2.066   7.661  19.855  0.00  0.00    +0.000 C 
BRANCH   6  13
ATOM      7  C   UNL     1      -2.110  12.447  20.666  0.00  0.00    +0.000 C 
ATOM      8  C   UNL     1      -1.312  11.413  19.923  0.00  0.00    +0.000 A 
ATOM      9  C   UNL     1      -1.387  11.365  18.527  0.00  0.00    +0.000 A 
ATOM     10  C   UNL     1      -0.636  10.437  17.808  0.00  0.00    +0.000 A 
ATOM     11  C   UNL     1       0.207   9.542  18.478  0.00  0.00    +0.000 A 
ATOM     12  C   UNL     1       0.307   9.556  19.875  0.00  0.00    +0.000 A 
ATOM     13  C   UNL     1       1.191   8.620  20.636  0.00  0.00    +0.000 A 
ATOM     14  C   UNL     1       1.167   8.671  21.977  0.00  0.00    +0.000 A 
ATOM     15  C   UNL     1       0.329   9.636  22.723  0.00  0.00    +0.000 A 
ATOM     16  O   UNL     1       0.335   9.663  23.949  0.00  0.00    +0.000 OA
ATOM     17  N   UNL     1      -0.428  10.493  21.985  0.00  0.00    +0.000 N 
ATOM     18  C   UNL     1      -0.479  10.491  20.584  0.00  0.00    +0.000 A 
ATOM     19  H   UNL     1      -0.993  11.136  22.523  0.00  0.00    +0.000 HD
ENDBRANCH   6  13
ENDBRANCH   1   6
BRANCH   3  20
ATOM     20  C   UNL     1       2.964   2.790  20.815  0.00  0.00    +0.000 C 
BRANCH  20  21
ATOM     21  S   UNL     1       3.012   1.939  19.208  0.00  0.00    +0.000 S 
BRANCH  21  22
ATOM     22  C   UNL     1       3.932   3.010  18.227  0.00  0.00    +0.000 A 
ATOM     23  N   UNL     1       3.647   3.525  17.055  0.00  0.00    +0.000 NA
ATOM     24  C   UNL     1       4.805   4.180  16.676  0.00  0.00    +0.000 A 
ATOM     25  C   UNL     1       5.139   4.816  15.468  0.00  0.00    +0.000 A 
ATOM     26  C   UNL     1       6.421   5.372  15.330  0.00  0.00    +0.000 A 
ATOM     27  C   UNL     1       7.327   5.365  16.394  0.00  0.00    +0.000 A 
ATOM     28  C   UNL     1       7.010   4.751  17.609  0.00  0.00    +0.000 A 
ATOM     29  C   UNL     1       5.763   4.130  17.686  0.00  0.00    +0.000 A 
ATOM     30  N   UNL     1       5.196   3.322  18.634  0.00  0.00    +0.000 N 
ATOM     31  H   UNL     1       5.651   2.939  19.447  0.00  0.00    +0.000 HD
ENDBRANCH  21  22
ENDBRANCH  20  21
ENDBRANCH   3  20
TORSDOF 5
ENDMDL
MODEL 8
REMARK VINA RESULT:      -7.8      3.370      8.766
REMARK  Name = 
REMARK  6 active torsions:
REMARK  status: ('A' for Active; 'I' for Inactive)
REMARK    1  A    between atoms: C_1  and  C_2
REMARK    2  A    between atoms: C_7  and  C_8
REMARK    3  A    between atoms: C_8  and  N_9
REMARK    4  A    between atoms: C_11  and  C_12
REMARK    5  A    between atoms: C_12  and  S_13
REMARK    6  A    between atoms: S_13  and  C_14
REMARK                            x       y       z     vdW  Elec       q    Type
REMARK                         _______ _______ _______ _____ _____    ______ ____
ROOT
ATOM      1  N   UNL     1       2.358   7.820  18.637  0.00  0.00    +0.000 N 
ATOM      2  C   UNL     1       1.741   9.041  18.646  0.00  0.00    +0.000 A 
ATOM      3  C   UNL     1       1.287   9.182  19.942  0.00  0.00    +0.000 A 
ATOM      4  N   UNL     1       1.587   8.033  20.637  0.00  0.00    +0.000 NA
ATOM      5  N   UNL     1       2.252   7.215  19.832  0.00  0.00    +0.000 NA
ENDROOT
BRANCH   1   6
ATOM      6  C   UNL     1       3.150   7.215  17.564  0.00  0.00    +0.000 C 
BRANCH   6  13
ATOM      7  C   UNL     1       4.234   1.102  19.134  0.00  0.00    +0.000 C 
ATOM      8  C   UNL     1       3.456   2.293  18.650  0.00  0.00    +0.000 A 
ATOM      9  C   UNL     1       2.095   2.149  18.358  0.00  0.00    +0.000 A 
ATOM     10  C   UNL     1       1.341   3.242  17.935  0.00  0.00    +0.000 A 
ATOM     11  C   UNL     1       1.938   4.501  17.801  0.00  0.00    +0.000 A 
ATOM     12  C   UNL     1       3.299   4.685  18.080  0.00  0.00    +0.000 A 
ATOM     13  C   UNL     1       3.983   6.009  17.950  0.00  0.00    +0.000 A 
ATOM     14  C   UNL     1       5.304   6.068  18.179  0.00  0.00    +0.000 A 
ATOM     15  C   UNL     1       6.096   4.885  18.585  0.00  0.00    +0.000 A 
ATOM     16  O   UNL     1       7.301   4.974  18.794  0.00  0.00    +0.000 OA
ATOM     17  N   UNL     1       5.421   3.712  18.729  0.00  0.00    +0.000 N 
ATOM     18  C   UNL     1       4.049   3.560  18.487  0.00  0.00    +0.000 A 
ATOM     19  H   UNL     1       5.990   2.923  19.001  0.00  0.00    +0.000 HD
ENDBRANCH   6  13
ENDBRANCH   1   6
BRANCH   3  20
ATOM     20  C   UNL     1       0.612  10.336  20.610  0.00  0.00    +0.000 C 
BRANCH  20  21
ATOM     21  S   UNL     1       0.512  11.731  19.447  0.00  0.00    +0.000 S 
BRANCH  21  22
ATOM     22  C   UNL     1      -1.178  11.889  19.172  0.00  0.00    +0.000 A 
ATOM     23  N   UNL     1      -2.081  12.540  19.865  0.00  0.00    +0.000 NA
ATOM     24  C   UNL     1      -3.284  12.193  19.274  0.00  0.00    +0.000 A 
ATOM     25  C   UNL     1      -4.604  12.487  19.655  0.00  0.00    +0.000 A 
ATOM     26  C   UNL     1      -5.659  11.964  18.889  0.00  0.00    +0.000 A 
ATOM     27  C   UNL     1      -5.410  11.228  17.727  0.00  0.00    +0.000 A 
ATOM     28  C   UNL     1      -4.104  10.937  17.322  0.00  0.00    +0.000 A 
ATOM     29  C   UNL     1      -3.078  11.395  18.152  0.00  0.00    +0.000 A 
ATOM     30  N   UNL     1      -1.729  11.169  18.153  0.00  0.00    +0.000 N 
ATOM     31  H   UNL     1      -1.228  10.515  17.573  0.00  0.00    +0.000 HD
ENDBRANCH  21  22
ENDBRANCH  20  21
ENDBRANCH   3  20
TORSDOF 5
ENDMDL
MODEL 9
REMARK VINA RESULT:      -7.8      3.067      3.785
REMARK  Name = 
REMARK  6 active torsions:
REMARK  status: ('A' for Active; 'I' for Inactive)
REMARK    1  A    between atoms: C_1  and  C_2
REMARK    2  A    between atoms: C_7  and  C_8
REMARK    3  A    between atoms: C_8  and  N_9
REMARK    4  A    between atoms: C_11  and  C_12
REMARK    5  A    between atoms: C_12  and  S_13
REMARK    6  A    between atoms: S_13  and  C_14
REMARK                            x       y       z     vdW  Elec       q    Type
REMARK                         _______ _______ _______ _____ _____    ______ ____
ROOT
ATOM      1  N   UNL     1       2.616   6.912  18.682  0.00  0.00    +0.000 N 
ATOM      2  C   UNL     1       3.932   6.617  18.459  0.00  0.00    +0.000 A 
ATOM      3  C   UNL     1       4.048   5.290  18.824  0.00  0.00    +0.000 A 
ATOM      4  N   UNL     1       2.833   4.861  19.305  0.00  0.00    +0.000 NA
ATOM      5  N   UNL     1       1.963   5.857  19.200  0.00  0.00    +0.000 NA
ENDROOT
BRANCH   1   6
ATOM      6  C   UNL     1       1.891   8.136  18.332  0.00  0.00    +0.000 C 
BRANCH   6  13
ATOM      7  C   UNL     1      -2.022  12.352  21.146  0.00  0.00    +0.000 C 
ATOM      8  C   UNL     1      -1.461  11.504  20.039  0.00  0.00    +0.000 A 
ATOM      9  C   UNL     1      -1.986  11.629  18.749  0.00  0.00    +0.000 A 
ATOM     10  C   UNL     1      -1.467  10.877  17.696  0.00  0.00    +0.000 A 
ATOM     11  C   UNL     1      -0.408   9.989  17.919  0.00  0.00    +0.000 A 
ATOM     12  C   UNL     1       0.143   9.834  19.197  0.00  0.00    +0.000 A 
ATOM     13  C   UNL     1       1.274   8.898  19.487  0.00  0.00    +0.000 A 
ATOM     14  C   UNL     1       1.688   8.774  20.758  0.00  0.00    +0.000 A 
ATOM     15  C   UNL     1       1.093   9.550  21.869  0.00  0.00    +0.000 A 
ATOM     16  O   UNL     1       1.500   9.419  23.018  0.00  0.00    +0.000 OA
ATOM     17  N   UNL     1       0.095  10.417  21.549  0.00  0.00    +0.000 N 
ATOM     18  C   UNL     1      -0.412  10.590  20.254  0.00  0.00    +0.000 A 
ATOM     19  H   UNL     1      -0.294  10.927  22.330  0.00  0.00    +0.000 HD
ENDBRANCH   6  13
ENDBRANCH   1   6
BRANCH   3  20
ATOM     20  C   UNL     1       5.214   4.360  18.730  0.00  0.00    +0.000 C 
BRANCH  20  21
ATOM     21  S   UNL     1       6.637   5.248  18.026  0.00  0.00    +0.000 S 
BRANCH  21  22
ATOM     22  C   UNL     1       6.503   4.926  16.342  0.00  0.00    +0.000 A 
ATOM     23  N   UNL     1       5.653   4.161  15.702  0.00  0.00    +0.000 NA
ATOM     24  C   UNL     1       6.109   4.159  14.395  0.00  0.00    +0.000 A 
ATOM     25  C   UNL     1       5.674   3.423  13.279  0.00  0.00    +0.000 A 
ATOM     26  C   UNL     1       6.353   3.582  12.060  0.00  0.00    +0.000 A 
ATOM     27  C   UNL     1       7.393   4.507  11.930  0.00  0.00    +0.000 A 
ATOM     28  C   UNL     1       7.831   5.260  13.023  0.00  0.00    +0.000 A 
ATOM     29  C   UNL     1       7.196   5.016  14.242  0.00  0.00    +0.000 A 
ATOM     30  N   UNL     1       7.460   5.439  15.516  0.00  0.00    +0.000 N 
ATOM     31  H   UNL     1       8.267   5.959  15.822  0.00  0.00    +0.000 HD
ENDBRANCH  21  22
ENDBRANCH  20  21
ENDBRANCH   3  20
TORSDOF 5
ENDMDL
