MODEL 1
REMARK VINA RESULT:      -7.4      0.000      0.000
REMARK  Name = 
REMARK  13 active torsions:
REMARK  status: ('A' for Active; 'I' for Inactive)
REMARK    1  A    between atoms: C_1  and  C_2
REMARK    2  A    between atoms: C_5  and  O_6
REMARK    3  A    between atoms: O_6  and  C_7
REMARK    4  A    between atoms: C_9  and  C_10
REMARK    5  A    between atoms: C_10  and  O_11
REMARK    6  A    between atoms: C_12  and  O_13
REMARK    7  A    between atoms: C_14  and  O_15
REMARK    8  A    between atoms: C_16  and  O_17
REMARK    9  A    between atoms: C_18  and  C_19
REMARK   10  A    between atoms: C_19  and  C_20
REMARK   11  A    between atoms: C_23  and  C_24
REMARK   12  A    between atoms: C_24  and  C_25
REMARK   13  A    between atoms: C_24  and  C_26
REMARK                            x       y       z     vdW  Elec       q    Type
REMARK                         _______ _______ _______ _____ _____    ______ ____
ROOT
ATOM      1  C   UNL     1       0.604   3.561  20.400  0.00  0.00    +0.000 C 
ATOM      2  C   UNL     1       1.692   3.366  19.415  0.00  0.00    +0.000 A 
ATOM      3  N   UNL     1       1.696   2.331  18.506  0.00  0.00    +0.000 N 
ATOM      4  N   UNL     1       2.840   2.231  17.805  0.00  0.00    +0.000 NA
ATOM      5  C   UNL     1       3.539   3.275  18.238  0.00  0.00    +0.000 A 
ATOM      6  C   UNL     1       2.874   4.054  19.204  0.00  0.00    +0.000 A 
ATOM      7  H   UNL     1       0.978   1.632  18.363  0.00  0.00    +0.000 HD
ENDROOT
BRANCH   5   8
ATOM      8  O   UNL     1       4.809   3.517  17.868  0.00  0.00    +0.000 OA
BRANCH   8   9
ATOM      9  C   UNL     1       5.038   4.388  16.774  0.00  0.00    +0.000 C 
ATOM     10  O   UNL     1       5.374   3.524  15.675  0.00  0.00    +0.000 OA
ATOM     11  C   UNL     1       5.827   4.186  14.501  0.00  0.00    +0.000 C 
ATOM     12  C   UNL     1       7.100   4.987  14.803  0.00  0.00    +0.000 C 
ATOM     13  C   UNL     1       6.815   5.987  15.931  0.00  0.00    +0.000 C 
ATOM     14  C   UNL     1       6.250   5.270  17.162  0.00  0.00    +0.000 C 
BRANCH  12  15
ATOM     15  O   UNL     1       7.567   5.647  13.620  0.00  0.00    +0.000 OA
ATOM     16  H   UNL     1       6.792   5.899  13.083  0.00  0.00    +0.000 HD
ENDBRANCH  12  15
BRANCH  13  17
ATOM     17  O   UNL     1       8.007   6.712  16.263  0.00  0.00    +0.000 OA
ATOM     18  H   UNL     1       8.335   7.153  15.459  0.00  0.00    +0.000 HD
ENDBRANCH  13  17
BRANCH  14  19
ATOM     19  O   UNL     1       5.941   6.216  18.195  0.00  0.00    +0.000 OA
ATOM     20  H   UNL     1       4.993   6.431  18.160  0.00  0.00    +0.000 HD
ENDBRANCH  14  19
BRANCH  11  21
ATOM     21  C   UNL     1       6.085   3.113  13.431  0.00  0.00    +0.000 C 
BRANCH  21  22
ATOM     22  O   UNL     1       5.863   3.592  12.109  0.00  0.00    +0.000 OA
ATOM     23  H   UNL     1       4.918   3.425  11.902  0.00  0.00    +0.000 HD
ENDBRANCH  21  22
ENDBRANCH  11  21
ENDBRANCH   8   9
ENDBRANCH   5   8
BRANCH   6  24
ATOM     24  C   UNL     1       3.440   5.235  19.906  0.00  0.00    +0.000 C 
BRANCH  24  25
ATOM     25  C   UNL     1       2.658   6.458  19.482  0.00  0.00    +0.000 A 
ATOM     26  C   UNL     1       1.944   7.204  20.428  0.00  0.00    +0.000 A 
ATOM     27  C   UNL     1       1.347   8.420  20.077  0.00  0.00    +0.000 A 
ATOM     28  C   UNL     1       1.439   8.918  18.770  0.00  0.00    +0.000 A 
ATOM     29  C   UNL     1       2.086   8.135  17.805  0.00  0.00    +0.000 A 
ATOM     30  C   UNL     1       2.694   6.926  18.160  0.00  0.00    +0.000 A 
BRANCH  28  31
ATOM     31  C   UNL     1       0.900  10.302  18.450  0.00  0.00    +0.000 C 
ATOM     32  C   UNL     1      -0.275  10.658  19.369  0.00  0.00    +0.000 C 
ATOM     33  C   UNL     1       1.981  11.381  18.508  0.00  0.00    +0.000 C 
ENDBRANCH  28  31
ENDBRANCH  24  25
ENDBRANCH   6  24
TORSDOF 10
ENDMDL
MODEL 2
REMARK VINA RESULT:      -7.0      2.954      7.520
REMARK  Name = 
REMARK  13 active torsions:
REMARK  status: ('A' for Active; 'I' for Inactive)
REMARK    1  A    between atoms: C_1  and  C_2
REMARK    2  A    between atoms: C_5  and  O_6
REMARK    3  A    between atoms: O_6  and  C_7
REMARK    4  A    between atoms: C_9  and  C_10
REMARK    5  A    between atoms: C_10  and  O_11
REMARK    6  A    between atoms: C_12  and  O_13
REMARK    7  A    between atoms: C_14  and  O_15
REMARK    8  A    between atoms: C_16  and  O_17
REMARK    9  A    between atoms: C_18  and  C_19
REMARK   10  A    between atoms: C_19  and  C_20
REMARK   11  A    between atoms: C_23  and  C_24
REMARK   12  A    between atoms: C_24  and  C_25
REMARK   13  A    between atoms: C_24  and  C_26
REMARK                            x       y       z     vdW  Elec       q    Type
REMARK                         _______ _______ _______ _____ _____    ______ ____
ROOT
ATOM      1  C   UNL     1       7.955   8.115  17.578  0.00  0.00    +0.000 C 
ATOM      2  C   UNL     1       7.359   6.805  17.925  0.00  0.00    +0.000 A 
ATOM      3  N   UNL     1       7.827   6.025  18.959  0.00  0.00    +0.000 N 
ATOM      4  N   UNL     1       7.261   4.806  19.016  0.00  0.00    +0.000 NA
ATOM      5  C   UNL     1       6.365   4.854  18.035  0.00  0.00    +0.000 A 
ATOM      6  C   UNL     1       6.335   6.078  17.341  0.00  0.00    +0.000 A 
ATOM      7  H   UNL     1       8.565   6.248  19.615  0.00  0.00    +0.000 HD
ENDROOT
BRANCH   5   8
ATOM      8  O   UNL     1       5.622   3.797  17.662  0.00  0.00    +0.000 OA
BRANCH   8   9
ATOM      9  C   UNL     1       4.299   3.696  18.160  0.00  0.00    +0.000 C 
ATOM     10  O   UNL     1       3.885   5.054  18.391  0.00  0.00    +0.000 OA
ATOM     11  C   UNL     1       2.643   5.201  19.067  0.00  0.00    +0.000 C 
ATOM     12  C   UNL     1       2.716   4.549  20.454  0.00  0.00    +0.000 C 
ATOM     13  C   UNL     1       3.095   3.071  20.301  0.00  0.00    +0.000 C 
ATOM     14  C   UNL     1       4.392   2.922  19.498  0.00  0.00    +0.000 C 
BRANCH  12  15
ATOM     15  O   UNL     1       1.472   4.705  21.146  0.00  0.00    +0.000 OA
ATOM     16  H   UNL     1       0.778   4.899  20.488  0.00  0.00    +0.000 HD
ENDBRANCH  12  15
BRANCH  13  17
ATOM     17  O   UNL     1       3.218   2.454  21.590  0.00  0.00    +0.000 OA
ATOM     18  H   UNL     1       4.074   2.713  21.976  0.00  0.00    +0.000 HD
ENDBRANCH  13  17
BRANCH  14  19
ATOM     19  O   UNL     1       4.714   1.536  19.317  0.00  0.00    +0.000 OA
ATOM     20  H   UNL     1       4.591   1.298  18.382  0.00  0.00    +0.000 HD
ENDBRANCH  14  19
BRANCH  11  21
ATOM     21  C   UNL     1       2.346   6.705  19.175  0.00  0.00    +0.000 C 
BRANCH  21  22
ATOM     22  O   UNL     1       2.381   7.177  20.517  0.00  0.00    +0.000 OA
ATOM     23  H   UNL     1       2.025   6.458  21.080  0.00  0.00    +0.000 HD
ENDBRANCH  21  22
ENDBRANCH  11  21
ENDBRANCH   8   9
ENDBRANCH   5   8
BRANCH   6  24
ATOM     24  C   UNL     1       5.484   6.388  16.163  0.00  0.00    +0.000 C 
BRANCH  24  25
ATOM     25  C   UNL     1       5.807   5.394  15.071  0.00  0.00    +0.000 A 
ATOM     26  C   UNL     1       4.818   4.531  14.584  0.00  0.00    +0.000 A 
ATOM     27  C   UNL     1       5.062   3.718  13.471  0.00  0.00    +0.000 A 
ATOM     28  C   UNL     1       6.303   3.738  12.821  0.00  0.00    +0.000 A 
ATOM     29  C   UNL     1       7.318   4.544  13.354  0.00  0.00    +0.000 A 
ATOM     30  C   UNL     1       7.070   5.366  14.459  0.00  0.00    +0.000 A 
BRANCH  28  31
ATOM     31  C   UNL     1       6.496   2.950  11.537  0.00  0.00    +0.000 C 
ATOM     32  C   UNL     1       7.923   2.395  11.444  0.00  0.00    +0.000 C 
ATOM     33  C   UNL     1       5.467   1.831  11.376  0.00  0.00    +0.000 C 
ENDBRANCH  28  31
ENDBRANCH  24  25
ENDBRANCH   6  24
TORSDOF 10
ENDMDL
MODEL 3
REMARK VINA RESULT:      -6.9      3.608      7.309
REMARK  Name = 
REMARK  13 active torsions:
REMARK  status: ('A' for Active; 'I' for Inactive)
REMARK    1  A    between atoms: C_1  and  C_2
REMARK    2  A    between atoms: C_5  and  O_6
REMARK    3  A    between atoms: O_6  and  C_7
REMARK    4  A    between atoms: C_9  and  C_10
REMARK    5  A    between atoms: C_10  and  O_11
REMARK    6  A    between atoms: C_12  and  O_13
REMARK    7  A    between atoms: C_14  and  O_15
REMARK    8  A    between atoms: C_16  and  O_17
REMARK    9  A    between atoms: C_18  and  C_19
REMARK   10  A    between atoms: C_19  and  C_20
REMARK   11  A    between atoms: C_23  and  C_24
REMARK   12  A    between atoms: C_24  and  C_25
REMARK   13  A    between atoms: C_24  and  C_26
REMARK                            x       y       z     vdW  Elec       q    Type
REMARK                         _______ _______ _______ _____ _____    ______ ____
ROOT
ATOM      1  C   UNL     1       7.856   7.951  17.457  0.00  0.00    +0.000 C 
ATOM      2  C   UNL     1       7.395   6.870  18.357  0.00  0.00    +0.000 A 
ATOM      3  N   UNL     1       8.153   6.399  19.406  0.00  0.00    +0.000 N 
ATOM      4  N   UNL     1       7.632   5.314  20.006  0.00  0.00    +0.000 NA
ATOM      5  C   UNL     1       6.482   5.147  19.360  0.00  0.00    +0.000 A 
ATOM      6  C   UNL     1       6.243   6.101  18.354  0.00  0.00    +0.000 A 
ATOM      7  H   UNL     1       9.055   6.739  19.716  0.00  0.00    +0.000 HD
ENDROOT
BRANCH   5   8
ATOM      8  O   UNL     1       5.662   4.103  19.572  0.00  0.00    +0.000 OA
BRANCH   8   9
ATOM      9  C   UNL     1       4.317   4.205  19.139  0.00  0.00    +0.000 C 
ATOM     10  O   UNL     1       3.651   4.953  20.172  0.00  0.00    +0.000 OA
ATOM     11  C   UNL     1       2.237   5.030  20.048  0.00  0.00    +0.000 C 
ATOM     12  C   UNL     1       1.625   3.624  20.095  0.00  0.00    +0.000 C 
ATOM     13  C   UNL     1       2.236   2.767  18.979  0.00  0.00    +0.000 C 
ATOM     14  C   UNL     1       3.765   2.760  19.075  0.00  0.00    +0.000 C 
BRANCH  12  15
ATOM     15  O   UNL     1       0.198   3.696  19.983  0.00  0.00    +0.000 OA
ATOM     16  H   UNL     1      -0.063   3.296  19.132  0.00  0.00    +0.000 HD
ENDBRANCH  12  15
BRANCH  13  17
ATOM     17  O   UNL     1       1.714   1.432  19.036  0.00  0.00    +0.000 OA
ATOM     18  H   UNL     1       2.109   0.914  18.312  0.00  0.00    +0.000 HD
ENDBRANCH  13  17
BRANCH  14  19
ATOM     19  O   UNL     1       4.332   1.996  18.001  0.00  0.00    +0.000 OA
ATOM     20  H   UNL     1       4.777   2.598  17.380  0.00  0.00    +0.000 HD
ENDBRANCH  14  19
BRANCH  11  21
ATOM     21  C   UNL     1       1.715   5.903  21.200  0.00  0.00    +0.000 C 
BRANCH  21  22
ATOM     22  O   UNL     1       1.551   7.266  20.825  0.00  0.00    +0.000 OA
ATOM     23  H   UNL     1       0.671   7.547  21.155  0.00  0.00    +0.000 HD
ENDBRANCH  21  22
ENDBRANCH  11  21
ENDBRANCH   8   9
ENDBRANCH   5   8
BRANCH   6  24
ATOM     24  C   UNL     1       5.075   6.120  17.434  0.00  0.00    +0.000 C 
BRANCH  24  25
ATOM     25  C   UNL     1       5.480   5.447  16.142  0.00  0.00    +0.000 A 
ATOM     26  C   UNL     1       5.938   4.124  16.147  0.00  0.00    +0.000 A 
ATOM     27  C   UNL     1       6.165   3.441  14.946  0.00  0.00    +0.000 A 
ATOM     28  C   UNL     1       5.951   4.065  13.709  0.00  0.00    +0.000 A 
ATOM     29  C   UNL     1       5.568   5.413  13.704  0.00  0.00    +0.000 A 
ATOM     30  C   UNL     1       5.328   6.091  14.904  0.00  0.00    +0.000 A 
BRANCH  28  31
ATOM     31  C   UNL     1       6.075   3.262  12.427  0.00  0.00    +0.000 C 
ATOM     32  C   UNL     1       4.722   3.156  11.713  0.00  0.00    +0.000 C 
ATOM     33  C   UNL     1       7.143   3.819  11.486  0.00  0.00    +0.000 C 
ENDBRANCH  28  31
ENDBRANCH  24  25
ENDBRANCH   6  24
TORSDOF 10
ENDMDL
MODEL 4
REMARK VINA RESULT:      -6.9      2.312      4.298
REMARK  Name = 
REMARK  13 active torsions:
REMARK  status: ('A' for Active; 'I' for Inactive)
REMARK    1  A    between atoms: C_1  and  C_2
REMARK    2  A    between atoms: C_5  and  O_6
REMARK    3  A    between atoms: O_6  and  C_7
REMARK    4  A    between atoms: C_9  and  C_10
REMARK    5  A    between atoms: C_10  and  O_11
REMARK    6  A    between atoms: C_12  and  O_13
REMARK    7  A    between atoms: C_14  and  O_15
REMARK    8  A    between atoms: C_16  and  O_17
REMARK    9  A    between atoms: C_18  and  C_19
REMARK   10  A    between atoms: C_19  and  C_20
REMARK   11  A    between atoms: C_23  and  C_24
REMARK   12  A    between atoms: C_24  and  C_25
REMARK   13  A    between atoms: C_24  and  C_26
REMARK                            x       y       z     vdW  Elec       q    Type
REMARK                         _______ _______ _______ _____ _____    ______ ____
ROOT
ATOM      1  C   UNL     1       0.850   8.932  21.735  0.00  0.00    +0.000 C 
ATOM      2  C   UNL     1       1.416   7.923  20.812  0.00  0.00    +0.000 A 
ATOM      3  N   UNL     1       1.637   6.615  21.184  0.00  0.00    +0.000 N 
ATOM      4  N   UNL     1       2.301   5.895  20.262  0.00  0.00    +0.000 NA
ATOM      5  C   UNL     1       2.435   6.757  19.259  0.00  0.00    +0.000 A 
ATOM      6  C   UNL     1       1.870   8.023  19.508  0.00  0.00    +0.000 A 
ATOM      7  H   UNL     1       1.411   6.179  22.069  0.00  0.00    +0.000 HD
ENDROOT
BRANCH   5   8
ATOM      8  O   UNL     1       3.135   6.488  18.144  0.00  0.00    +0.000 OA
BRANCH   8   9
ATOM      9  C   UNL     1       4.283   5.664  18.252  0.00  0.00    +0.000 C 
ATOM     10  O   UNL     1       5.398   6.567  18.152  0.00  0.00    +0.000 OA
ATOM     11  C   UNL     1       6.673   5.944  18.052  0.00  0.00    +0.000 C 
ATOM     12  C   UNL     1       6.736   5.067  16.795  0.00  0.00    +0.000 C 
ATOM     13  C   UNL     1       5.611   4.026  16.846  0.00  0.00    +0.000 C 
ATOM     14  C   UNL     1       4.250   4.705  17.037  0.00  0.00    +0.000 C 
BRANCH  12  15
ATOM     15  O   UNL     1       8.023   4.448  16.682  0.00  0.00    +0.000 OA
ATOM     16  H   UNL     1       8.264   4.413  15.737  0.00  0.00    +0.000 HD
ENDBRANCH  12  15
BRANCH  13  17
ATOM     17  O   UNL     1       5.621   3.227  15.655  0.00  0.00    +0.000 OA
ATOM     18  H   UNL     1       6.523   3.229  15.288  0.00  0.00    +0.000 HD
ENDBRANCH  13  17
BRANCH  14  19
ATOM     19  O   UNL     1       3.209   3.724  17.131  0.00  0.00    +0.000 OA
ATOM     20  H   UNL     1       3.419   3.101  17.849  0.00  0.00    +0.000 HD
ENDBRANCH  14  19
BRANCH  11  21
ATOM     21  C   UNL     1       7.732   7.057  18.008  0.00  0.00    +0.000 C 
BRANCH  21  22
ATOM     22  O   UNL     1       7.992   7.515  16.686  0.00  0.00    +0.000 OA
ATOM     23  H   UNL     1       8.284   6.735  16.168  0.00  0.00    +0.000 HD
ENDBRANCH  21  22
ENDBRANCH  11  21
ENDBRANCH   8   9
ENDBRANCH   5   8
BRANCH   6  24
ATOM     24  C   UNL     1       1.929   9.195  18.596  0.00  0.00    +0.000 C 
BRANCH  24  25
ATOM     25  C   UNL     1       0.525   9.728  18.419  0.00  0.00    +0.000 A 
ATOM     26  C   UNL     1       0.104  10.858  19.130  0.00  0.00    +0.000 A 
ATOM     27  C   UNL     1      -1.135  11.452  18.860  0.00  0.00    +0.000 A 
ATOM     28  C   UNL     1      -1.988  10.927  17.880  0.00  0.00    +0.000 A 
ATOM     29  C   UNL     1      -1.601   9.752  17.223  0.00  0.00    +0.000 A 
ATOM     30  C   UNL     1      -0.357   9.166  17.484  0.00  0.00    +0.000 A 
BRANCH  28  31
ATOM     31  C   UNL     1      -3.263  11.668  17.513  0.00  0.00    +0.000 C 
ATOM     32  C   UNL     1      -4.008  10.950  16.382  0.00  0.00    +0.000 C 
ATOM     33  C   UNL     1      -4.181  11.887  18.716  0.00  0.00    +0.000 C 
ENDBRANCH  28  31
ENDBRANCH  24  25
ENDBRANCH   6  24
TORSDOF 10
ENDMDL
MODEL 5
REMARK VINA RESULT:      -6.8      2.813      5.113
REMARK  Name = 
REMARK  13 active torsions:
REMARK  status: ('A' for Active; 'I' for Inactive)
REMARK    1  A    between atoms: C_1  and  C_2
REMARK    2  A    between atoms: C_5  and  O_6
REMARK    3  A    between atoms: O_6  and  C_7
REMARK    4  A    between atoms: C_9  and  C_10
REMARK    5  A    between atoms: C_10  and  O_11
REMARK    6  A    between atoms: C_12  and  O_13
REMARK    7  A    between atoms: C_14  and  O_15
REMARK    8  A    between atoms: C_16  and  O_17
REMARK    9  A    between atoms: C_18  and  C_19
REMARK   10  A    between atoms: C_19  and  C_20
REMARK   11  A    between atoms: C_23  and  C_24
REMARK   12  A    between atoms: C_24  and  C_25
REMARK   13  A    between atoms: C_24  and  C_26
REMARK                            x       y       z     vdW  Elec       q    Type
REMARK                         _______ _______ _______ _____ _____    ______ ____
ROOT
ATOM      1  C   UNL     1       0.510  10.484  21.529  0.00  0.00    +0.000 C 
ATOM      2  C   UNL     1       0.984   9.303  20.771  0.00  0.00    +0.000 A 
ATOM      3  N   UNL     1       1.259   8.094  21.372  0.00  0.00    +0.000 N 
ATOM      4  N   UNL     1       1.826   7.197  20.546  0.00  0.00    +0.000 NA
ATOM      5  C   UNL     1       1.839   7.838  19.382  0.00  0.00    +0.000 A 
ATOM      6  C   UNL     1       1.291   9.134  19.432  0.00  0.00    +0.000 A 
ATOM      7  H   UNL     1       1.137   7.847  22.346  0.00  0.00    +0.000 HD
ENDROOT
BRANCH   5   8
ATOM      8  O   UNL     1       2.416   7.343  18.273  0.00  0.00    +0.000 OA
BRANCH   8   9
ATOM      9  C   UNL     1       3.297   6.241  18.408  0.00  0.00    +0.000 C 
ATOM     10  O   UNL     1       4.386   6.526  17.513  0.00  0.00    +0.000 OA
ATOM     11  C   UNL     1       5.318   5.467  17.338  0.00  0.00    +0.000 C 
ATOM     12  C   UNL     1       4.615   4.234  16.755  0.00  0.00    +0.000 C 
ATOM     13  C   UNL     1       3.468   3.818  17.683  0.00  0.00    +0.000 C 
ATOM     14  C   UNL     1       2.515   4.993  17.930  0.00  0.00    +0.000 C 
BRANCH  12  15
ATOM     15  O   UNL     1       5.552   3.167  16.564  0.00  0.00    +0.000 OA
ATOM     16  H   UNL     1       5.861   2.871  17.441  0.00  0.00    +0.000 HD
ENDBRANCH  12  15
BRANCH  13  17
ATOM     17  O   UNL     1       2.764   2.697  17.131  0.00  0.00    +0.000 OA
ATOM     18  H   UNL     1       3.391   2.167  16.606  0.00  0.00    +0.000 HD
ENDBRANCH  13  17
BRANCH  14  19
ATOM     19  O   UNL     1       1.471   4.611  18.837  0.00  0.00    +0.000 OA
ATOM     20  H   UNL     1       0.700   5.188  18.701  0.00  0.00    +0.000 HD
ENDBRANCH  14  19
BRANCH  11  21
ATOM     21  C   UNL     1       6.426   5.971  16.399  0.00  0.00    +0.000 C 
BRANCH  21  22
ATOM     22  O   UNL     1       6.097   5.809  15.024  0.00  0.00    +0.000 OA
ATOM     23  H   UNL     1       5.985   6.710  14.652  0.00  0.00    +0.000 HD
ENDBRANCH  21  22
ENDBRANCH  11  21
ENDBRANCH   8   9
ENDBRANCH   5   8
BRANCH   6  24
ATOM     24  C   UNL     1       1.235  10.097  18.302  0.00  0.00    +0.000 C 
BRANCH  24  25
ATOM     25  C   UNL     1      -0.177  10.628  18.201  0.00  0.00    +0.000 A 
ATOM     26  C   UNL     1      -1.218   9.792  17.779  0.00  0.00    +0.000 A 
ATOM     27  C   UNL     1      -2.548  10.225  17.831  0.00  0.00    +0.000 A 
ATOM     28  C   UNL     1      -2.873  11.506  18.297  0.00  0.00    +0.000 A 
ATOM     29  C   UNL     1      -1.826  12.370  18.646  0.00  0.00    +0.000 A 
ATOM     30  C   UNL     1      -0.498  11.933  18.606  0.00  0.00    +0.000 A 
BRANCH  28  31
ATOM     31  C   UNL     1      -4.330  11.900  18.471  0.00  0.00    +0.000 C 
ATOM     32  C   UNL     1      -5.258  10.724  18.145  0.00  0.00    +0.000 C 
ATOM     33  C   UNL     1      -4.625  12.455  19.864  0.00  0.00    +0.000 C 
ENDBRANCH  28  31
ENDBRANCH  24  25
ENDBRANCH   6  24
TORSDOF 10
ENDMDL
MODEL 6
REMARK VINA RESULT:      -6.8      2.943      7.031
REMARK  Name = 
REMARK  13 active torsions:
REMARK  status: ('A' for Active; 'I' for Inactive)
REMARK    1  A    between atoms: C_1  and  C_2
REMARK    2  A    between atoms: C_5  and  O_6
REMARK    3  A    between atoms: O_6  and  C_7
REMARK    4  A    between atoms: C_9  and  C_10
REMARK    5  A    between atoms: C_10  and  O_11
REMARK    6  A    between atoms: C_12  and  O_13
REMARK    7  A    between atoms: C_14  and  O_15
REMARK    8  A    between atoms: C_16  and  O_17
REMARK    9  A    between atoms: C_18  and  C_19
REMARK   10  A    between atoms: C_19  and  C_20
REMARK   11  A    between atoms: C_23  and  C_24
REMARK   12  A    between atoms: C_24  and  C_25
REMARK   13  A    between atoms: C_24  and  C_26
REMARK                            x       y       z     vdW  Elec       q    Type
REMARK                         _______ _______ _______ _____ _____    ______ ____
ROOT
ATOM      1  C   UNL     1       4.474   2.151  20.509  0.00  0.00    +0.000 C 
ATOM      2  C   UNL     1       3.486   3.165  20.078  0.00  0.00    +0.000 A 
ATOM      3  N   UNL     1       2.127   2.945  20.117  0.00  0.00    +0.000 N 
ATOM      4  N   UNL     1       1.403   3.920  19.539  0.00  0.00    +0.000 NA
ATOM      5  C   UNL     1       2.332   4.807  19.193  0.00  0.00    +0.000 A 
ATOM      6  C   UNL     1       3.644   4.430  19.536  0.00  0.00    +0.000 A 
ATOM      7  H   UNL     1       1.644   2.128  20.470  0.00  0.00    +0.000 HD
ENDROOT
BRANCH   5   8
ATOM      8  O   UNL     1       2.063   5.919  18.487  0.00  0.00    +0.000 OA
BRANCH   8   9
ATOM      9  C   UNL     1       2.376   7.174  19.064  0.00  0.00    +0.000 C 
ATOM     10  O   UNL     1       1.423   7.340  20.130  0.00  0.00    +0.000 OA
ATOM     11  C   UNL     1       1.423   8.621  20.747  0.00  0.00    +0.000 C 
ATOM     12  C   UNL     1       1.083   9.705  19.716  0.00  0.00    +0.000 C 
ATOM     13  C   UNL     1       2.092   9.643  18.563  0.00  0.00    +0.000 C 
ATOM     14  C   UNL     1       2.144   8.235  17.960  0.00  0.00    +0.000 C 
BRANCH  12  15
ATOM     15  O   UNL     1       1.067  10.996  20.335  0.00  0.00    +0.000 OA
ATOM     16  H   UNL     1       1.345  11.657  19.672  0.00  0.00    +0.000 HD
ENDBRANCH  12  15
BRANCH  13  17
ATOM     17  O   UNL     1       1.763  10.616  17.562  0.00  0.00    +0.000 OA
ATOM     18  H   UNL     1       2.477  11.277  17.526  0.00  0.00    +0.000 HD
ENDBRANCH  13  17
BRANCH  14  19
ATOM     19  O   UNL     1       3.124   8.172  16.915  0.00  0.00    +0.000 OA
ATOM     20  H   UNL     1       3.330   7.241  16.723  0.00  0.00    +0.000 HD
ENDBRANCH  14  19
BRANCH  11  21
ATOM     21  C   UNL     1       0.389   8.590  21.883  0.00  0.00    +0.000 C 
BRANCH  21  22
ATOM     22  O   UNL     1       0.656   9.553  22.896  0.00  0.00    +0.000 OA
ATOM     23  H   UNL     1       0.049  10.307  22.737  0.00  0.00    +0.000 HD
ENDBRANCH  21  22
ENDBRANCH  11  21
ENDBRANCH   8   9
ENDBRANCH   5   8
BRANCH   6  24
ATOM     24  C   UNL     1       4.878   5.192  19.214  0.00  0.00    +0.000 C 
BRANCH  24  25
ATOM     25  C   UNL     1       5.385   4.727  17.868  0.00  0.00    +0.000 A 
ATOM     26  C   UNL     1       4.484   4.390  16.851  0.00  0.00    +0.000 A 
ATOM     27  C   UNL     1       4.937   4.110  15.557  0.00  0.00    +0.000 A 
ATOM     28  C   UNL     1       6.304   4.149  15.247  0.00  0.00    +0.000 A 
ATOM     29  C   UNL     1       7.212   4.410  16.282  0.00  0.00    +0.000 A 
ATOM     30  C   UNL     1       6.757   4.703  17.572  0.00  0.00    +0.000 A 
BRANCH  28  31
ATOM     31  C   UNL     1       6.757   3.974  13.808  0.00  0.00    +0.000 C 
ATOM     32  C   UNL     1       5.568   3.653  12.894  0.00  0.00    +0.000 C 
ATOM     33  C   UNL     1       7.531   5.184  13.285  0.00  0.00    +0.000 C 
ENDBRANCH  28  31
ENDBRANCH  24  25
ENDBRANCH   6  24
TORSDOF 10
ENDMDL
MODEL 7
REMARK VINA RESULT:      -6.8      2.732      5.002
REMARK  Name = 
REMARK  13 active torsions:
REMARK  status: ('A' for Active; 'I' for Inactive)
REMARK    1  A    between atoms: C_1  and  C_2
REMARK    2  A    between atoms: C_5  and  O_6
REMARK    3  A    between atoms: O_6  and  C_7
REMARK    4  A    between atoms: C_9  and  C_10
REMARK    5  A    between atoms: C_10  and  O_11
REMARK    6  A    between atoms: C_12  and  O_13
REMARK    7  A    between atoms: C_14  and  O_15
REMARK    8  A    between atoms: C_16  and  O_17
REMARK    9  A    between atoms: C_18  and  C_19
REMARK   10  A    between atoms: C_19  and  C_20
REMARK   11  A    between atoms: C_23  and  C_24
REMARK   12  A    between atoms: C_24  and  C_25
REMARK   13  A    between atoms: C_24  and  C_26
REMARK                            x       y       z     vdW  Elec       q    Type
REMARK                         _______ _______ _______ _____ _____    ______ ____
ROOT
ATOM      1  C   UNL     1       0.474   9.127  21.993  0.00  0.00    +0.000 C 
ATOM      2  C   UNL     1       1.164   8.331  20.952  0.00  0.00    +0.000 A 
ATOM      3  N   UNL     1       1.543   7.021  21.146  0.00  0.00    +0.000 N 
ATOM      4  N   UNL     1       2.293   6.522  20.147  0.00  0.00    +0.000 NA
ATOM      5  C   UNL     1       2.322   7.525  19.275  0.00  0.00    +0.000 A 
ATOM      6  C   UNL     1       1.605   8.665  19.683  0.00  0.00    +0.000 A 
ATOM      7  H   UNL     1       1.370   6.442  21.958  0.00  0.00    +0.000 HD
ENDROOT
BRANCH   5   8
ATOM      8  O   UNL     1       3.054   7.500  18.147  0.00  0.00    +0.000 OA
BRANCH   8   9
ATOM      9  C   UNL     1       3.358   6.242  17.570  0.00  0.00    +0.000 C 
ATOM     10  O   UNL     1       2.341   5.352  18.063  0.00  0.00    +0.000 OA
ATOM     11  C   UNL     1       2.543   3.977  17.761  0.00  0.00    +0.000 C 
ATOM     12  C   UNL     1       3.858   3.487  18.380  0.00  0.00    +0.000 C 
ATOM     13  C   UNL     1       5.016   4.346  17.858  0.00  0.00    +0.000 C 
ATOM     14  C   UNL     1       4.748   5.833  18.115  0.00  0.00    +0.000 C 
BRANCH  12  15
ATOM     15  O   UNL     1       4.060   2.098  18.091  0.00  0.00    +0.000 OA
ATOM     16  H   UNL     1       4.171   1.622  18.935  0.00  0.00    +0.000 HD
ENDBRANCH  12  15
BRANCH  13  17
ATOM     17  O   UNL     1       6.250   3.937  18.462  0.00  0.00    +0.000 OA
ATOM     18  H   UNL     1       6.196   2.985  18.662  0.00  0.00    +0.000 HD
ENDBRANCH  13  17
BRANCH  14  19
ATOM     19  O   UNL     1       5.812   6.634  17.581  0.00  0.00    +0.000 OA
ATOM     20  H   UNL     1       6.163   6.208  16.780  0.00  0.00    +0.000 HD
ENDBRANCH  14  19
BRANCH  11  21
ATOM     21  C   UNL     1       1.341   3.197  18.319  0.00  0.00    +0.000 C 
BRANCH  21  22
ATOM     22  O   UNL     1       1.574   2.692  19.629  0.00  0.00    +0.000 OA
ATOM     23  H   UNL     1       0.951   1.946  19.760  0.00  0.00    +0.000 HD
ENDBRANCH  21  22
ENDBRANCH  11  21
ENDBRANCH   8   9
ENDBRANCH   5   8
BRANCH   6  24
ATOM     24  C   UNL     1       1.521   9.950  18.941  0.00  0.00    +0.000 C 
BRANCH  24  25
ATOM     25  C   UNL     1       0.068  10.216  18.619  0.00  0.00    +0.000 A 
ATOM     26  C   UNL     1      -0.634  11.219  19.298  0.00  0.00    +0.000 A 
ATOM     27  C   UNL     1      -1.928  11.580  18.903  0.00  0.00    +0.000 A 
ATOM     28  C   UNL     1      -2.557  10.942  17.825  0.00  0.00    +0.000 A 
ATOM     29  C   UNL     1      -1.885   9.887  17.194  0.00  0.00    +0.000 A 
ATOM     30  C   UNL     1      -0.587   9.535  17.581  0.00  0.00    +0.000 A 
BRANCH  28  31
ATOM     31  C   UNL     1      -3.903  11.444  17.332  0.00  0.00    +0.000 C 
ATOM     32  C   UNL     1      -4.149  11.016  15.880  0.00  0.00    +0.000 C 
ATOM     33  C   UNL     1      -5.058  11.004  18.231  0.00  0.00    +0.000 C 
ENDBRANCH  28  31
ENDBRANCH  24  25
ENDBRANCH   6  24
TORSDOF 10
ENDMDL
MODEL 8
REMARK VINA RESULT:      -6.8      8.012     11.520
REMARK  Name = 
REMARK  13 active torsions:
REMARK  status: ('A' for Active; 'I' for Inactive)
REMARK    1  A    between atoms: C_1  and  C_2
REMARK    2  A    between atoms: C_5  and  O_6
REMARK    3  A    between atoms: O_6  and  C_7
REMARK    4  A    between atoms: C_9  and  C_10
REMARK    5  A    between atoms: C_10  and  O_11
REMARK    6  A    between atoms: C_12  and  O_13
REMARK    7  A    between atoms: C_14  and  O_15
REMARK    8  A    between atoms: C_16  and  O_17
REMARK    9  A    between atoms: C_18  and  C_19
REMARK   10  A    between atoms: C_19  and  C_20
REMARK   11  A    between atoms: C_23  and  C_24
REMARK   12  A    between atoms: C_24  and  C_25
REMARK   13  A    between atoms: C_24  and  C_26
REMARK                            x       y       z     vdW  Elec       q    Type
REMARK                         _______ _______ _______ _____ _____    ______ ____
ROOT
ATOM      1  C   UNL     1       1.258   8.360  21.297  0.00  0.00    +0.000 C 
ATOM      2  C   UNL     1       0.521   9.472  21.940  0.00  0.00    +0.000 A 
ATOM      3  N   UNL     1      -0.190   9.316  23.110  0.00  0.00    +0.000 N 
ATOM      4  N   UNL     1      -0.916  10.396  23.450  0.00  0.00    +0.000 NA
ATOM      5  C   UNL     1      -0.594  11.273  22.505  0.00  0.00    +0.000 A 
ATOM      6  C   UNL     1       0.328  10.788  21.558  0.00  0.00    +0.000 A 
ATOM      7  H   UNL     1      -0.262   8.484  23.682  0.00  0.00    +0.000 HD
ENDROOT
BRANCH   5   8
ATOM      8  O   UNL     1      -1.170  12.483  22.394  0.00  0.00    +0.000 OA
BRANCH   8   9
ATOM      9  C   UNL     1      -2.175  12.838  23.329  0.00  0.00    +0.000 C 
ATOM     10  O   UNL     1      -3.418  12.590  22.650  0.00  0.00    +0.000 OA
ATOM     11  C   UNL     1      -4.580  13.046  23.330  0.00  0.00    +0.000 C 
ATOM     12  C   UNL     1      -4.514  14.566  23.530  0.00  0.00    +0.000 C 
ATOM     13  C   UNL     1      -3.239  14.920  24.307  0.00  0.00    +0.000 C 
ATOM     14  C   UNL     1      -2.001  14.351  23.607  0.00  0.00    +0.000 C 
BRANCH  12  15
ATOM     15  O   UNL     1      -5.689  15.034  24.203  0.00  0.00    +0.000 OA
ATOM     16  H   UNL     1      -6.459  14.554  23.843  0.00  0.00    +0.000 HD
ENDBRANCH  12  15
BRANCH  13  17
ATOM     17  O   UNL     1      -3.131  16.342  24.462  0.00  0.00    +0.000 OA
ATOM     18  H   UNL     1      -2.221  16.555  24.736  0.00  0.00    +0.000 HD
ENDBRANCH  13  17
BRANCH  14  19
ATOM     19  O   UNL     1      -0.818  14.645  24.363  0.00  0.00    +0.000 OA
ATOM     20  H   UNL     1      -0.605  13.886  24.934  0.00  0.00    +0.000 HD
ENDBRANCH  14  19
BRANCH  11  21
ATOM     21  C   UNL     1      -5.801  12.649  22.484  0.00  0.00    +0.000 C 
BRANCH  21  22
ATOM     22  O   UNL     1      -6.914  12.253  23.278  0.00  0.00    +0.000 OA
ATOM     23  H   UNL     1      -6.815  11.292  23.445  0.00  0.00    +0.000 HD
ENDBRANCH  21  22
ENDBRANCH  11  21
ENDBRANCH   8   9
ENDBRANCH   5   8
BRANCH   6  24
ATOM     24  C   UNL     1       0.813  11.525  20.362  0.00  0.00    +0.000 C 
BRANCH  24  25
ATOM     25  C   UNL     1      -0.169  11.298  19.235  0.00  0.00    +0.000 A 
ATOM     26  C   UNL     1      -0.148  10.101  18.510  0.00  0.00    +0.000 A 
ATOM     27  C   UNL     1      -1.148   9.814  17.573  0.00  0.00    +0.000 A 
ATOM     28  C   UNL     1      -2.189  10.721  17.329  0.00  0.00    +0.000 A 
ATOM     29  C   UNL     1      -2.167  11.952  17.998  0.00  0.00    +0.000 A 
ATOM     30  C   UNL     1      -1.175  12.232  18.944  0.00  0.00    +0.000 A 
BRANCH  28  31
ATOM     31  C   UNL     1      -3.332  10.328  16.409  0.00  0.00    +0.000 C 
ATOM     32  C   UNL     1      -4.554  11.224  16.640  0.00  0.00    +0.000 C 
ATOM     33  C   UNL     1      -2.926  10.332  14.935  0.00  0.00    +0.000 C 
ENDBRANCH  28  31
ENDBRANCH  24  25
ENDBRANCH   6  24
TORSDOF 10
ENDMDL
MODEL 9
REMARK VINA RESULT:      -6.8      2.807      5.113
REMARK  Name = 
REMARK  13 active torsions:
REMARK  status: ('A' for Active; 'I' for Inactive)
REMARK    1  A    between atoms: C_1  and  C_2
REMARK    2  A    between atoms: C_5  and  O_6
REMARK    3  A    between atoms: O_6  and  C_7
REMARK    4  A    between atoms: C_9  and  C_10
REMARK    5  A    between atoms: C_10  and  O_11
REMARK    6  A    between atoms: C_12  and  O_13
REMARK    7  A    between atoms: C_14  and  O_15
REMARK    8  A    between atoms: C_16  and  O_17
REMARK    9  A    between atoms: C_18  and  C_19
REMARK   10  A    between atoms: C_19  and  C_20
REMARK   11  A    between atoms: C_23  and  C_24
REMARK   12  A    between atoms: C_24  and  C_25
REMARK   13  A    between atoms: C_24  and  C_26
REMARK                            x       y       z     vdW  Elec       q    Type
REMARK                         _______ _______ _______ _____ _____    ______ ____
ROOT
ATOM      1  C   UNL     1       0.725   9.491  21.923  0.00  0.00    +0.000 C 
ATOM      2  C   UNL     1       1.268   8.577  20.893  0.00  0.00    +0.000 A 
ATOM      3  N   UNL     1       1.533   7.248  21.142  0.00  0.00    +0.000 N 
ATOM      4  N   UNL     1       2.167   6.624  20.133  0.00  0.00    +0.000 NA
ATOM      5  C   UNL     1       2.235   7.571  19.202  0.00  0.00    +0.000 A 
ATOM      6  C   UNL     1       1.658   8.796  19.583  0.00  0.00    +0.000 A 
ATOM      7  H   UNL     1       1.358   6.733  21.996  0.00  0.00    +0.000 HD
ENDROOT
BRANCH   5   8
ATOM      8  O   UNL     1       2.888   7.413  18.037  0.00  0.00    +0.000 OA
BRANCH   8   9
ATOM      9  C   UNL     1       3.225   6.099  17.627  0.00  0.00    +0.000 C 
ATOM     10  O   UNL     1       2.222   5.257  18.221  0.00  0.00    +0.000 OA
ATOM     11  C   UNL     1       2.456   3.859  18.098  0.00  0.00    +0.000 C 
ATOM     12  C   UNL     1       3.775   3.481  18.785  0.00  0.00    +0.000 C 
ATOM     13  C   UNL     1       4.920   4.294  18.167  0.00  0.00    +0.000 C 
ATOM     14  C   UNL     1       4.617   5.795  18.231  0.00  0.00    +0.000 C 
BRANCH  12  15
ATOM     15  O   UNL     1       4.009   2.072  18.676  0.00  0.00    +0.000 OA
ATOM     16  H   UNL     1       3.575   1.631  19.430  0.00  0.00    +0.000 HD
ENDBRANCH  12  15
BRANCH  13  17
ATOM     17  O   UNL     1       6.156   3.993  18.829  0.00  0.00    +0.000 OA
ATOM     18  H   UNL     1       6.883   4.403  18.328  0.00  0.00    +0.000 HD
ENDBRANCH  13  17
BRANCH  14  19
ATOM     19  O   UNL     1       5.669   6.546  17.609  0.00  0.00    +0.000 OA
ATOM     20  H   UNL     1       5.901   7.303  18.174  0.00  0.00    +0.000 HD
ENDBRANCH  14  19
BRANCH  11  21
ATOM     21  C   UNL     1       1.265   3.130  18.740  0.00  0.00    +0.000 C 
BRANCH  21  22
ATOM     22  O   UNL     1       1.317   1.720  18.548  0.00  0.00    +0.000 OA
ATOM     23  H   UNL     1       0.454   1.455  18.165  0.00  0.00    +0.000 HD
ENDBRANCH  21  22
ENDBRANCH  11  21
ENDBRANCH   8   9
ENDBRANCH   5   8
BRANCH   6  24
ATOM     24  C   UNL     1       1.649  10.042  18.772  0.00  0.00    +0.000 C 
BRANCH  24  25
ATOM     25  C   UNL     1       0.211  10.412  18.488  0.00  0.00    +0.000 A 
ATOM     26  C   UNL     1      -0.563   9.630  17.622  0.00  0.00    +0.000 A 
ATOM     27  C   UNL     1      -1.934   9.870  17.474  0.00  0.00    +0.000 A 
ATOM     28  C   UNL     1      -2.566  10.904  18.179  0.00  0.00    +0.000 A 
ATOM     29  C   UNL     1      -1.778  11.734  18.986  0.00  0.00    +0.000 A 
ATOM     30  C   UNL     1      -0.410  11.486  19.144  0.00  0.00    +0.000 A 
BRANCH  28  31
ATOM     31  C   UNL     1      -4.076  11.056  18.104  0.00  0.00    +0.000 C 
ATOM     32  C   UNL     1      -4.575  12.080  19.130  0.00  0.00    +0.000 C 
ATOM     33  C   UNL     1      -4.560  11.414  16.699  0.00  0.00    +0.000 C 
ENDBRANCH  28  31
ENDBRANCH  24  25
ENDBRANCH   6  24
TORSDOF 10
ENDMDL
