MODEL 1
REMARK VINA RESULT:      -8.8      0.000      0.000
REMARK  Name = 
REMARK  7 active torsions:
REMARK  status: ('A' for Active; 'I' for Inactive)
REMARK    1  A    between atoms: C_1  and  N_2
REMARK    2  A    between atoms: C_3  and  C_5
REMARK    3  A    between atoms: C_10  and  C_11
REMARK    4  A    between atoms: C_11  and  C_12
REMARK    5  A    between atoms: C_12  and  N_13
REMARK    6  A    between atoms: N_16  and  C_17
REMARK    7  A    between atoms: C_22  and  C_23
REMARK                            x       y       z     vdW  Elec       q    Type
REMARK                         _______ _______ _______ _____ _____    ______ ____
ROOT
ATOM      1  C   UNL     1       7.755   7.308  17.367  0.00  0.00    +0.000 C 
ENDROOT
BRANCH   1   2
ATOM      2  N   UNL     1       7.342   5.927  17.587  0.00  0.00    +0.000 N 
ATOM      3  C   UNL     1       6.007   5.637  17.671  0.00  0.00    +0.000 C 
ATOM      4  O   UNL     1       5.171   6.509  17.476  0.00  0.00    +0.000 OA
ATOM      5  N   UNL     1       5.751   4.339  18.046  0.00  0.00    +0.000 N 
ATOM      6  H   UNL     1       7.999   5.185  17.400  0.00  0.00    +0.000 HD
ATOM      7  H   UNL     1       6.516   3.838  18.475  0.00  0.00    +0.000 HD
BRANCH   5   8
ATOM      8  C   UNL     1       4.443   3.809  18.226  0.00  0.00    +0.000 A 
ATOM      9  C   UNL     1       3.792   3.090  17.216  0.00  0.00    +0.000 A 
ATOM     10  C   UNL     1       2.477   2.663  17.368  0.00  0.00    +0.000 A 
ATOM     11  C   UNL     1       1.802   2.929  18.547  0.00  0.00    +0.000 A 
ATOM     12  F   UNL     1       0.531   2.522  18.652  0.00  0.00    +0.000 F 
ATOM     13  C   UNL     1       2.425   3.603  19.595  0.00  0.00    +0.000 A 
ATOM     14  C   UNL     1       3.765   4.029  19.434  0.00  0.00    +0.000 A 
BRANCH  13  15
ATOM     15  C   UNL     1       1.671   3.882  20.862  0.00  0.00    +0.000 C 
ATOM     16  F   UNL     1       0.574   4.675  20.724  0.00  0.00    +0.000 F 
ATOM     17  F   UNL     1       1.225   2.739  21.456  0.00  0.00    +0.000 F 
ATOM     18  F   UNL     1       2.452   4.498  21.795  0.00  0.00    +0.000 F 
ENDBRANCH  13  15
ENDBRANCH   5   8
ENDBRANCH   1   2
BRANCH   1  19
ATOM     19  C   UNL     1       8.383   7.988  18.598  0.00  0.00    +0.000 C 
BRANCH  19  25
ATOM     20  C   UNL     1      10.237  14.251  18.843  0.00  0.00    +0.000 A 
ATOM     21  C   UNL     1       9.261  13.643  18.065  0.00  0.00    +0.000 A 
ATOM     22  C   UNL     1       9.059  12.271  18.191  0.00  0.00    +0.000 A 
ATOM     23  C   UNL     1       8.092  11.625  17.415  0.00  0.00    +0.000 A 
ATOM     24  C   UNL     1       7.879  10.253  17.540  0.00  0.00    +0.000 A 
ATOM     25  C   UNL     1       8.629   9.481  18.435  0.00  0.00    +0.000 A 
ATOM     26  C   UNL     1       9.598  10.134  19.224  0.00  0.00    +0.000 A 
ATOM     27  C   UNL     1       9.828  11.528  19.102  0.00  0.00    +0.000 A 
ATOM     28  C   UNL     1      10.792  12.245  19.838  0.00  0.00    +0.000 A 
ATOM     29  N   UNL     1      11.018  13.584  19.735  0.00  0.00    +0.000 NA
BRANCH  20  32
ATOM     30  C   UNL     1      11.046  17.831  19.788  0.00  0.00    +0.000 C 
ATOM     31  N   UNL     1      10.807  16.413  19.823  0.00  0.00    +0.000 N 
ATOM     32  C   UNL     1      10.447  15.727  18.684  0.00  0.00    +0.000 C 
ATOM     33  O   UNL     1      10.303  16.272  17.593  0.00  0.00    +0.000 OA
ATOM     34  H   UNL     1      10.872  15.884  20.688  0.00  0.00    +0.000 HD
ENDBRANCH  20  32
ENDBRANCH  19  25
ENDBRANCH   1  19
TORSDOF 6
ENDMDL
MODEL 2
REMARK VINA RESULT:      -8.7      0.802      1.033
REMARK  Name = 
REMARK  7 active torsions:
REMARK  status: ('A' for Active; 'I' for Inactive)
REMARK    1  A    between atoms: C_1  and  N_2
REMARK    2  A    between atoms: C_3  and  C_5
REMARK    3  A    between atoms: C_10  and  C_11
REMARK    4  A    between atoms: C_11  and  C_12
REMARK    5  A    between atoms: C_12  and  N_13
REMARK    6  A    between atoms: N_16  and  C_17
REMARK    7  A    between atoms: C_22  and  C_23
REMARK                            x       y       z     vdW  Elec       q    Type
REMARK                         _______ _______ _______ _____ _____    ______ ____
ROOT
ATOM      1  C   UNL     1       7.708   7.968  17.521  0.00  0.00    +0.000 C 
ENDROOT
BRANCH   1   2
ATOM      2  N   UNL     1       7.336   6.559  17.580  0.00  0.00    +0.000 N 
ATOM      3  C   UNL     1       6.012   6.223  17.668  0.00  0.00    +0.000 C 
ATOM      4  O   UNL     1       5.149   7.088  17.607  0.00  0.00    +0.000 OA
ATOM      5  N   UNL     1       5.800   4.882  17.885  0.00  0.00    +0.000 N 
ATOM      6  H   UNL     1       8.004   5.864  17.283  0.00  0.00    +0.000 HD
ATOM      7  H   UNL     1       6.591   4.354  18.227  0.00  0.00    +0.000 HD
BRANCH   5   8
ATOM      8  C   UNL     1       4.513   4.298  18.038  0.00  0.00    +0.000 A 
ATOM      9  C   UNL     1       3.852   3.679  16.969  0.00  0.00    +0.000 A 
ATOM     10  C   UNL     1       2.553   3.199  17.105  0.00  0.00    +0.000 A 
ATOM     11  C   UNL     1       1.905   3.310  18.323  0.00  0.00    +0.000 A 
ATOM     12  F   UNL     1       0.649   2.856  18.414  0.00  0.00    +0.000 F 
ATOM     13  C   UNL     1       2.541   3.878  19.425  0.00  0.00    +0.000 A 
ATOM     14  C   UNL     1       3.864   4.359  19.279  0.00  0.00    +0.000 A 
BRANCH  13  15
ATOM     15  C   UNL     1       1.816   3.990  20.734  0.00  0.00    +0.000 C 
ATOM     16  F   UNL     1       2.434   4.748  21.680  0.00  0.00    +0.000 F 
ATOM     17  F   UNL     1       0.572   4.529  20.587  0.00  0.00    +0.000 F 
ATOM     18  F   UNL     1       1.619   2.771  21.314  0.00  0.00    +0.000 F 
ENDBRANCH  13  15
ENDBRANCH   5   8
ENDBRANCH   1   2
BRANCH   1  19
ATOM     19  C   UNL     1       8.616   8.435  18.674  0.00  0.00    +0.000 C 
BRANCH  19  25
ATOM     20  C   UNL     1      10.272  14.645  19.864  0.00  0.00    +0.000 A 
ATOM     21  C   UNL     1       9.623  14.093  18.768  0.00  0.00    +0.000 A 
ATOM     22  C   UNL     1       9.390  12.720  18.746  0.00  0.00    +0.000 A 
ATOM     23  C   UNL     1       8.749  12.130  17.653  0.00  0.00    +0.000 A 
ATOM     24  C   UNL     1       8.506  10.757  17.626  0.00  0.00    +0.000 A 
ATOM     25  C   UNL     1       8.903   9.929  18.683  0.00  0.00    +0.000 A 
ATOM     26  C   UNL     1       9.542  10.526  19.789  0.00  0.00    +0.000 A 
ATOM     27  C   UNL     1       9.800  11.920  19.826  0.00  0.00    +0.000 A 
ATOM     28  C   UNL     1      10.451  12.583  20.884  0.00  0.00    +0.000 A 
ATOM     29  N   UNL     1      10.699  13.921  20.934  0.00  0.00    +0.000 NA
BRANCH  20  32
ATOM     30  C   UNL     1      12.012  17.937  20.568  0.00  0.00    +0.000 C 
ATOM     31  N   UNL     1      11.663  16.543  20.514  0.00  0.00    +0.000 N 
ATOM     32  C   UNL     1      10.523  16.123  19.864  0.00  0.00    +0.000 C 
ATOM     33  O   UNL     1       9.748  16.895  19.307  0.00  0.00    +0.000 OA
ATOM     34  H   UNL     1      12.229  15.835  20.972  0.00  0.00    +0.000 HD
ENDBRANCH  20  32
ENDBRANCH  19  25
ENDBRANCH   1  19
TORSDOF 6
ENDMDL
MODEL 3
REMARK VINA RESULT:      -8.7      6.207     10.133
REMARK  Name = 
REMARK  7 active torsions:
REMARK  status: ('A' for Active; 'I' for Inactive)
REMARK    1  A    between atoms: C_1  and  N_2
REMARK    2  A    between atoms: C_3  and  C_5
REMARK    3  A    between atoms: C_10  and  C_11
REMARK    4  A    between atoms: C_11  and  C_12
REMARK    5  A    between atoms: C_12  and  N_13
REMARK    6  A    between atoms: N_16  and  C_17
REMARK    7  A    between atoms: C_22  and  C_23
REMARK                            x       y       z     vdW  Elec       q    Type
REMARK                         _______ _______ _______ _____ _____    ______ ____
ROOT
ATOM      1  C   UNL     1       6.454   6.006  17.225  0.00  0.00    +0.000 C 
ENDROOT
BRANCH   1   2
ATOM      2  N   UNL     1       6.844   7.394  17.005  0.00  0.00    +0.000 N 
ATOM      3  C   UNL     1       7.786   7.959  17.822  0.00  0.00    +0.000 C 
ATOM      4  O   UNL     1       8.356   7.283  18.667  0.00  0.00    +0.000 OA
ATOM      5  N   UNL     1       7.945   9.310  17.622  0.00  0.00    +0.000 N 
ATOM      6  H   UNL     1       6.638   7.824  16.115  0.00  0.00    +0.000 HD
ATOM      7  H   UNL     1       7.198   9.781  17.129  0.00  0.00    +0.000 HD
BRANCH   5   8
ATOM      8  C   UNL     1       8.844  10.121  18.368  0.00  0.00    +0.000 A 
ATOM      9  C   UNL     1       8.962  10.004  19.759  0.00  0.00    +0.000 A 
ATOM     10  C   UNL     1       9.772  10.869  20.489  0.00  0.00    +0.000 A 
ATOM     11  C   UNL     1      10.495  11.849  19.831  0.00  0.00    +0.000 A 
ATOM     12  F   UNL     1      11.248  12.677  20.566  0.00  0.00    +0.000 F 
ATOM     13  C   UNL     1      10.441  11.973  18.445  0.00  0.00    +0.000 A 
ATOM     14  C   UNL     1       9.619  11.086  17.710  0.00  0.00    +0.000 A 
BRANCH  13  15
ATOM     15  C   UNL     1      11.232  13.047  17.756  0.00  0.00    +0.000 C 
ATOM     16  F   UNL     1      10.552  14.196  17.496  0.00  0.00    +0.000 F 
ATOM     17  F   UNL     1      12.326  13.422  18.479  0.00  0.00    +0.000 F 
ATOM     18  F   UNL     1      11.717  12.629  16.552  0.00  0.00    +0.000 F 
ENDBRANCH  13  15
ENDBRANCH   5   8
ENDBRANCH   1   2
BRANCH   1  19
ATOM     19  C   UNL     1       4.982   5.699  16.896  0.00  0.00    +0.000 C 
BRANCH  19  25
ATOM     20  C   UNL     1       0.690   9.610  19.899  0.00  0.00    +0.000 A 
ATOM     21  C   UNL     1       1.256   8.417  20.327  0.00  0.00    +0.000 A 
ATOM     22  C   UNL     1       2.151   7.757  19.488  0.00  0.00    +0.000 A 
ATOM     23  C   UNL     1       2.730   6.548  19.883  0.00  0.00    +0.000 A 
ATOM     24  C   UNL     1       3.632   5.885  19.052  0.00  0.00    +0.000 A 
ATOM     25  C   UNL     1       3.977   6.402  17.797  0.00  0.00    +0.000 A 
ATOM     26  C   UNL     1       3.399   7.626  17.403  0.00  0.00    +0.000 A 
ATOM     27  C   UNL     1       2.476   8.307  18.236  0.00  0.00    +0.000 A 
ATOM     28  C   UNL     1       1.842   9.519  17.901  0.00  0.00    +0.000 A 
ATOM     29  N   UNL     1       0.959  10.186  18.696  0.00  0.00    +0.000 NA
BRANCH  20  32
ATOM     30  C   UNL     1      -1.109  10.524  23.106  0.00  0.00    +0.000 C 
ATOM     31  N   UNL     1      -0.233   9.923  22.137  0.00  0.00    +0.000 N 
ATOM     32  C   UNL     1      -0.279  10.298  20.812  0.00  0.00    +0.000 C 
ATOM     33  O   UNL     1      -1.058  11.145  20.384  0.00  0.00    +0.000 OA
ATOM     34  H   UNL     1       0.423   9.191  22.394  0.00  0.00    +0.000 HD
ENDBRANCH  20  32
ENDBRANCH  19  25
ENDBRANCH   1  19
TORSDOF 6
ENDMDL
MODEL 4
REMARK VINA RESULT:      -8.7      0.976      1.089
REMARK  Name = 
REMARK  7 active torsions:
REMARK  status: ('A' for Active; 'I' for Inactive)
REMARK    1  A    between atoms: C_1  and  N_2
REMARK    2  A    between atoms: C_3  and  C_5
REMARK    3  A    between atoms: C_10  and  C_11
REMARK    4  A    between atoms: C_11  and  C_12
REMARK    5  A    between atoms: C_12  and  N_13
REMARK    6  A    between atoms: N_16  and  C_17
REMARK    7  A    between atoms: C_22  and  C_23
REMARK                            x       y       z     vdW  Elec       q    Type
REMARK                         _______ _______ _______ _____ _____    ______ ____
ROOT
ATOM      1  C   UNL     1       7.731   7.538  17.301  0.00  0.00    +0.000 C 
ENDROOT
BRANCH   1   2
ATOM      2  N   UNL     1       6.298   7.265  17.324  0.00  0.00    +0.000 N 
ATOM      3  C   UNL     1       5.855   6.076  17.837  0.00  0.00    +0.000 C 
ATOM      4  O   UNL     1       6.642   5.292  18.349  0.00  0.00    +0.000 OA
ATOM      5  N   UNL     1       4.508   5.867  17.650  0.00  0.00    +0.000 N 
ATOM      6  H   UNL     1       5.653   8.035  17.229  0.00  0.00    +0.000 HD
ATOM      7  H   UNL     1       4.060   6.437  16.946  0.00  0.00    +0.000 HD
BRANCH   5   8
ATOM      8  C   UNL     1       3.823   4.694  18.072  0.00  0.00    +0.000 A 
ATOM      9  C   UNL     1       3.493   3.670  17.175  0.00  0.00    +0.000 A 
ATOM     10  C   UNL     1       2.737   2.574  17.579  0.00  0.00    +0.000 A 
ATOM     11  C   UNL     1       2.320   2.477  18.895  0.00  0.00    +0.000 A 
ATOM     12  F   UNL     1       1.577   1.420  19.245  0.00  0.00    +0.000 F 
ATOM     13  C   UNL     1       2.662   3.450  19.830  0.00  0.00    +0.000 A 
ATOM     14  C   UNL     1       3.436   4.559  19.412  0.00  0.00    +0.000 A 
BRANCH  13  15
ATOM     15  C   UNL     1       2.195   3.324  21.251  0.00  0.00    +0.000 C 
ATOM     16  F   UNL     1       2.422   4.410  22.038  0.00  0.00    +0.000 F 
ATOM     17  F   UNL     1       0.854   3.086  21.330  0.00  0.00    +0.000 F 
ATOM     18  F   UNL     1       2.790   2.277  21.892  0.00  0.00    +0.000 F 
ENDBRANCH  13  15
ENDBRANCH   5   8
ENDBRANCH   1   2
BRANCH   1  19
ATOM     19  C   UNL     1       8.290   8.109  18.617  0.00  0.00    +0.000 C 
BRANCH  19  25
ATOM     20  C   UNL     1      10.633  14.167  19.351  0.00  0.00    +0.000 A 
ATOM     21  C   UNL     1       9.716  13.674  18.433  0.00  0.00    +0.000 A 
ATOM     22  C   UNL     1       9.381  12.323  18.475  0.00  0.00    +0.000 A 
ATOM     23  C   UNL     1       8.469  11.792  17.559  0.00  0.00    +0.000 A 
ATOM     24  C   UNL     1       8.124  10.441  17.599  0.00  0.00    +0.000 A 
ATOM     25  C   UNL     1       8.684   9.577  18.548  0.00  0.00    +0.000 A 
ATOM     26  C   UNL     1       9.597  10.115  19.477  0.00  0.00    +0.000 A 
ATOM     27  C   UNL     1       9.961  11.485  19.444  0.00  0.00    +0.000 A 
ATOM     28  C   UNL     1      10.881  12.089  20.323  0.00  0.00    +0.000 A 
ATOM     29  N   UNL     1      11.234  13.404  20.304  0.00  0.00    +0.000 NA
BRANCH  20  32
ATOM     30  C   UNL     1      10.328  17.910  19.852  0.00  0.00    +0.000 C 
ATOM     31  N   UNL     1      10.086  16.493  19.850  0.00  0.00    +0.000 N 
ATOM     32  C   UNL     1      10.988  15.621  19.281  0.00  0.00    +0.000 C 
ATOM     33  O   UNL     1      12.029  15.992  18.745  0.00  0.00    +0.000 OA
ATOM     34  H   UNL     1       9.236  16.098  20.243  0.00  0.00    +0.000 HD
ENDBRANCH  20  32
ENDBRANCH  19  25
ENDBRANCH   1  19
TORSDOF 6
ENDMDL
MODEL 5
REMARK VINA RESULT:      -8.6      6.879      9.502
REMARK  Name = 
REMARK  7 active torsions:
REMARK  status: ('A' for Active; 'I' for Inactive)
REMARK    1  A    between atoms: C_1  and  N_2
REMARK    2  A    between atoms: C_3  and  C_5
REMARK    3  A    between atoms: C_10  and  C_11
REMARK    4  A    between atoms: C_11  and  C_12
REMARK    5  A    between atoms: C_12  and  N_13
REMARK    6  A    between atoms: N_16  and  C_17
REMARK    7  A    between atoms: C_22  and  C_23
REMARK                            x       y       z     vdW  Elec       q    Type
REMARK                         _______ _______ _______ _____ _____    ______ ____
ROOT
ATOM      1  C   UNL     1       1.774   5.543  21.128  0.00  0.00    +0.000 C 
ENDROOT
BRANCH   1   2
ATOM      2  N   UNL     1       2.057   6.768  20.387  0.00  0.00    +0.000 N 
ATOM      3  C   UNL     1       1.208   7.834  20.515  0.00  0.00    +0.000 C 
ATOM      4  O   UNL     1       0.276   7.791  21.306  0.00  0.00    +0.000 OA
ATOM      5  N   UNL     1       1.485   8.862  19.644  0.00  0.00    +0.000 N 
ATOM      6  H   UNL     1       2.987   6.916  20.025  0.00  0.00    +0.000 HD
ATOM      7  H   UNL     1       2.067   8.632  18.851  0.00  0.00    +0.000 HD
BRANCH   5   8
ATOM      8  C   UNL     1       0.727  10.063  19.569  0.00  0.00    +0.000 A 
ATOM      9  C   UNL     1       1.172  11.254  20.157  0.00  0.00    +0.000 A 
ATOM     10  C   UNL     1       0.377  12.396  20.162  0.00  0.00    +0.000 A 
ATOM     11  C   UNL     1      -0.868  12.367  19.556  0.00  0.00    +0.000 A 
ATOM     12  F   UNL     1      -1.615  13.477  19.597  0.00  0.00    +0.000 F 
ATOM     13  C   UNL     1      -1.331  11.217  18.921  0.00  0.00    +0.000 A 
ATOM     14  C   UNL     1      -0.514  10.062  18.916  0.00  0.00    +0.000 A 
BRANCH  13  15
ATOM     15  C   UNL     1      -2.685  11.210  18.274  0.00  0.00    +0.000 C 
ATOM     16  F   UNL     1      -3.690  11.744  19.020  0.00  0.00    +0.000 F 
ATOM     17  F   UNL     1      -2.694  11.898  17.097  0.00  0.00    +0.000 F 
ATOM     18  F   UNL     1      -3.094   9.947  17.962  0.00  0.00    +0.000 F 
ENDBRANCH  13  15
ENDBRANCH   5   8
ENDBRANCH   1   2
BRANCH   1  19
ATOM     19  C   UNL     1       2.798   4.415  20.905  0.00  0.00    +0.000 C 
BRANCH  19  25
ATOM     20  C   UNL     1       6.451   4.653  15.489  0.00  0.00    +0.000 A 
ATOM     21  C   UNL     1       5.094   4.400  15.635  0.00  0.00    +0.000 A 
ATOM     22  C   UNL     1       4.544   4.395  16.915  0.00  0.00    +0.000 A 
ATOM     23  C   UNL     1       3.184   4.132  17.099  0.00  0.00    +0.000 A 
ATOM     24  C   UNL     1       2.625   4.133  18.376  0.00  0.00    +0.000 A 
ATOM     25  C   UNL     1       3.406   4.385  19.510  0.00  0.00    +0.000 A 
ATOM     26  C   UNL     1       4.776   4.658  19.323  0.00  0.00    +0.000 A 
ATOM     27  C   UNL     1       5.359   4.655  18.031  0.00  0.00    +0.000 A 
ATOM     28  C   UNL     1       6.721   4.896  17.768  0.00  0.00    +0.000 A 
ATOM     29  N   UNL     1       7.290   4.902  16.531  0.00  0.00    +0.000 NA
BRANCH  20  32
ATOM     30  C   UNL     1       6.960   3.618  11.880  0.00  0.00    +0.000 C 
ATOM     31  N   UNL     1       6.495   3.712  13.237  0.00  0.00    +0.000 N 
ATOM     32  C   UNL     1       7.025   4.642  14.105  0.00  0.00    +0.000 C 
ATOM     33  O   UNL     1       7.913   5.426  13.783  0.00  0.00    +0.000 OA
ATOM     34  H   UNL     1       5.784   3.084  13.600  0.00  0.00    +0.000 HD
ENDBRANCH  20  32
ENDBRANCH  19  25
ENDBRANCH   1  19
TORSDOF 6
ENDMDL
MODEL 6
REMARK VINA RESULT:      -8.5      1.045      1.269
REMARK  Name = 
REMARK  7 active torsions:
REMARK  status: ('A' for Active; 'I' for Inactive)
REMARK    1  A    between atoms: C_1  and  N_2
REMARK    2  A    between atoms: C_3  and  C_5
REMARK    3  A    between atoms: C_10  and  C_11
REMARK    4  A    between atoms: C_11  and  C_12
REMARK    5  A    between atoms: C_12  and  N_13
REMARK    6  A    between atoms: N_16  and  C_17
REMARK    7  A    between atoms: C_22  and  C_23
REMARK                            x       y       z     vdW  Elec       q    Type
REMARK                         _______ _______ _______ _____ _____    ______ ____
ROOT
ATOM      1  C   UNL     1       8.012   7.880  17.243  0.00  0.00    +0.000 C 
ENDROOT
BRANCH   1   2
ATOM      2  N   UNL     1       6.584   7.617  17.103  0.00  0.00    +0.000 N 
ATOM      3  C   UNL     1       6.056   6.489  17.670  0.00  0.00    +0.000 C 
ATOM      4  O   UNL     1       6.754   5.758  18.359  0.00  0.00    +0.000 OA
ATOM      5  N   UNL     1       4.742   6.267  17.328  0.00  0.00    +0.000 N 
ATOM      6  H   UNL     1       5.970   8.376  16.846  0.00  0.00    +0.000 HD
ATOM      7  H   UNL     1       4.401   6.764  16.516  0.00  0.00    +0.000 HD
BRANCH   5   8
ATOM      8  C   UNL     1       3.987   5.147  17.770  0.00  0.00    +0.000 A 
ATOM      9  C   UNL     1       3.946   3.951  17.043  0.00  0.00    +0.000 A 
ATOM     10  C   UNL     1       3.126   2.897  17.434  0.00  0.00    +0.000 A 
ATOM     11  C   UNL     1       2.352   3.017  18.576  0.00  0.00    +0.000 A 
ATOM     12  F   UNL     1       1.560   1.992  18.912  0.00  0.00    +0.000 F 
ATOM     13  C   UNL     1       2.396   4.172  19.353  0.00  0.00    +0.000 A 
ATOM     14  C   UNL     1       3.237   5.236  18.951  0.00  0.00    +0.000 A 
BRANCH  13  15
ATOM     15  C   UNL     1       1.545   4.279  20.585  0.00  0.00    +0.000 C 
ATOM     16  F   UNL     1       1.856   3.412  21.586  0.00  0.00    +0.000 F 
ATOM     17  F   UNL     1       1.606   5.522  21.143  0.00  0.00    +0.000 F 
ATOM     18  F   UNL     1       0.226   4.066  20.313  0.00  0.00    +0.000 F 
ENDBRANCH  13  15
ENDBRANCH   5   8
ENDBRANCH   1   2
BRANCH   1  19
ATOM     19  C   UNL     1       8.415   8.489  18.599  0.00  0.00    +0.000 C 
BRANCH  19  25
ATOM     20  C   UNL     1      10.761  14.545  19.338  0.00  0.00    +0.000 A 
ATOM     21  C   UNL     1       9.810  14.063  18.449  0.00  0.00    +0.000 A 
ATOM     22  C   UNL     1       9.483  12.709  18.483  0.00  0.00    +0.000 A 
ATOM     23  C   UNL     1       8.538  12.189  17.595  0.00  0.00    +0.000 A 
ATOM     24  C   UNL     1       8.199  10.837  17.627  0.00  0.00    +0.000 A 
ATOM     25  C   UNL     1       8.800   9.960  18.538  0.00  0.00    +0.000 A 
ATOM     26  C   UNL     1       9.747  10.487  19.440  0.00  0.00    +0.000 A 
ATOM     27  C   UNL     1      10.104  11.859  19.414  0.00  0.00    +0.000 A 
ATOM     28  C   UNL     1      11.056  12.453  20.265  0.00  0.00    +0.000 A 
ATOM     29  N   UNL     1      11.402  13.770  20.254  0.00  0.00    +0.000 NA
BRANCH  20  32
ATOM     30  C   UNL     1      12.092  17.913  20.453  0.00  0.00    +0.000 C 
ATOM     31  N   UNL     1      11.705  16.529  20.401  0.00  0.00    +0.000 N 
ATOM     32  C   UNL     1      11.108  16.002  19.277  0.00  0.00    +0.000 C 
ATOM     33  O   UNL     1      10.867  16.668  18.274  0.00  0.00    +0.000 OA
ATOM     34  H   UNL     1      11.838  15.910  21.196  0.00  0.00    +0.000 HD
ENDBRANCH  20  32
ENDBRANCH  19  25
ENDBRANCH   1  19
TORSDOF 6
ENDMDL
MODEL 7
REMARK VINA RESULT:      -8.4      1.100      1.323
REMARK  Name = 
REMARK  7 active torsions:
REMARK  status: ('A' for Active; 'I' for Inactive)
REMARK    1  A    between atoms: C_1  and  N_2
REMARK    2  A    between atoms: C_3  and  C_5
REMARK    3  A    between atoms: C_10  and  C_11
REMARK    4  A    between atoms: C_11  and  C_12
REMARK    5  A    between atoms: C_12  and  N_13
REMARK    6  A    between atoms: N_16  and  C_17
REMARK    7  A    between atoms: C_22  and  C_23
REMARK                            x       y       z     vdW  Elec       q    Type
REMARK                         _______ _______ _______ _____ _____    ______ ____
ROOT
ATOM      1  C   UNL     1       8.043   6.925  18.779  0.00  0.00    +0.000 C 
ENDROOT
BRANCH   1   2
ATOM      2  N   UNL     1       7.541   5.587  18.487  0.00  0.00    +0.000 N 
ATOM      3  C   UNL     1       6.195   5.349  18.561  0.00  0.00    +0.000 C 
ATOM      4  O   UNL     1       5.417   6.267  18.782  0.00  0.00    +0.000 OA
ATOM      5  N   UNL     1       5.866   4.020  18.431  0.00  0.00    +0.000 N 
ATOM      6  H   UNL     1       8.130   4.945  17.979  0.00  0.00    +0.000 HD
ATOM      7  H   UNL     1       6.615   3.357  18.573  0.00  0.00    +0.000 HD
BRANCH   5   8
ATOM      8  C   UNL     1       4.535   3.524  18.500  0.00  0.00    +0.000 A 
ATOM      9  C   UNL     1       3.929   2.884  17.411  0.00  0.00    +0.000 A 
ATOM     10  C   UNL     1       2.595   2.491  17.457  0.00  0.00    +0.000 A 
ATOM     11  C   UNL     1       1.855   2.712  18.606  0.00  0.00    +0.000 A 
ATOM     12  F   UNL     1       0.569   2.340  18.609  0.00  0.00    +0.000 F 
ATOM     13  C   UNL     1       2.430   3.306  19.727  0.00  0.00    +0.000 A 
ATOM     14  C   UNL     1       3.788   3.697  19.673  0.00  0.00    +0.000 A 
BRANCH  13  15
ATOM     15  C   UNL     1       1.605   3.538  20.959  0.00  0.00    +0.000 C 
ATOM     16  F   UNL     1       2.267   4.098  22.007  0.00  0.00    +0.000 F 
ATOM     17  F   UNL     1       0.541   4.356  20.717  0.00  0.00    +0.000 F 
ATOM     18  F   UNL     1       1.071   2.379  21.441  0.00  0.00    +0.000 F 
ENDBRANCH  13  15
ENDBRANCH   5   8
ENDBRANCH   1   2
BRANCH   1  19
ATOM     19  C   UNL     1       7.823   7.947  17.648  0.00  0.00    +0.000 C 
BRANCH  19  25
ATOM     20  C   UNL     1      10.427  13.463  19.996  0.00  0.00    +0.000 A 
ATOM     21  C   UNL     1       9.514  13.280  18.966  0.00  0.00    +0.000 A 
ATOM     22  C   UNL     1       9.115  11.985  18.644  0.00  0.00    +0.000 A 
ATOM     23  C   UNL     1       8.206  11.763  17.606  0.00  0.00    +0.000 A 
ATOM     24  C   UNL     1       7.796  10.471  17.282  0.00  0.00    +0.000 A 
ATOM     25  C   UNL     1       8.287   9.358  17.977  0.00  0.00    +0.000 A 
ATOM     26  C   UNL     1       9.197   9.583  19.029  0.00  0.00    +0.000 A 
ATOM     27  C   UNL     1       9.626  10.892  19.365  0.00  0.00    +0.000 A 
ATOM     28  C   UNL     1      10.548  11.193  20.387  0.00  0.00    +0.000 A 
ATOM     29  N   UNL     1      10.963  12.445  20.723  0.00  0.00    +0.000 NA
BRANCH  20  32
ATOM     30  C   UNL     1      12.016  16.873  19.534  0.00  0.00    +0.000 C 
ATOM     31  N   UNL     1      11.565  15.521  19.339  0.00  0.00    +0.000 N 
ATOM     32  C   UNL     1      10.853  14.864  20.319  0.00  0.00    +0.000 C 
ATOM     33  O   UNL     1      10.570  15.377  21.398  0.00  0.00    +0.000 OA
ATOM     34  H   UNL     1      11.779  15.006  18.490  0.00  0.00    +0.000 HD
ENDBRANCH  20  32
ENDBRANCH  19  25
ENDBRANCH   1  19
TORSDOF 6
ENDMDL
MODEL 8
REMARK VINA RESULT:      -8.4      6.863      8.862
REMARK  Name = 
REMARK  7 active torsions:
REMARK  status: ('A' for Active; 'I' for Inactive)
REMARK    1  A    between atoms: C_1  and  N_2
REMARK    2  A    between atoms: C_3  and  C_5
REMARK    3  A    between atoms: C_10  and  C_11
REMARK    4  A    between atoms: C_11  and  C_12
REMARK    5  A    between atoms: C_12  and  N_13
REMARK    6  A    between atoms: N_16  and  C_17
REMARK    7  A    between atoms: C_22  and  C_23
REMARK                            x       y       z     vdW  Elec       q    Type
REMARK                         _______ _______ _______ _____ _____    ______ ____
ROOT
ATOM      1  C   UNL     1       1.510   2.818  21.682  0.00  0.00    +0.000 C 
ENDROOT
BRANCH   1   2
ATOM      2  N   UNL     1       2.210   4.091  21.551  0.00  0.00    +0.000 N 
ATOM      3  C   UNL     1       1.616   5.108  20.852  0.00  0.00    +0.000 C 
ATOM      4  O   UNL     1       0.478   4.979  20.420  0.00  0.00    +0.000 OA
ATOM      5  N   UNL     1       2.440   6.191  20.656  0.00  0.00    +0.000 N 
ATOM      6  H   UNL     1       2.964   4.302  22.186  0.00  0.00    +0.000 HD
ATOM      7  H   UNL     1       3.429   6.031  20.784  0.00  0.00    +0.000 HD
BRANCH   5   8
ATOM      8  C   UNL     1       2.057   7.357  19.936  0.00  0.00    +0.000 A 
ATOM      9  C   UNL     1       2.375   7.525  18.583  0.00  0.00    +0.000 A 
ATOM     10  C   UNL     1       2.082   8.711  17.916  0.00  0.00    +0.000 A 
ATOM     11  C   UNL     1       1.444   9.737  18.590  0.00  0.00    +0.000 A 
ATOM     12  F   UNL     1       1.196  10.872  17.924  0.00  0.00    +0.000 F 
ATOM     13  C   UNL     1       1.070   9.596  19.924  0.00  0.00    +0.000 A 
ATOM     14  C   UNL     1       1.367   8.385  20.594  0.00  0.00    +0.000 A 
BRANCH  13  15
ATOM     15  C   UNL     1       0.382  10.725  20.635  0.00  0.00    +0.000 C 
ATOM     16  F   UNL     1       1.077  11.893  20.684  0.00  0.00    +0.000 F 
ATOM     17  F   UNL     1      -0.818  11.034  20.065  0.00  0.00    +0.000 F 
ATOM     18  F   UNL     1       0.100  10.413  21.933  0.00  0.00    +0.000 F 
ENDBRANCH  13  15
ENDBRANCH   5   8
ENDBRANCH   1   2
BRANCH   1  19
ATOM     19  C   UNL     1       1.846   1.792  20.585  0.00  0.00    +0.000 C 
BRANCH  19  25
ATOM     20  C   UNL     1       6.138   4.530  16.484  0.00  0.00    +0.000 A 
ATOM     21  C   UNL     1       4.876   4.008  16.232  0.00  0.00    +0.000 A 
ATOM     22  C   UNL     1       4.150   3.463  17.288  0.00  0.00    +0.000 A 
ATOM     23  C   UNL     1       2.882   2.920  17.068  0.00  0.00    +0.000 A 
ATOM     24  C   UNL     1       2.146   2.379  18.121  0.00  0.00    +0.000 A 
ATOM     25  C   UNL     1       2.655   2.354  19.425  0.00  0.00    +0.000 A 
ATOM     26  C   UNL     1       3.931   2.910  19.648  0.00  0.00    +0.000 A 
ATOM     27  C   UNL     1       4.692   3.459  18.585  0.00  0.00    +0.000 A 
ATOM     28  C   UNL     1       5.980   4.010  18.727  0.00  0.00    +0.000 A 
ATOM     29  N   UNL     1       6.718   4.545  17.715  0.00  0.00    +0.000 NA
BRANCH  20  32
ATOM     30  C   UNL     1       7.378   4.970  12.930  0.00  0.00    +0.000 C 
ATOM     31  N   UNL     1       6.702   4.499  14.109  0.00  0.00    +0.000 N 
ATOM     32  C   UNL     1       6.908   5.101  15.331  0.00  0.00    +0.000 C 
ATOM     33  O   UNL     1       7.670   6.050  15.489  0.00  0.00    +0.000 OA
ATOM     34  H   UNL     1       6.076   3.700  14.079  0.00  0.00    +0.000 HD
ENDBRANCH  20  32
ENDBRANCH  19  25
ENDBRANCH   1  19
TORSDOF 6
ENDMDL
MODEL 9
REMARK VINA RESULT:      -8.4      7.049      9.033
REMARK  Name = 
REMARK  7 active torsions:
REMARK  status: ('A' for Active; 'I' for Inactive)
REMARK    1  A    between atoms: C_1  and  N_2
REMARK    2  A    between atoms: C_3  and  C_5
REMARK    3  A    between atoms: C_10  and  C_11
REMARK    4  A    between atoms: C_11  and  C_12
REMARK    5  A    between atoms: C_12  and  N_13
REMARK    6  A    between atoms: N_16  and  C_17
REMARK    7  A    between atoms: C_22  and  C_23
REMARK                            x       y       z     vdW  Elec       q    Type
REMARK                         _______ _______ _______ _____ _____    ______ ____
ROOT
ATOM      1  C   UNL     1       2.153   3.774  21.616  0.00  0.00    +0.000 C 
ENDROOT
BRANCH   1   2
ATOM      2  N   UNL     1       2.683   5.070  21.205  0.00  0.00    +0.000 N 
ATOM      3  C   UNL     1       1.814   6.045  20.797  0.00  0.00    +0.000 C 
ATOM      4  O   UNL     1       0.606   5.863  20.859  0.00  0.00    +0.000 OA
ATOM      5  N   UNL     1       2.441   7.155  20.279  0.00  0.00    +0.000 N 
ATOM      6  H   UNL     1       3.619   5.325  21.483  0.00  0.00    +0.000 HD
ATOM      7  H   UNL     1       3.405   7.035  20.001  0.00  0.00    +0.000 HD
BRANCH   5   8
ATOM      8  C   UNL     1       1.750   8.287  19.766  0.00  0.00    +0.000 A 
ATOM      9  C   UNL     1       1.811   8.636  18.411  0.00  0.00    +0.000 A 
ATOM     10  C   UNL     1       1.213   9.800  17.938  0.00  0.00    +0.000 A 
ATOM     11  C   UNL     1       0.523  10.620  18.815  0.00  0.00    +0.000 A 
ATOM     12  F   UNL     1      -0.023  11.742  18.331  0.00  0.00    +0.000 F 
ATOM     13  C   UNL     1       0.400  10.289  20.162  0.00  0.00    +0.000 A 
ATOM     14  C   UNL     1       1.007   9.100  20.632  0.00  0.00    +0.000 A 
BRANCH  13  15
ATOM     15  C   UNL     1      -0.351  11.196  21.092  0.00  0.00    +0.000 C 
ATOM     16  F   UNL     1      -1.612  11.519  20.700  0.00  0.00    +0.000 F 
ATOM     17  F   UNL     1      -0.479  10.659  22.339  0.00  0.00    +0.000 F 
ATOM     18  F   UNL     1       0.292  12.386  21.273  0.00  0.00    +0.000 F 
ENDBRANCH  13  15
ENDBRANCH   5   8
ENDBRANCH   1   2
BRANCH   1  19
ATOM     19  C   UNL     1       1.936   2.781  20.459  0.00  0.00    +0.000 C 
BRANCH  19  25
ATOM     20  C   UNL     1       6.240   4.468  15.838  0.00  0.00    +0.000 A 
ATOM     21  C   UNL     1       4.910   4.090  15.717  0.00  0.00    +0.000 A 
ATOM     22  C   UNL     1       4.197   3.764  16.869  0.00  0.00    +0.000 A 
ATOM     23  C   UNL     1       2.859   3.368  16.782  0.00  0.00    +0.000 A 
ATOM     24  C   UNL     1       2.136   3.047  17.930  0.00  0.00    +0.000 A 
ATOM     25  C   UNL     1       2.726   3.102  19.199  0.00  0.00    +0.000 A 
ATOM     26  C   UNL     1       4.073   3.510  19.286  0.00  0.00    +0.000 A 
ATOM     27  C   UNL     1       4.821   3.834  18.126  0.00  0.00    +0.000 A 
ATOM     28  C   UNL     1       6.174   4.226  18.132  0.00  0.00    +0.000 A 
ATOM     29  N   UNL     1       6.901   4.545  17.025  0.00  0.00    +0.000 NA
BRANCH  20  32
ATOM     30  C   UNL     1       7.270   4.357  12.193  0.00  0.00    +0.000 C 
ATOM     31  N   UNL     1       6.624   4.111  13.454  0.00  0.00    +0.000 N 
ATOM     32  C   UNL     1       6.994   4.803  14.586  0.00  0.00    +0.000 C 
ATOM     33  O   UNL     1       7.883   5.650  14.591  0.00  0.00    +0.000 OA
ATOM     34  H   UNL     1       5.899   3.406  13.551  0.00  0.00    +0.000 HD
ENDBRANCH  20  32
ENDBRANCH  19  25
ENDBRANCH   1  19
TORSDOF 6
ENDMDL
