MODEL 1
REMARK VINA RESULT:      -7.5      0.000      0.000
REMARK  Name = 
REMARK  9 active torsions:
REMARK  status: ('A' for Active; 'I' for Inactive)
REMARK    1  A    between atoms: C_1  and  C_2
REMARK    2  A    between atoms: C_2  and  N_3
REMARK    3  A    between atoms: C_5  and  C_6
REMARK    4  A    between atoms: C_6  and  O_8
REMARK    5  A    between atoms: C_15  and  N_16
REMARK    6  A    between atoms: N_19  and  C_20
REMARK    7  A    between atoms: C_20  and  C_21
REMARK    8  A    between atoms: C_21  and  C_22
REMARK    9  A    between atoms: C_22  and  C_23
REMARK                            x       y       z     vdW  Elec       q    Type
REMARK                         _______ _______ _______ _____ _____    ______ ____
ROOT
ATOM      1  N   UNL     1       2.838   5.336  20.019  0.00  0.00    +0.000 N 
ATOM      2  C   UNL     1       3.595   4.542  19.165  0.00  0.00    +0.000 A 
ATOM      3  C   UNL     1       4.128   4.920  17.994  0.00  0.00    +0.000 A 
ATOM      4  C   UNL     1       3.899   6.312  17.573  0.00  0.00    +0.000 A 
ATOM      5  O   UNL     1       4.407   6.738  16.536  0.00  0.00    +0.000 OA
ATOM      6  C   UNL     1       3.019   7.159  18.409  0.00  0.00    +0.000 A 
ATOM      7  C   UNL     1       2.685   8.435  17.950  0.00  0.00    +0.000 A 
ATOM      8  C   UNL     1       1.771   9.201  18.662  0.00  0.00    +0.000 A 
ATOM      9  F   UNL     1       1.406  10.372  18.119  0.00  0.00    +0.000 F 
ATOM     10  C   UNL     1       1.193   8.742  19.855  0.00  0.00    +0.000 A 
ATOM     11  C   UNL     1       1.634   7.486  20.327  0.00  0.00    +0.000 A 
ATOM     12  C   UNL     1       2.503   6.647  19.611  0.00  0.00    +0.000 A 
ENDROOT
BRANCH  10  13
ATOM     13  N   UNL     1       0.219   9.425  20.574  0.00  0.00    +0.000 N 
ATOM     14  C   UNL     1      -0.402   8.878  21.794  0.00  0.00    +0.000 C 
ATOM     15  C   UNL     1      -0.088   9.746  23.033  0.00  0.00    +0.000 C 
ATOM     16  N   UNL     1      -0.401  11.191  22.873  0.00  0.00    +0.000 NA
ATOM     17  C   UNL     1       0.373  11.663  21.698  0.00  0.00    +0.000 C 
ATOM     18  C   UNL     1       0.103  10.888  20.385  0.00  0.00    +0.000 C 
BRANCH  16  19
ATOM     19  C   UNL     1      -1.841  11.460  22.664  0.00  0.00    +0.000 C 
BRANCH  19  20
ATOM     20  C   UNL     1      -2.280  12.854  23.110  0.00  0.00    +0.000 C 
BRANCH  20  21
ATOM     21  C   UNL     1      -3.640  12.810  23.778  0.00  0.00    +0.000 C 
ATOM     22  C   UNL     1      -4.430  14.093  23.786  0.00  0.00    +0.000 C 
ATOM     23  O   UNL     1      -4.085  11.799  24.320  0.00  0.00    +0.000 OA
ENDBRANCH  20  21
ENDBRANCH  19  20
ENDBRANCH  16  19
ENDBRANCH  10  13
BRANCH   1  25
ATOM     24  C   UNL     1       1.382   3.549  20.922  0.00  0.00    +0.000 C 
ATOM     25  C   UNL     1       2.240   4.765  21.245  0.00  0.00    +0.000 C 
ENDBRANCH   1  25
BRANCH   3  26
ATOM     26  C   UNL     1       4.877   3.937  17.180  0.00  0.00    +0.000 C 
ATOM     27  O   UNL     1       4.341   3.022  16.573  0.00  0.00    +0.000 OA
BRANCH  26  28
ATOM     28  O   UNL     1       6.211   4.144  17.142  0.00  0.00    +0.000 OA
ATOM     29  H   UNL     1       6.652   4.093  18.025  0.00  0.00    +0.000 HD
ENDBRANCH  26  28
ENDBRANCH   3  26
TORSDOF 7
ENDMDL
MODEL 2
REMARK VINA RESULT:      -7.5      2.451      9.408
REMARK  Name = 
REMARK  9 active torsions:
REMARK  status: ('A' for Active; 'I' for Inactive)
REMARK    1  A    between atoms: C_1  and  C_2
REMARK    2  A    between atoms: C_2  and  N_3
REMARK    3  A    between atoms: C_5  and  C_6
REMARK    4  A    between atoms: C_6  and  O_8
REMARK    5  A    between atoms: C_15  and  N_16
REMARK    6  A    between atoms: N_19  and  C_20
REMARK    7  A    between atoms: C_20  and  C_21
REMARK    8  A    between atoms: C_21  and  C_22
REMARK    9  A    between atoms: C_22  and  C_23
REMARK                            x       y       z     vdW  Elec       q    Type
REMARK                         _______ _______ _______ _____ _____    ______ ____
ROOT
ATOM      1  N   UNL     1       1.101  10.571  19.367  0.00  0.00    +0.000 N 
ATOM      2  C   UNL     1       0.150  11.272  20.101  0.00  0.00    +0.000 A 
ATOM      3  C   UNL     1      -0.478  10.839  21.203  0.00  0.00    +0.000 A 
ATOM      4  C   UNL     1      -0.123   9.496  21.692  0.00  0.00    +0.000 A 
ATOM      5  O   UNL     1      -0.623   9.062  22.729  0.00  0.00    +0.000 OA
ATOM      6  C   UNL     1       0.813   8.683  20.884  0.00  0.00    +0.000 A 
ATOM      7  C   UNL     1       1.051   7.361  21.264  0.00  0.00    +0.000 A 
ATOM      8  C   UNL     1       1.836   6.547  20.456  0.00  0.00    +0.000 A 
ATOM      9  F   UNL     1       1.941   5.258  20.813  0.00  0.00    +0.000 F 
ATOM     10  C   UNL     1       2.428   7.026  19.278  0.00  0.00    +0.000 A 
ATOM     11  C   UNL     1       2.236   8.395  18.987  0.00  0.00    +0.000 A 
ATOM     12  C   UNL     1       1.399   9.239  19.734  0.00  0.00    +0.000 A 
ENDROOT
BRANCH  10  13
ATOM     13  N   UNL     1       3.161   6.248  18.390  0.00  0.00    +0.000 N 
ATOM     14  C   UNL     1       4.634   6.220  18.380  0.00  0.00    +0.000 C 
ATOM     15  C   UNL     1       5.181   4.819  18.733  0.00  0.00    +0.000 C 
ATOM     16  N   UNL     1       4.620   3.711  17.917  0.00  0.00    +0.000 NA
ATOM     17  C   UNL     1       3.147   3.755  18.102  0.00  0.00    +0.000 C 
ATOM     18  C   UNL     1       2.485   5.105  17.735  0.00  0.00    +0.000 C 
BRANCH  16  19
ATOM     19  C   UNL     1       4.946   3.816  16.478  0.00  0.00    +0.000 C 
BRANCH  19  20
ATOM     20  C   UNL     1       6.442   3.938  16.190  0.00  0.00    +0.000 C 
BRANCH  20  21
ATOM     21  C   UNL     1       6.686   4.523  14.813  0.00  0.00    +0.000 C 
ATOM     22  C   UNL     1       5.913   3.913  13.673  0.00  0.00    +0.000 C 
ATOM     23  O   UNL     1       7.493   5.430  14.606  0.00  0.00    +0.000 OA
ENDBRANCH  20  21
ENDBRANCH  19  20
ENDBRANCH  16  19
ENDBRANCH  10  13
BRANCH   1  25
ATOM     24  C   UNL     1       2.307  12.490  18.370  0.00  0.00    +0.000 C 
ATOM     25  C   UNL     1       1.655  11.137  18.118  0.00  0.00    +0.000 C 
ENDBRANCH   1  25
BRANCH   3  26
ATOM     26  C   UNL     1      -1.499  11.695  21.846  0.00  0.00    +0.000 C 
ATOM     27  O   UNL     1      -2.343  12.318  21.220  0.00  0.00    +0.000 OA
BRANCH  26  28
ATOM     28  O   UNL     1      -1.440  11.717  23.196  0.00  0.00    +0.000 OA
ATOM     29  H   UNL     1      -1.794  10.901  23.628  0.00  0.00    +0.000 HD
ENDBRANCH  26  28
ENDBRANCH   3  26
TORSDOF 7
ENDMDL
MODEL 3
REMARK VINA RESULT:      -7.4      1.237      1.519
REMARK  Name = 
REMARK  9 active torsions:
REMARK  status: ('A' for Active; 'I' for Inactive)
REMARK    1  A    between atoms: C_1  and  C_2
REMARK    2  A    between atoms: C_2  and  N_3
REMARK    3  A    between atoms: C_5  and  C_6
REMARK    4  A    between atoms: C_6  and  O_8
REMARK    5  A    between atoms: C_15  and  N_16
REMARK    6  A    between atoms: N_19  and  C_20
REMARK    7  A    between atoms: C_20  and  C_21
REMARK    8  A    between atoms: C_21  and  C_22
REMARK    9  A    between atoms: C_22  and  C_23
REMARK                            x       y       z     vdW  Elec       q    Type
REMARK                         _______ _______ _______ _____ _____    ______ ____
ROOT
ATOM      1  N   UNL     1       2.592   5.288  19.978  0.00  0.00    +0.000 N 
ATOM      2  C   UNL     1       3.266   4.337  19.219  0.00  0.00    +0.000 A 
ATOM      3  C   UNL     1       3.896   4.552  18.055  0.00  0.00    +0.000 A 
ATOM      4  C   UNL     1       3.882   5.928  17.532  0.00  0.00    +0.000 A 
ATOM      5  O   UNL     1       4.488   6.204  16.497  0.00  0.00    +0.000 OA
ATOM      6  C   UNL     1       3.095   6.946  18.262  0.00  0.00    +0.000 A 
ATOM      7  C   UNL     1       2.963   8.219  17.702  0.00  0.00    +0.000 A 
ATOM      8  C   UNL     1       2.136   9.153  18.313  0.00  0.00    +0.000 A 
ATOM      9  F   UNL     1       1.962  10.320  17.675  0.00  0.00    +0.000 F 
ATOM     10  C   UNL     1       1.449   8.866  19.502  0.00  0.00    +0.000 A 
ATOM     11  C   UNL     1       1.689   7.599  20.079  0.00  0.00    +0.000 A 
ATOM     12  C   UNL     1       2.462   6.599  19.467  0.00  0.00    +0.000 A 
ENDROOT
BRANCH  10  13
ATOM     13  N   UNL     1       0.551   9.726  20.122  0.00  0.00    +0.000 N 
ATOM     14  C   UNL     1       0.954  10.680  21.171  0.00  0.00    +0.000 C 
ATOM     15  C   UNL     1       0.737  12.143  20.727  0.00  0.00    +0.000 C 
ATOM     16  N   UNL     1      -0.630  12.444  20.227  0.00  0.00    +0.000 NA
ATOM     17  C   UNL     1      -0.880  11.515  19.096  0.00  0.00    +0.000 C 
ATOM     18  C   UNL     1      -0.732  10.013  19.442  0.00  0.00    +0.000 C 
BRANCH  16  19
ATOM     19  C   UNL     1      -1.682  12.274  21.254  0.00  0.00    +0.000 C 
BRANCH  19  20
ATOM     20  C   UNL     1      -3.055  12.786  20.823  0.00  0.00    +0.000 C 
BRANCH  20  21
ATOM     21  C   UNL     1      -4.063  12.659  21.948  0.00  0.00    +0.000 C 
ATOM     22  C   UNL     1      -3.574  12.990  23.333  0.00  0.00    +0.000 C 
ATOM     23  O   UNL     1      -5.220  12.276  21.768  0.00  0.00    +0.000 OA
ENDBRANCH  20  21
ENDBRANCH  19  20
ENDBRANCH  16  19
ENDBRANCH  10  13
BRANCH   1  25
ATOM     24  C   UNL     1       2.155   3.446  21.574  0.00  0.00    +0.000 C 
ATOM     25  C   UNL     1       1.867   4.895  21.206  0.00  0.00    +0.000 C 
ENDBRANCH   1  25
BRANCH   3  26
ATOM     26  C   UNL     1       4.533   3.420  17.349  0.00  0.00    +0.000 C 
ATOM     27  O   UNL     1       4.023   2.313  17.258  0.00  0.00    +0.000 OA
BRANCH  26  28
ATOM     28  O   UNL     1       5.726   3.712  16.787  0.00  0.00    +0.000 OA
ATOM     29  H   UNL     1       5.754   3.575  15.808  0.00  0.00    +0.000 HD
ENDBRANCH  26  28
ENDBRANCH   3  26
TORSDOF 7
ENDMDL
MODEL 4
REMARK VINA RESULT:      -7.2      1.210      1.420
REMARK  Name = 
REMARK  9 active torsions:
REMARK  status: ('A' for Active; 'I' for Inactive)
REMARK    1  A    between atoms: C_1  and  C_2
REMARK    2  A    between atoms: C_2  and  N_3
REMARK    3  A    between atoms: C_5  and  C_6
REMARK    4  A    between atoms: C_6  and  O_8
REMARK    5  A    between atoms: C_15  and  N_16
REMARK    6  A    between atoms: N_19  and  C_20
REMARK    7  A    between atoms: C_20  and  C_21
REMARK    8  A    between atoms: C_21  and  C_22
REMARK    9  A    between atoms: C_22  and  C_23
REMARK                            x       y       z     vdW  Elec       q    Type
REMARK                         _______ _______ _______ _____ _____    ______ ____
ROOT
ATOM      1  N   UNL     1       2.661   5.213  19.968  0.00  0.00    +0.000 N 
ATOM      2  C   UNL     1       3.323   4.268  19.190  0.00  0.00    +0.000 A 
ATOM      3  C   UNL     1       3.928   4.491  18.015  0.00  0.00    +0.000 A 
ATOM      4  C   UNL     1       3.900   5.869  17.499  0.00  0.00    +0.000 A 
ATOM      5  O   UNL     1       4.483   6.152  16.453  0.00  0.00    +0.000 OA
ATOM      6  C   UNL     1       3.124   6.881  18.250  0.00  0.00    +0.000 A 
ATOM      7  C   UNL     1       2.976   8.156  17.699  0.00  0.00    +0.000 A 
ATOM      8  C   UNL     1       2.158   9.084  18.331  0.00  0.00    +0.000 A 
ATOM      9  F   UNL     1       1.967  10.254  17.702  0.00  0.00    +0.000 F 
ATOM     10  C   UNL     1       1.496   8.789  19.532  0.00  0.00    +0.000 A 
ATOM     11  C   UNL     1       1.752   7.520  20.098  0.00  0.00    +0.000 A 
ATOM     12  C   UNL     1       2.516   6.525  19.465  0.00  0.00    +0.000 A 
ENDROOT
BRANCH  10  13
ATOM     13  N   UNL     1       0.607   9.643  20.175  0.00  0.00    +0.000 N 
ATOM     14  C   UNL     1       1.017  10.549  21.262  0.00  0.00    +0.000 C 
ATOM     15  C   UNL     1       0.832  12.032  20.868  0.00  0.00    +0.000 C 
ATOM     16  N   UNL     1      -0.525  12.376  20.367  0.00  0.00    +0.000 NA
ATOM     17  C   UNL     1      -0.779  11.493  19.201  0.00  0.00    +0.000 C 
ATOM     18  C   UNL     1      -0.663   9.978  19.493  0.00  0.00    +0.000 C 
BRANCH  16  19
ATOM     19  C   UNL     1      -1.590  12.189  21.377  0.00  0.00    +0.000 C 
BRANCH  19  20
ATOM     20  C   UNL     1      -1.231  12.727  22.761  0.00  0.00    +0.000 C 
BRANCH  20  21
ATOM     21  C   UNL     1      -2.437  13.355  23.432  0.00  0.00    +0.000 C 
ATOM     22  C   UNL     1      -3.747  12.626  23.284  0.00  0.00    +0.000 C 
ATOM     23  O   UNL     1      -2.380  14.421  24.045  0.00  0.00    +0.000 OA
ENDBRANCH  20  21
ENDBRANCH  19  20
ENDBRANCH  16  19
ENDBRANCH  10  13
BRANCH   1  25
ATOM     24  C   UNL     1       1.483   3.369  21.126  0.00  0.00    +0.000 C 
ATOM     25  C   UNL     1       1.963   4.811  21.208  0.00  0.00    +0.000 C 
ENDBRANCH   1  25
BRANCH   3  26
ATOM     26  C   UNL     1       4.555   3.364  17.291  0.00  0.00    +0.000 C 
ATOM     27  O   UNL     1       4.044   2.258  17.198  0.00  0.00    +0.000 OA
BRANCH  26  28
ATOM     28  O   UNL     1       5.740   3.661  16.714  0.00  0.00    +0.000 OA
ATOM     29  H   UNL     1       5.721   4.471  16.148  0.00  0.00    +0.000 HD
ENDBRANCH  26  28
ENDBRANCH   3  26
TORSDOF 7
ENDMDL
MODEL 5
REMARK VINA RESULT:      -7.0      3.008      8.209
REMARK  Name = 
REMARK  9 active torsions:
REMARK  status: ('A' for Active; 'I' for Inactive)
REMARK    1  A    between atoms: C_1  and  C_2
REMARK    2  A    between atoms: C_2  and  N_3
REMARK    3  A    between atoms: C_5  and  C_6
REMARK    4  A    between atoms: C_6  and  O_8
REMARK    5  A    between atoms: C_15  and  N_16
REMARK    6  A    between atoms: N_19  and  C_20
REMARK    7  A    between atoms: C_20  and  C_21
REMARK    8  A    between atoms: C_21  and  C_22
REMARK    9  A    between atoms: C_22  and  C_23
REMARK                            x       y       z     vdW  Elec       q    Type
REMARK                         _______ _______ _______ _____ _____    ______ ____
ROOT
ATOM      1  N   UNL     1       0.244   9.823  20.950  0.00  0.00    +0.000 N 
ATOM      2  C   UNL     1       0.127  11.208  21.018  0.00  0.00    +0.000 A 
ATOM      3  C   UNL     1       0.616  12.090  20.135  0.00  0.00    +0.000 A 
ATOM      4  C   UNL     1       1.340  11.544  18.975  0.00  0.00    +0.000 A 
ATOM      5  O   UNL     1       1.766  12.297  18.100  0.00  0.00    +0.000 OA
ATOM      6  C   UNL     1       1.568  10.083  18.917  0.00  0.00    +0.000 A 
ATOM      7  C   UNL     1       2.369   9.571  17.895  0.00  0.00    +0.000 A 
ATOM      8  C   UNL     1       2.689   8.218  17.889  0.00  0.00    +0.000 A 
ATOM      9  F   UNL     1       3.548   7.802  16.947  0.00  0.00    +0.000 F 
ATOM     10  C   UNL     1       2.201   7.339  18.867  0.00  0.00    +0.000 A 
ATOM     11  C   UNL     1       1.318   7.888  19.824  0.00  0.00    +0.000 A 
ATOM     12  C   UNL     1       1.019   9.257  19.912  0.00  0.00    +0.000 A 
ENDROOT
BRANCH  10  13
ATOM     13  N   UNL     1       2.541   5.995  18.961  0.00  0.00    +0.000 N 
ATOM     14  C   UNL     1       2.149   5.000  17.947  0.00  0.00    +0.000 C 
ATOM     15  C   UNL     1       3.380   4.386  17.244  0.00  0.00    +0.000 C 
ATOM     16  N   UNL     1       4.409   3.836  18.164  0.00  0.00    +0.000 NA
ATOM     17  C   UNL     1       4.822   4.952  19.052  0.00  0.00    +0.000 C 
ATOM     18  C   UNL     1       3.668   5.615  19.843  0.00  0.00    +0.000 C 
BRANCH  16  19
ATOM     19  C   UNL     1       3.923   2.702  18.981  0.00  0.00    +0.000 C 
BRANCH  19  20
ATOM     20  C   UNL     1       2.752   1.946  18.354  0.00  0.00    +0.000 C 
BRANCH  20  21
ATOM     21  C   UNL     1       1.488   2.124  19.170  0.00  0.00    +0.000 C 
ATOM     22  C   UNL     1       1.667   2.465  20.627  0.00  0.00    +0.000 C 
ATOM     23  O   UNL     1       0.361   1.972  18.698  0.00  0.00    +0.000 OA
ENDBRANCH  20  21
ENDBRANCH  19  20
ENDBRANCH  16  19
ENDBRANCH  10  13
BRANCH   1  25
ATOM     24  C   UNL     1      -0.122   9.653  23.392  0.00  0.00    +0.000 C 
ATOM     25  C   UNL     1      -0.273   8.969  22.040  0.00  0.00    +0.000 C 
ENDBRANCH   1  25
BRANCH   3  26
ATOM     26  C   UNL     1       0.439  13.539  20.375  0.00  0.00    +0.000 C 
ATOM     27  O   UNL     1      -0.653  14.064  20.536  0.00  0.00    +0.000 OA
BRANCH  26  28
ATOM     28  O   UNL     1       1.592  14.242  20.425  0.00  0.00    +0.000 OA
ATOM     29  H   UNL     1       2.375  13.711  20.711  0.00  0.00    +0.000 HD
ENDBRANCH  26  28
ENDBRANCH   3  26
TORSDOF 7
ENDMDL
MODEL 6
REMARK VINA RESULT:      -6.9      3.153      4.186
REMARK  Name = 
REMARK  9 active torsions:
REMARK  status: ('A' for Active; 'I' for Inactive)
REMARK    1  A    between atoms: C_1  and  C_2
REMARK    2  A    between atoms: C_2  and  N_3
REMARK    3  A    between atoms: C_5  and  C_6
REMARK    4  A    between atoms: C_6  and  O_8
REMARK    5  A    between atoms: C_15  and  N_16
REMARK    6  A    between atoms: N_19  and  C_20
REMARK    7  A    between atoms: C_20  and  C_21
REMARK    8  A    between atoms: C_21  and  C_22
REMARK    9  A    between atoms: C_22  and  C_23
REMARK                            x       y       z     vdW  Elec       q    Type
REMARK                         _______ _______ _______ _____ _____    ______ ____
ROOT
ATOM      1  N   UNL     1       3.873   5.487  18.118  0.00  0.00    +0.000 N 
ATOM      2  C   UNL     1       4.333   4.219  18.456  0.00  0.00    +0.000 A 
ATOM      3  C   UNL     1       3.892   3.459  19.469  0.00  0.00    +0.000 A 
ATOM      4  C   UNL     1       2.811   4.014  20.301  0.00  0.00    +0.000 A 
ATOM      5  O   UNL     1       2.324   3.346  21.212  0.00  0.00    +0.000 OA
ATOM      6  C   UNL     1       2.363   5.399  20.031  0.00  0.00    +0.000 A 
ATOM      7  C   UNL     1       1.437   5.983  20.898  0.00  0.00    +0.000 A 
ATOM      8  C   UNL     1       1.089   7.318  20.730  0.00  0.00    +0.000 A 
ATOM      9  F   UNL     1       0.280   7.856  21.654  0.00  0.00    +0.000 F 
ATOM     10  C   UNL     1       1.620   8.094  19.688  0.00  0.00    +0.000 A 
ATOM     11  C   UNL     1       2.479   7.431  18.783  0.00  0.00    +0.000 A 
ATOM     12  C   UNL     1       2.911   6.106  18.948  0.00  0.00    +0.000 A 
ENDROOT
BRANCH  10  13
ATOM     13  N   UNL     1       1.373   9.449  19.509  0.00  0.00    +0.000 N 
ATOM     14  C   UNL     1       0.822  10.001  18.258  0.00  0.00    +0.000 C 
ATOM     15  C   UNL     1      -0.564  10.647  18.480  0.00  0.00    +0.000 C 
ATOM     16  N   UNL     1      -0.612  11.651  19.575  0.00  0.00    +0.000 NA
ATOM     17  C   UNL     1      -0.160  10.955  20.806  0.00  0.00    +0.000 C 
ATOM     18  C   UNL     1       1.242  10.305  20.710  0.00  0.00    +0.000 C 
BRANCH  16  19
ATOM     19  C   UNL     1       0.243  12.833  19.328  0.00  0.00    +0.000 C 
BRANCH  19  20
ATOM     20  C   UNL     1      -0.537  14.137  19.165  0.00  0.00    +0.000 C 
BRANCH  20  21
ATOM     21  C   UNL     1       0.399  15.309  18.946  0.00  0.00    +0.000 C 
ATOM     22  C   UNL     1      -0.223  16.585  18.443  0.00  0.00    +0.000 C 
ATOM     23  O   UNL     1       1.614  15.237  19.134  0.00  0.00    +0.000 OA
ENDBRANCH  20  21
ENDBRANCH  19  20
ENDBRANCH  16  19
ENDBRANCH  10  13
BRANCH   1  25
ATOM     24  C   UNL     1       5.990   6.474  17.296  0.00  0.00    +0.000 C 
ATOM     25  C   UNL     1       4.509   6.251  17.023  0.00  0.00    +0.000 C 
ENDBRANCH   1  25
BRANCH   3  26
ATOM     26  C   UNL     1       4.517   2.142  19.721  0.00  0.00    +0.000 C 
ATOM     27  O   UNL     1       5.218   1.908  20.694  0.00  0.00    +0.000 OA
BRANCH  26  28
ATOM     28  O   UNL     1       4.231   1.201  18.795  0.00  0.00    +0.000 OA
ATOM     29  H   UNL     1       4.819   0.407  18.833  0.00  0.00    +0.000 HD
ENDBRANCH  26  28
ENDBRANCH   3  26
TORSDOF 7
ENDMDL
MODEL 7
REMARK VINA RESULT:      -6.9      2.791      9.609
REMARK  Name = 
REMARK  9 active torsions:
REMARK  status: ('A' for Active; 'I' for Inactive)
REMARK    1  A    between atoms: C_1  and  C_2
REMARK    2  A    between atoms: C_2  and  N_3
REMARK    3  A    between atoms: C_5  and  C_6
REMARK    4  A    between atoms: C_6  and  O_8
REMARK    5  A    between atoms: C_15  and  N_16
REMARK    6  A    between atoms: N_19  and  C_20
REMARK    7  A    between atoms: C_20  and  C_21
REMARK    8  A    between atoms: C_21  and  C_22
REMARK    9  A    between atoms: C_22  and  C_23
REMARK                            x       y       z     vdW  Elec       q    Type
REMARK                         _______ _______ _______ _____ _____    ______ ____
ROOT
ATOM      1  N   UNL     1       1.381  10.318  19.153  0.00  0.00    +0.000 N 
ATOM      2  C   UNL     1       0.501  10.968  20.012  0.00  0.00    +0.000 A 
ATOM      3  C   UNL     1      -0.027  10.465  21.137  0.00  0.00    +0.000 A 
ATOM      4  C   UNL     1       0.367   9.095  21.506  0.00  0.00    +0.000 A 
ATOM      5  O   UNL     1      -0.039   8.595  22.554  0.00  0.00    +0.000 OA
ATOM      6  C   UNL     1       1.225   8.338  20.569  0.00  0.00    +0.000 A 
ATOM      7  C   UNL     1       1.492   6.995  20.841  0.00  0.00    +0.000 A 
ATOM      8  C   UNL     1       2.199   6.236  19.917  0.00  0.00    +0.000 A 
ATOM      9  F   UNL     1       2.333   4.927  20.181  0.00  0.00    +0.000 F 
ATOM     10  C   UNL     1       2.685   6.790  18.724  0.00  0.00    +0.000 A 
ATOM     11  C   UNL     1       2.471   8.174  18.538  0.00  0.00    +0.000 A 
ATOM     12  C   UNL     1       1.706   8.967  19.408  0.00  0.00    +0.000 A 
ENDROOT
BRANCH  10  13
ATOM     13  N   UNL     1       3.333   6.071  17.726  0.00  0.00    +0.000 N 
ATOM     14  C   UNL     1       4.495   6.599  16.989  0.00  0.00    +0.000 C 
ATOM     15  C   UNL     1       5.763   5.753  17.241  0.00  0.00    +0.000 C 
ATOM     16  N   UNL     1       5.595   4.296  17.002  0.00  0.00    +0.000 NA
ATOM     17  C   UNL     1       4.488   3.849  17.885  0.00  0.00    +0.000 C 
ATOM     18  C   UNL     1       3.151   4.602  17.687  0.00  0.00    +0.000 C 
BRANCH  16  19
ATOM     19  C   UNL     1       5.276   3.963  15.596  0.00  0.00    +0.000 C 
BRANCH  19  20
ATOM     20  C   UNL     1       6.389   4.315  14.610  0.00  0.00    +0.000 C 
BRANCH  20  21
ATOM     21  C   UNL     1       6.017   3.906  13.198  0.00  0.00    +0.000 C 
ATOM     22  C   UNL     1       7.139   3.850  12.194  0.00  0.00    +0.000 C 
ATOM     23  O   UNL     1       4.861   3.657  12.858  0.00  0.00    +0.000 OA
ENDBRANCH  20  21
ENDBRANCH  19  20
ENDBRANCH  16  19
ENDBRANCH  10  13
BRANCH   1  25
ATOM     24  C   UNL     1       2.403  12.345  18.165  0.00  0.00    +0.000 C 
ATOM     25  C   UNL     1       1.822  10.963  17.898  0.00  0.00    +0.000 C 
ENDBRANCH   1  25
BRANCH   3  26
ATOM     26  C   UNL     1      -0.984  11.276  21.921  0.00  0.00    +0.000 C 
ATOM     27  O   UNL     1      -1.847  11.975  21.411  0.00  0.00    +0.000 OA
BRANCH  26  28
ATOM     28  O   UNL     1      -0.844  11.166  23.260  0.00  0.00    +0.000 OA
ATOM     29  H   UNL     1      -0.034  10.672  23.541  0.00  0.00    +0.000 HD
ENDBRANCH  26  28
ENDBRANCH   3  26
TORSDOF 7
ENDMDL
MODEL 8
REMARK VINA RESULT:      -6.8      2.970      4.004
REMARK  Name = 
REMARK  9 active torsions:
REMARK  status: ('A' for Active; 'I' for Inactive)
REMARK    1  A    between atoms: C_1  and  C_2
REMARK    2  A    between atoms: C_2  and  N_3
REMARK    3  A    between atoms: C_5  and  C_6
REMARK    4  A    between atoms: C_6  and  O_8
REMARK    5  A    between atoms: C_15  and  N_16
REMARK    6  A    between atoms: N_19  and  C_20
REMARK    7  A    between atoms: C_20  and  C_21
REMARK    8  A    between atoms: C_21  and  C_22
REMARK    9  A    between atoms: C_22  and  C_23
REMARK                            x       y       z     vdW  Elec       q    Type
REMARK                         _______ _______ _______ _____ _____    ______ ____
ROOT
ATOM      1  N   UNL     1       3.722   5.652  17.951  0.00  0.00    +0.000 N 
ATOM      2  C   UNL     1       4.134   4.348  18.201  0.00  0.00    +0.000 A 
ATOM      3  C   UNL     1       3.683   3.546  19.177  0.00  0.00    +0.000 A 
ATOM      4  C   UNL     1       2.645   4.094  20.066  0.00  0.00    +0.000 A 
ATOM      5  O   UNL     1       2.150   3.392  20.947  0.00  0.00    +0.000 OA
ATOM      6  C   UNL     1       2.251   5.510  19.891  0.00  0.00    +0.000 A 
ATOM      7  C   UNL     1       1.370   6.078  20.813  0.00  0.00    +0.000 A 
ATOM      8  C   UNL     1       1.077   7.434  20.734  0.00  0.00    +0.000 A 
ATOM      9  F   UNL     1       0.311   7.948  21.708  0.00  0.00    +0.000 F 
ATOM     10  C   UNL     1       1.617   8.249  19.728  0.00  0.00    +0.000 A 
ATOM     11  C   UNL     1       2.427   7.608  18.764  0.00  0.00    +0.000 A 
ATOM     12  C   UNL     1       2.806   6.258  18.839  0.00  0.00    +0.000 A 
ENDROOT
BRANCH  10  13
ATOM     13  N   UNL     1       1.425   9.623  19.636  0.00  0.00    +0.000 N 
ATOM     14  C   UNL     1       0.989  10.286  18.395  0.00  0.00    +0.000 C 
ATOM     15  C   UNL     1      -0.390  10.961  18.562  0.00  0.00    +0.000 C 
ATOM     16  N   UNL     1      -0.494  11.881  19.724  0.00  0.00    +0.000 NA
ATOM     17  C   UNL     1      -0.159  11.079  20.928  0.00  0.00    +0.000 C 
ATOM     18  C   UNL     1       1.226  10.390  20.887  0.00  0.00    +0.000 C 
BRANCH  16  19
ATOM     19  C   UNL     1       0.412  13.047  19.634  0.00  0.00    +0.000 C 
BRANCH  19  20
ATOM     20  C   UNL     1       0.412  13.928  20.883  0.00  0.00    +0.000 C 
BRANCH  20  21
ATOM     21  C   UNL     1       1.826  14.226  21.341  0.00  0.00    +0.000 C 
ATOM     22  C   UNL     1       2.939  13.788  20.425  0.00  0.00    +0.000 C 
ATOM     23  O   UNL     1       2.079  14.769  22.416  0.00  0.00    +0.000 OA
ENDBRANCH  20  21
ENDBRANCH  19  20
ENDBRANCH  16  19
ENDBRANCH  10  13
BRANCH   1  25
ATOM     24  C   UNL     1       5.242   5.584  15.998  0.00  0.00    +0.000 C 
ATOM     25  C   UNL     1       4.366   6.454  16.888  0.00  0.00    +0.000 C 
ENDBRANCH   1  25
BRANCH   3  26
ATOM     26  C   UNL     1       4.256   2.192  19.334  0.00  0.00    +0.000 C 
ATOM     27  O   UNL     1       3.931   1.241  18.638  0.00  0.00    +0.000 OA
BRANCH  26  28
ATOM     28  O   UNL     1       5.193   2.090  20.302  0.00  0.00    +0.000 OA
ATOM     29  H   UNL     1       5.095   2.753  21.029  0.00  0.00    +0.000 HD
ENDBRANCH  26  28
ENDBRANCH   3  26
TORSDOF 7
ENDMDL
MODEL 9
REMARK VINA RESULT:      -6.8      2.894      3.975
REMARK  Name = 
REMARK  9 active torsions:
REMARK  status: ('A' for Active; 'I' for Inactive)
REMARK    1  A    between atoms: C_1  and  C_2
REMARK    2  A    between atoms: C_2  and  N_3
REMARK    3  A    between atoms: C_5  and  C_6
REMARK    4  A    between atoms: C_6  and  O_8
REMARK    5  A    between atoms: C_15  and  N_16
REMARK    6  A    between atoms: N_19  and  C_20
REMARK    7  A    between atoms: C_20  and  C_21
REMARK    8  A    between atoms: C_21  and  C_22
REMARK    9  A    between atoms: C_22  and  C_23
REMARK                            x       y       z     vdW  Elec       q    Type
REMARK                         _______ _______ _______ _____ _____    ______ ____
ROOT
ATOM      1  N   UNL     1       3.992   4.980  18.010  0.00  0.00    +0.000 N 
ATOM      2  C   UNL     1       4.460   3.725  18.386  0.00  0.00    +0.000 A 
ATOM      3  C   UNL     1       4.053   3.011  19.446  0.00  0.00    +0.000 A 
ATOM      4  C   UNL     1       3.003   3.606  20.289  0.00  0.00    +0.000 A 
ATOM      5  O   UNL     1       2.546   2.980  21.245  0.00  0.00    +0.000 OA
ATOM      6  C   UNL     1       2.549   4.979  19.976  0.00  0.00    +0.000 A 
ATOM      7  C   UNL     1       1.655   5.604  20.848  0.00  0.00    +0.000 A 
ATOM      8  C   UNL     1       1.305   6.932  20.634  0.00  0.00    +0.000 A 
ATOM      9  F   UNL     1       0.529   7.513  21.562  0.00  0.00    +0.000 F 
ATOM     10  C   UNL     1       1.801   7.660  19.542  0.00  0.00    +0.000 A 
ATOM     11  C   UNL     1       2.626   6.956  18.637  0.00  0.00    +0.000 A 
ATOM     12  C   UNL     1       3.061   5.637  18.845  0.00  0.00    +0.000 A 
ENDROOT
BRANCH  10  13
ATOM     13  N   UNL     1       1.551   9.008  19.313  0.00  0.00    +0.000 N 
ATOM     14  C   UNL     1       1.243   9.546  17.976  0.00  0.00    +0.000 C 
ATOM     15  C   UNL     1      -0.180  10.146  17.916  0.00  0.00    +0.000 C 
ATOM     16  N   UNL     1      -0.478  11.144  18.977  0.00  0.00    +0.000 NA
ATOM     17  C   UNL     1      -0.257  10.458  20.275  0.00  0.00    +0.000 C 
ATOM     18  C   UNL     1       1.156   9.855  20.462  0.00  0.00    +0.000 C 
BRANCH  16  19
ATOM     19  C   UNL     1       0.371  12.353  18.901  0.00  0.00    +0.000 C 
BRANCH  19  20
ATOM     20  C   UNL     1      -0.417  13.653  18.741  0.00  0.00    +0.000 C 
BRANCH  20  21
ATOM     21  C   UNL     1      -0.665  14.309  20.085  0.00  0.00    +0.000 C 
ATOM     22  C   UNL     1      -2.029  14.110  20.692  0.00  0.00    +0.000 C 
ATOM     23  O   UNL     1       0.178  15.001  20.656  0.00  0.00    +0.000 OA
ENDBRANCH  20  21
ENDBRANCH  19  20
ENDBRANCH  16  19
ENDBRANCH  10  13
BRANCH   1  25
ATOM     24  C   UNL     1       6.035   6.081  17.147  0.00  0.00    +0.000 C 
ATOM     25  C   UNL     1       4.591   5.693  16.861  0.00  0.00    +0.000 C 
ENDBRANCH   1  25
BRANCH   3  26
ATOM     26  C   UNL     1       4.683   1.705  19.732  0.00  0.00    +0.000 C 
ATOM     27  O   UNL     1       5.336   1.482  20.741  0.00  0.00    +0.000 OA
BRANCH  26  28
ATOM     28  O   UNL     1       4.461   0.759  18.794  0.00  0.00    +0.000 OA
ATOM     29  H   UNL     1       3.895   0.009  19.104  0.00  0.00    +0.000 HD
ENDBRANCH  26  28
ENDBRANCH   3  26
TORSDOF 7
ENDMDL
