MODEL 1
REMARK VINA RESULT:      -6.8      0.000      0.000
REMARK  Name = 
REMARK  8 active torsions:
REMARK  status: ('A' for Active; 'I' for Inactive)
REMARK    1  A    between atoms: C_1  and  C_2
REMARK    2  A    between atoms: C_2  and  O_3
REMARK    3  A    between atoms: O_3  and  C_4
REMARK    4  A    between atoms: C_8  and  C_9
REMARK    5  A    between atoms: C_10  and  C_11
REMARK    6  A    between atoms: C_18  and  C_19
REMARK    7  A    between atoms: C_19  and  O_20
REMARK    8  A    between atoms: O_20  and  C_21
REMARK                            x       y       z     vdW  Elec       q    Type
REMARK                         _______ _______ _______ _____ _____    ______ ____
ROOT
ATOM      1  C   UNL     1       3.002   5.990  19.856  0.00  0.00    +0.000 C 
ATOM      2  O   UNL     1       4.044   6.114  20.506  0.00  0.00    +0.000 OA
ATOM      3  N   UNL     1       2.419   4.741  19.747  0.00  0.00    +0.000 N 
ATOM      4  C   UNL     1       2.839   3.571  20.492  0.00  0.00    +0.000 C 
ATOM      5  C   UNL     1       1.497   3.139  21.112  0.00  0.00    +0.000 C 
ATOM      6  C   UNL     1       0.484   3.485  19.998  0.00  0.00    +0.000 C 
ATOM      7  C   UNL     1       1.381   4.139  18.921  0.00  0.00    +0.000 C 
ATOM      8  C   UNL     1       2.156   2.981  18.259  0.00  0.00    +0.000 C 
ATOM      9  C   UNL     1       3.181   2.590  19.357  0.00  0.00    +0.000 C 
ENDROOT
BRANCH   1  16
ATOM     10  C   UNL     1       1.584   8.099  19.966  0.00  0.00    +0.000 A 
ATOM     11  N   UNL     1       1.062   9.256  19.481  0.00  0.00    +0.000 NA
ATOM     12  C   UNL     1       1.430   9.634  18.249  0.00  0.00    +0.000 A 
ATOM     13  C   UNL     1       2.305   8.908  17.471  0.00  0.00    +0.000 A 
ATOM     14  C   UNL     1       2.811   7.688  17.957  0.00  0.00    +0.000 A 
ATOM     15  C   UNL     1       3.813   6.980  17.082  0.00  0.00    +0.000 C 
ATOM     16  C   UNL     1       2.411   7.232  19.243  0.00  0.00    +0.000 A 
BRANCH  10  17
ATOM     17  O   UNL     1       1.268   7.794  21.261  0.00  0.00    +0.000 OA
BRANCH  17  19
ATOM     18  C   UNL     1      -0.273   8.984  22.627  0.00  0.00    +0.000 C 
ATOM     19  C   UNL     1       1.171   8.874  22.181  0.00  0.00    +0.000 C 
ENDBRANCH  17  19
ENDBRANCH  10  17
ENDBRANCH   1  16
BRANCH   8  20
ATOM     20  C   UNL     1       2.824   3.426  16.965  0.00  0.00    +0.000 C 
BRANCH  20  21
ATOM     21  O   UNL     1       4.109   2.802  16.906  0.00  0.00    +0.000 OA
BRANCH  21  22
ATOM     22  C   UNL     1       5.121   3.709  16.652  0.00  0.00    +0.000 A 
ATOM     23  C   UNL     1       5.259   4.119  15.335  0.00  0.00    +0.000 A 
ATOM     24  C   UNL     1       6.263   5.034  15.040  0.00  0.00    +0.000 A 
ATOM     25  C   UNL     1       7.077   5.503  16.063  0.00  0.00    +0.000 A 
ATOM     26  C   UNL     1       6.857   5.037  17.351  0.00  0.00    +0.000 A 
ATOM     27  N   UNL     1       5.892   4.148  17.669  0.00  0.00    +0.000 NA
ENDBRANCH  21  22
ENDBRANCH  20  21
ENDBRANCH   8  20
TORSDOF 6
ENDMDL
MODEL 2
REMARK VINA RESULT:      -6.6      1.726      5.710
REMARK  Name = 
REMARK  8 active torsions:
REMARK  status: ('A' for Active; 'I' for Inactive)
REMARK    1  A    between atoms: C_1  and  C_2
REMARK    2  A    between atoms: C_2  and  O_3
REMARK    3  A    between atoms: O_3  and  C_4
REMARK    4  A    between atoms: C_8  and  C_9
REMARK    5  A    between atoms: C_10  and  C_11
REMARK    6  A    between atoms: C_18  and  C_19
REMARK    7  A    between atoms: C_19  and  O_20
REMARK    8  A    between atoms: O_20  and  C_21
REMARK                            x       y       z     vdW  Elec       q    Type
REMARK                         _______ _______ _______ _____ _____    ______ ____
ROOT
ATOM      1  C   UNL     1       4.572   4.365  19.215  0.00  0.00    +0.000 C 
ATOM      2  O   UNL     1       5.427   4.257  20.098  0.00  0.00    +0.000 OA
ATOM      3  N   UNL     1       4.885   5.036  18.047  0.00  0.00    +0.000 N 
ATOM      4  C   UNL     1       6.218   5.482  17.690  0.00  0.00    +0.000 C 
ATOM      5  C   UNL     1       6.356   4.853  16.291  0.00  0.00    +0.000 C 
ATOM      6  C   UNL     1       4.921   4.963  15.729  0.00  0.00    +0.000 C 
ATOM      7  C   UNL     1       4.142   5.574  16.917  0.00  0.00    +0.000 C 
ATOM      8  C   UNL     1       4.548   7.061  16.968  0.00  0.00    +0.000 C 
ATOM      9  C   UNL     1       5.999   6.995  17.516  0.00  0.00    +0.000 C 
ENDROOT
BRANCH   1  16
ATOM     10  C   UNL     1       2.183   4.401  20.090  0.00  0.00    +0.000 A 
ATOM     11  N   UNL     1       0.942   3.890  20.295  0.00  0.00    +0.000 NA
ATOM     12  C   UNL     1       0.678   2.678  19.788  0.00  0.00    +0.000 A 
ATOM     13  C   UNL     1       1.602   1.945  19.075  0.00  0.00    +0.000 A 
ATOM     14  C   UNL     1       2.902   2.457  18.901  0.00  0.00    +0.000 A 
ATOM     15  C   UNL     1       3.840   1.634  18.056  0.00  0.00    +0.000 C 
ATOM     16  C   UNL     1       3.232   3.721  19.461  0.00  0.00    +0.000 A 
BRANCH  10  17
ATOM     17  O   UNL     1       2.388   5.679  20.533  0.00  0.00    +0.000 OA
BRANCH  17  19
ATOM     18  C   UNL     1       1.672   7.897  21.011  0.00  0.00    +0.000 C 
ATOM     19  C   UNL     1       1.237   6.455  20.841  0.00  0.00    +0.000 C 
ENDBRANCH  17  19
ENDBRANCH  10  17
ENDBRANCH   1  16
BRANCH   8  20
ATOM     20  C   UNL     1       3.618   7.863  17.867  0.00  0.00    +0.000 C 
BRANCH  20  21
ATOM     21  O   UNL     1       2.543   8.344  17.058  0.00  0.00    +0.000 OA
BRANCH  21  22
ATOM     22  C   UNL     1       1.857   9.383  17.659  0.00  0.00    +0.000 A 
ATOM     23  C   UNL     1       0.499   9.188  17.853  0.00  0.00    +0.000 A 
ATOM     24  C   UNL     1      -0.225  10.208  18.459  0.00  0.00    +0.000 A 
ATOM     25  C   UNL     1       0.431  11.367  18.850  0.00  0.00    +0.000 A 
ATOM     26  C   UNL     1       1.795  11.467  18.618  0.00  0.00    +0.000 A 
ATOM     27  N   UNL     1       2.525  10.495  18.030  0.00  0.00    +0.000 NA
ENDBRANCH  21  22
ENDBRANCH  20  21
ENDBRANCH   8  20
TORSDOF 6
ENDMDL
MODEL 3
REMARK VINA RESULT:      -6.5      0.940      1.230
REMARK  Name = 
REMARK  8 active torsions:
REMARK  status: ('A' for Active; 'I' for Inactive)
REMARK    1  A    between atoms: C_1  and  C_2
REMARK    2  A    between atoms: C_2  and  O_3
REMARK    3  A    between atoms: O_3  and  C_4
REMARK    4  A    between atoms: C_8  and  C_9
REMARK    5  A    between atoms: C_10  and  C_11
REMARK    6  A    between atoms: C_18  and  C_19
REMARK    7  A    between atoms: C_19  and  O_20
REMARK    8  A    between atoms: O_20  and  C_21
REMARK                            x       y       z     vdW  Elec       q    Type
REMARK                         _______ _______ _______ _____ _____    ______ ____
ROOT
ATOM      1  C   UNL     1       2.587   5.992  19.961  0.00  0.00    +0.000 C 
ATOM      2  O   UNL     1       3.269   6.042  20.988  0.00  0.00    +0.000 OA
ATOM      3  N   UNL     1       2.255   4.760  19.429  0.00  0.00    +0.000 N 
ATOM      4  C   UNL     1       2.495   3.490  20.087  0.00  0.00    +0.000 C 
ATOM      5  C   UNL     1       1.083   2.877  20.033  0.00  0.00    +0.000 C 
ATOM      6  C   UNL     1       0.549   3.380  18.673  0.00  0.00    +0.000 C 
ATOM      7  C   UNL     1       1.705   4.276  18.170  0.00  0.00    +0.000 C 
ATOM      8  C   UNL     1       2.815   3.312  17.706  0.00  0.00    +0.000 C 
ATOM      9  C   UNL     1       3.372   2.768  19.050  0.00  0.00    +0.000 C 
ENDROOT
BRANCH   1  16
ATOM     10  C   UNL     1       1.246   8.152  20.031  0.00  0.00    +0.000 A 
ATOM     11  N   UNL     1       0.838   9.361  19.564  0.00  0.00    +0.000 NA
ATOM     12  C   UNL     1       1.382   9.802  18.422  0.00  0.00    +0.000 A 
ATOM     13  C   UNL     1       2.328   9.089  17.717  0.00  0.00    +0.000 A 
ATOM     14  C   UNL     1       2.718   7.817  18.178  0.00  0.00    +0.000 A 
ATOM     15  C   UNL     1       3.803   7.122  17.396  0.00  0.00    +0.000 C 
ATOM     16  C   UNL     1       2.131   7.297  19.364  0.00  0.00    +0.000 A 
BRANCH  10  17
ATOM     17  O   UNL     1       0.746   7.778  21.248  0.00  0.00    +0.000 OA
BRANCH  17  19
ATOM     18  C   UNL     1      -0.016   9.256  22.949  0.00  0.00    +0.000 C 
ATOM     19  C   UNL     1      -0.407   8.462  21.718  0.00  0.00    +0.000 C 
ENDBRANCH  17  19
ENDBRANCH  10  17
ENDBRANCH   1  16
BRANCH   8  20
ATOM     20  C   UNL     1       3.873   4.034  16.883  0.00  0.00    +0.000 C 
BRANCH  20  21
ATOM     21  O   UNL     1       5.144   3.480  17.231  0.00  0.00    +0.000 OA
BRANCH  21  22
ATOM     22  C   UNL     1       6.036   4.445  17.661  0.00  0.00    +0.000 A 
ATOM     23  C   UNL     1       6.561   5.273  16.682  0.00  0.00    +0.000 A 
ATOM     24  C   UNL     1       7.458   6.259  17.074  0.00  0.00    +0.000 A 
ATOM     25  C   UNL     1       7.787   6.382  18.417  0.00  0.00    +0.000 A 
ATOM     26  C   UNL     1       7.206   5.508  19.325  0.00  0.00    +0.000 A 
ATOM     27  N   UNL     1       6.332   4.540  18.974  0.00  0.00    +0.000 NA
ENDBRANCH  21  22
ENDBRANCH  20  21
ENDBRANCH   8  20
TORSDOF 6
ENDMDL
MODEL 4
REMARK VINA RESULT:      -6.5      2.239      4.433
REMARK  Name = 
REMARK  8 active torsions:
REMARK  status: ('A' for Active; 'I' for Inactive)
REMARK    1  A    between atoms: C_1  and  C_2
REMARK    2  A    between atoms: C_2  and  O_3
REMARK    3  A    between atoms: O_3  and  C_4
REMARK    4  A    between atoms: C_8  and  C_9
REMARK    5  A    between atoms: C_10  and  C_11
REMARK    6  A    between atoms: C_18  and  C_19
REMARK    7  A    between atoms: C_19  and  O_20
REMARK    8  A    between atoms: O_20  and  C_21
REMARK                            x       y       z     vdW  Elec       q    Type
REMARK                         _______ _______ _______ _____ _____    ______ ____
ROOT
ATOM      1  C   UNL     1       3.937   6.294  17.916  0.00  0.00    +0.000 C 
ATOM      2  O   UNL     1       3.501   7.316  17.380  0.00  0.00    +0.000 OA
ATOM      3  N   UNL     1       5.282   5.993  17.804  0.00  0.00    +0.000 N 
ATOM      4  C   UNL     1       6.279   6.887  17.247  0.00  0.00    +0.000 C 
ATOM      5  C   UNL     1       7.311   6.901  18.390  0.00  0.00    +0.000 C 
ATOM      6  C   UNL     1       7.240   5.453  18.925  0.00  0.00    +0.000 C 
ATOM      7  C   UNL     1       6.120   4.830  18.060  0.00  0.00    +0.000 C 
ATOM      8  C   UNL     1       6.744   4.595  16.669  0.00  0.00    +0.000 C 
ATOM      9  C   UNL     1       6.847   6.035  16.099  0.00  0.00    +0.000 C 
ENDROOT
BRANCH   1  16
ATOM     10  C   UNL     1       2.336   5.910  19.855  0.00  0.00    +0.000 A 
ATOM     11  N   UNL     1       1.418   5.209  20.570  0.00  0.00    +0.000 NA
ATOM     12  C   UNL     1       1.027   4.022  20.086  0.00  0.00    +0.000 A 
ATOM     13  C   UNL     1       1.512   3.496  18.908  0.00  0.00    +0.000 A 
ATOM     14  C   UNL     1       2.496   4.203  18.191  0.00  0.00    +0.000 A 
ATOM     15  C   UNL     1       2.933   3.601  16.880  0.00  0.00    +0.000 C 
ATOM     16  C   UNL     1       2.966   5.446  18.695  0.00  0.00    +0.000 A 
BRANCH  10  17
ATOM     17  O   UNL     1       2.637   7.159  20.324  0.00  0.00    +0.000 OA
BRANCH  17  19
ATOM     18  C   UNL     1       1.243   8.576  21.630  0.00  0.00    +0.000 C 
ATOM     19  C   UNL     1       1.626   8.153  20.226  0.00  0.00    +0.000 C 
ENDBRANCH  17  19
ENDBRANCH  10  17
ENDBRANCH   1  16
BRANCH   8  20
ATOM     20  C   UNL     1       5.872   3.686  15.813  0.00  0.00    +0.000 C 
BRANCH  20  21
ATOM     21  O   UNL     1       5.406   4.456  14.702  0.00  0.00    +0.000 OA
BRANCH  21  22
ATOM     22  C   UNL     1       5.724   3.873  13.490  0.00  0.00    +0.000 A 
ATOM     23  C   UNL     1       4.666   3.329  12.777  0.00  0.00    +0.000 A 
ATOM     24  C   UNL     1       4.944   2.736  11.551  0.00  0.00    +0.000 A 
ATOM     25  C   UNL     1       6.251   2.718  11.087  0.00  0.00    +0.000 A 
ATOM     26  C   UNL     1       7.242   3.293  11.870  0.00  0.00    +0.000 A 
ATOM     27  N   UNL     1       7.004   3.874  13.065  0.00  0.00    +0.000 NA
ENDBRANCH  21  22
ENDBRANCH  20  21
ENDBRANCH   8  20
TORSDOF 6
ENDMDL
MODEL 5
REMARK VINA RESULT:      -6.4      2.296      4.557
REMARK  Name = 
REMARK  8 active torsions:
REMARK  status: ('A' for Active; 'I' for Inactive)
REMARK    1  A    between atoms: C_1  and  C_2
REMARK    2  A    between atoms: C_2  and  O_3
REMARK    3  A    between atoms: O_3  and  C_4
REMARK    4  A    between atoms: C_8  and  C_9
REMARK    5  A    between atoms: C_10  and  C_11
REMARK    6  A    between atoms: C_18  and  C_19
REMARK    7  A    between atoms: C_19  and  O_20
REMARK    8  A    between atoms: O_20  and  C_21
REMARK                            x       y       z     vdW  Elec       q    Type
REMARK                         _______ _______ _______ _____ _____    ______ ____
ROOT
ATOM      1  C   UNL     1       3.977   6.287  17.851  0.00  0.00    +0.000 C 
ATOM      2  O   UNL     1       3.538   7.317  17.333  0.00  0.00    +0.000 OA
ATOM      3  N   UNL     1       5.322   5.991  17.734  0.00  0.00    +0.000 N 
ATOM      4  C   UNL     1       6.317   6.896  17.193  0.00  0.00    +0.000 C 
ATOM      5  C   UNL     1       7.348   6.891  18.337  0.00  0.00    +0.000 C 
ATOM      6  C   UNL     1       7.281   5.434  18.846  0.00  0.00    +0.000 C 
ATOM      7  C   UNL     1       6.162   4.825  17.969  0.00  0.00    +0.000 C 
ATOM      8  C   UNL     1       6.787   4.615  16.574  0.00  0.00    +0.000 C 
ATOM      9  C   UNL     1       6.887   6.066  16.030  0.00  0.00    +0.000 C 
ENDROOT
BRANCH   1  16
ATOM     10  C   UNL     1       2.379   5.863  19.785  0.00  0.00    +0.000 A 
ATOM     11  N   UNL     1       1.462   5.148  20.487  0.00  0.00    +0.000 NA
ATOM     12  C   UNL     1       1.070   3.972  19.979  0.00  0.00    +0.000 A 
ATOM     13  C   UNL     1       1.552   3.470  18.790  0.00  0.00    +0.000 A 
ATOM     14  C   UNL     1       2.535   4.191  18.085  0.00  0.00    +0.000 A 
ATOM     15  C   UNL     1       2.968   3.617  16.761  0.00  0.00    +0.000 C 
ATOM     16  C   UNL     1       3.006   5.423  18.614  0.00  0.00    +0.000 A 
BRANCH  10  17
ATOM     17  O   UNL     1       2.682   7.102  20.279  0.00  0.00    +0.000 OA
BRANCH  17  19
ATOM     18  C   UNL     1       1.371   8.920  19.481  0.00  0.00    +0.000 C 
ATOM     19  C   UNL     1       1.595   7.950  20.624  0.00  0.00    +0.000 C 
ENDBRANCH  17  19
ENDBRANCH  10  17
ENDBRANCH   1  16
BRANCH   8  20
ATOM     20  C   UNL     1       5.916   3.721  15.702  0.00  0.00    +0.000 C 
BRANCH  20  21
ATOM     21  O   UNL     1       5.455   4.508  14.601  0.00  0.00    +0.000 OA
BRANCH  21  22
ATOM     22  C   UNL     1       5.599   3.854  13.392  0.00  0.00    +0.000 A 
ATOM     23  C   UNL     1       6.899   3.664  12.950  0.00  0.00    +0.000 A 
ATOM     24  C   UNL     1       7.086   3.007  11.740  0.00  0.00    +0.000 A 
ATOM     25  C   UNL     1       5.978   2.563  11.030  0.00  0.00    +0.000 A 
ATOM     26  C   UNL     1       4.716   2.795  11.558  0.00  0.00    +0.000 A 
ATOM     27  N   UNL     1       4.502   3.432  12.729  0.00  0.00    +0.000 NA
ENDBRANCH  21  22
ENDBRANCH  20  21
ENDBRANCH   8  20
TORSDOF 6
ENDMDL
MODEL 6
REMARK VINA RESULT:      -6.3      1.393      2.853
REMARK  Name = 
REMARK  8 active torsions:
REMARK  status: ('A' for Active; 'I' for Inactive)
REMARK    1  A    between atoms: C_1  and  C_2
REMARK    2  A    between atoms: C_2  and  O_3
REMARK    3  A    between atoms: O_3  and  C_4
REMARK    4  A    between atoms: C_8  and  C_9
REMARK    5  A    between atoms: C_10  and  C_11
REMARK    6  A    between atoms: C_18  and  C_19
REMARK    7  A    between atoms: C_19  and  O_20
REMARK    8  A    between atoms: O_20  and  C_21
REMARK                            x       y       z     vdW  Elec       q    Type
REMARK                         _______ _______ _______ _____ _____    ______ ____
ROOT
ATOM      1  C   UNL     1       3.292   5.576  19.686  0.00  0.00    +0.000 C 
ATOM      2  O   UNL     1       4.279   5.585  20.427  0.00  0.00    +0.000 OA
ATOM      3  N   UNL     1       2.646   4.380  19.435  0.00  0.00    +0.000 N 
ATOM      4  C   UNL     1       2.928   3.134  20.122  0.00  0.00    +0.000 C 
ATOM      5  C   UNL     1       1.514   2.750  20.594  0.00  0.00    +0.000 C 
ATOM      6  C   UNL     1       0.625   3.241  19.430  0.00  0.00    +0.000 C 
ATOM      7  C   UNL     1       1.650   3.907  18.483  0.00  0.00    +0.000 C 
ATOM      8  C   UNL     1       2.408   2.750  17.801  0.00  0.00    +0.000 C 
ATOM      9  C   UNL     1       3.308   2.215  18.948  0.00  0.00    +0.000 C 
ENDROOT
BRANCH   1  16
ATOM     10  C   UNL     1       3.197   7.323  17.839  0.00  0.00    +0.000 A 
ATOM     11  N   UNL     1       2.776   8.477  17.260  0.00  0.00    +0.000 NA
ATOM     12  C   UNL     1       1.885   9.219  17.931  0.00  0.00    +0.000 A 
ATOM     13  C   UNL     1       1.386   8.860  19.165  0.00  0.00    +0.000 A 
ATOM     14  C   UNL     1       1.856   7.687  19.784  0.00  0.00    +0.000 A 
ATOM     15  C   UNL     1       1.220   7.320  21.100  0.00  0.00    +0.000 C 
ATOM     16  C   UNL     1       2.833   6.894  19.121  0.00  0.00    +0.000 A 
BRANCH  10  17
ATOM     17  O   UNL     1       4.028   6.540  17.085  0.00  0.00    +0.000 OA
BRANCH  17  19
ATOM     18  C   UNL     1       6.266   7.302  17.348  0.00  0.00    +0.000 C 
ATOM     19  C   UNL     1       5.090   7.188  16.398  0.00  0.00    +0.000 C 
ENDBRANCH  17  19
ENDBRANCH  10  17
ENDBRANCH   1  16
BRANCH   8  20
ATOM     20  C   UNL     1       3.213   3.239  16.605  0.00  0.00    +0.000 C 
BRANCH  20  21
ATOM     21  O   UNL     1       4.591   3.248  16.985  0.00  0.00    +0.000 OA
BRANCH  21  22
ATOM     22  C   UNL     1       5.408   3.740  15.984  0.00  0.00    +0.000 A 
ATOM     23  C   UNL     1       4.846   3.819  14.719  0.00  0.00    +0.000 A 
ATOM     24  C   UNL     1       5.635   4.313  13.687  0.00  0.00    +0.000 A 
ATOM     25  C   UNL     1       6.936   4.711  13.957  0.00  0.00    +0.000 A 
ATOM     26  C   UNL     1       7.408   4.598  15.257  0.00  0.00    +0.000 A 
ATOM     27  N   UNL     1       6.668   4.121  16.281  0.00  0.00    +0.000 NA
ENDBRANCH  21  22
ENDBRANCH  20  21
ENDBRANCH   8  20
TORSDOF 6
ENDMDL
MODEL 7
REMARK VINA RESULT:      -6.2      8.863     11.027
REMARK  Name = 
REMARK  8 active torsions:
REMARK  status: ('A' for Active; 'I' for Inactive)
REMARK    1  A    between atoms: C_1  and  C_2
REMARK    2  A    between atoms: C_2  and  O_3
REMARK    3  A    between atoms: O_3  and  C_4
REMARK    4  A    between atoms: C_8  and  C_9
REMARK    5  A    between atoms: C_10  and  C_11
REMARK    6  A    between atoms: C_18  and  C_19
REMARK    7  A    between atoms: C_19  and  O_20
REMARK    8  A    between atoms: O_20  and  C_21
REMARK                            x       y       z     vdW  Elec       q    Type
REMARK                         _______ _______ _______ _____ _____    ______ ____
ROOT
ATOM      1  C   UNL     1       8.848  13.421  18.081  0.00  0.00    +0.000 C 
ATOM      2  O   UNL     1       8.182  12.829  17.227  0.00  0.00    +0.000 OA
ATOM      3  N   UNL     1       9.714  12.702  18.883  0.00  0.00    +0.000 N 
ATOM      4  C   UNL     1      10.046  11.304  18.685  0.00  0.00    +0.000 C 
ATOM      5  C   UNL     1      11.584  11.384  18.659  0.00  0.00    +0.000 C 
ATOM      6  C   UNL     1      11.881  12.498  19.688  0.00  0.00    +0.000 C 
ATOM      7  C   UNL     1      10.464  12.955  20.105  0.00  0.00    +0.000 C 
ATOM      8  C   UNL     1       9.919  11.846  21.029  0.00  0.00    +0.000 C 
ATOM      9  C   UNL     1       9.620  10.694  20.031  0.00  0.00    +0.000 C 
ENDROOT
BRANCH   1  16
ATOM     10  C   UNL     1       7.638  15.514  18.873  0.00  0.00    +0.000 A 
ATOM     11  N   UNL     1       7.473  16.853  19.029  0.00  0.00    +0.000 NA
ATOM     12  C   UNL     1       8.429  17.658  18.546  0.00  0.00    +0.000 A 
ATOM     13  C   UNL     1       9.557  17.185  17.911  0.00  0.00    +0.000 A 
ATOM     14  C   UNL     1       9.706  15.799  17.710  0.00  0.00    +0.000 A 
ATOM     15  C   UNL     1      10.992  15.348  17.068  0.00  0.00    +0.000 C 
ATOM     16  C   UNL     1       8.692  14.917  18.172  0.00  0.00    +0.000 A 
BRANCH  10  17
ATOM     17  O   UNL     1       6.695  14.719  19.465  0.00  0.00    +0.000 OA
BRANCH  17  19
ATOM     18  C   UNL     1       6.035  14.887  21.744  0.00  0.00    +0.000 C 
ATOM     19  C   UNL     1       5.758  15.350  20.328  0.00  0.00    +0.000 C 
ENDBRANCH  17  19
ENDBRANCH  10  17
ENDBRANCH   1  16
BRANCH   8  20
ATOM     20  C   UNL     1       8.678  12.306  21.781  0.00  0.00    +0.000 C 
BRANCH  20  21
ATOM     21  O   UNL     1       9.087  12.693  23.095  0.00  0.00    +0.000 OA
BRANCH  21  22
ATOM     22  C   UNL     1       8.154  12.352  24.056  0.00  0.00    +0.000 A 
ATOM     23  C   UNL     1       7.004  11.727  23.599  0.00  0.00    +0.000 A 
ATOM     24  C   UNL     1       6.044  11.365  24.536  0.00  0.00    +0.000 A 
ATOM     25  C   UNL     1       6.270  11.631  25.879  0.00  0.00    +0.000 A 
ATOM     26  C   UNL     1       7.455  12.257  26.240  0.00  0.00    +0.000 A 
ATOM     27  N   UNL     1       8.406  12.622  25.354  0.00  0.00    +0.000 NA
ENDBRANCH  21  22
ENDBRANCH  20  21
ENDBRANCH   8  20
TORSDOF 6
ENDMDL
MODEL 8
REMARK VINA RESULT:      -6.1      9.090     11.630
REMARK  Name = 
REMARK  8 active torsions:
REMARK  status: ('A' for Active; 'I' for Inactive)
REMARK    1  A    between atoms: C_1  and  C_2
REMARK    2  A    between atoms: C_2  and  O_3
REMARK    3  A    between atoms: O_3  and  C_4
REMARK    4  A    between atoms: C_8  and  C_9
REMARK    5  A    between atoms: C_10  and  C_11
REMARK    6  A    between atoms: C_18  and  C_19
REMARK    7  A    between atoms: C_19  and  O_20
REMARK    8  A    between atoms: O_20  and  C_21
REMARK                            x       y       z     vdW  Elec       q    Type
REMARK                         _______ _______ _______ _____ _____    ______ ____
ROOT
ATOM      1  C   UNL     1       8.421  13.932  18.419  0.00  0.00    +0.000 C 
ATOM      2  O   UNL     1       7.592  13.627  17.558  0.00  0.00    +0.000 OA
ATOM      3  N   UNL     1       9.401  13.020  18.767  0.00  0.00    +0.000 N 
ATOM      4  C   UNL     1       9.650  11.776  18.067  0.00  0.00    +0.000 C 
ATOM      5  C   UNL     1      11.158  11.912  17.784  0.00  0.00    +0.000 C 
ATOM      6  C   UNL     1      11.673  12.639  19.046  0.00  0.00    +0.000 C 
ATOM      7  C   UNL     1      10.372  12.886  19.844  0.00  0.00    +0.000 C 
ATOM      8  C   UNL     1       9.977  11.519  20.439  0.00  0.00    +0.000 C 
ATOM      9  C   UNL     1       9.465  10.746  19.194  0.00  0.00    +0.000 C 
ENDROOT
BRANCH   1  16
ATOM     10  C   UNL     1       8.886  16.433  18.400  0.00  0.00    +0.000 A 
ATOM     11  N   UNL     1       8.792  17.704  18.870  0.00  0.00    +0.000 NA
ATOM     12  C   UNL     1       8.044  17.908  19.962  0.00  0.00    +0.000 A 
ATOM     13  C   UNL     1       7.374  16.895  20.614  0.00  0.00    +0.000 A 
ATOM     14  C   UNL     1       7.508  15.572  20.152  0.00  0.00    +0.000 A 
ATOM     15  C   UNL     1       6.697  14.524  20.870  0.00  0.00    +0.000 C 
ATOM     16  C   UNL     1       8.327  15.310  19.021  0.00  0.00    +0.000 A 
BRANCH  10  17
ATOM     17  O   UNL     1       9.574  16.275  17.228  0.00  0.00    +0.000 OA
BRANCH  17  19
ATOM     18  C   UNL     1      11.889  15.740  17.105  0.00  0.00    +0.000 C 
ATOM     19  C   UNL     1      10.867  16.859  17.147  0.00  0.00    +0.000 C 
ENDBRANCH  17  19
ENDBRANCH  10  17
ENDBRANCH   1  16
BRANCH   8  20
ATOM     20  C   UNL     1       8.911  11.667  21.517  0.00  0.00    +0.000 C 
BRANCH  20  21
ATOM     21  O   UNL     1       9.295  12.756  22.358  0.00  0.00    +0.000 OA
BRANCH  21  22
ATOM     22  C   UNL     1       8.569  12.791  23.534  0.00  0.00    +0.000 A 
ATOM     23  C   UNL     1       7.956  11.606  23.911  0.00  0.00    +0.000 A 
ATOM     24  C   UNL     1       7.220  11.600  25.090  0.00  0.00    +0.000 A 
ATOM     25  C   UNL     1       7.133  12.762  25.842  0.00  0.00    +0.000 A 
ATOM     26  C   UNL     1       7.786  13.898  25.386  0.00  0.00    +0.000 A 
ATOM     27  N   UNL     1       8.507  13.937  24.244  0.00  0.00    +0.000 NA
ENDBRANCH  21  22
ENDBRANCH  20  21
ENDBRANCH   8  20
TORSDOF 6
ENDMDL
MODEL 9
REMARK VINA RESULT:      -6.0      9.117     11.356
REMARK  Name = 
REMARK  8 active torsions:
REMARK  status: ('A' for Active; 'I' for Inactive)
REMARK    1  A    between atoms: C_1  and  C_2
REMARK    2  A    between atoms: C_2  and  O_3
REMARK    3  A    between atoms: O_3  and  C_4
REMARK    4  A    between atoms: C_8  and  C_9
REMARK    5  A    between atoms: C_10  and  C_11
REMARK    6  A    between atoms: C_18  and  C_19
REMARK    7  A    between atoms: C_19  and  O_20
REMARK    8  A    between atoms: O_20  and  C_21
REMARK                            x       y       z     vdW  Elec       q    Type
REMARK                         _______ _______ _______ _____ _____    ______ ____
ROOT
ATOM      1  C   UNL     1       8.913  13.718  18.326  0.00  0.00    +0.000 C 
ATOM      2  O   UNL     1       8.041  13.165  17.651  0.00  0.00    +0.000 OA
ATOM      3  N   UNL     1       9.777  12.945  19.080  0.00  0.00    +0.000 N 
ATOM      4  C   UNL     1       9.862  11.500  19.006  0.00  0.00    +0.000 C 
ATOM      5  C   UNL     1      11.371  11.321  18.757  0.00  0.00    +0.000 C 
ATOM      6  C   UNL     1      11.987  12.464  19.595  0.00  0.00    +0.000 C 
ATOM      7  C   UNL     1      10.737  13.186  20.148  0.00  0.00    +0.000 C 
ATOM      8  C   UNL     1      10.184  12.276  21.263  0.00  0.00    +0.000 C 
ATOM      9  C   UNL     1       9.565  11.100  20.461  0.00  0.00    +0.000 C 
ENDROOT
BRANCH   1  16
ATOM     10  C   UNL     1       8.107  16.048  18.954  0.00  0.00    +0.000 A 
ATOM     11  N   UNL     1       8.164  17.405  18.969  0.00  0.00    +0.000 NA
ATOM     12  C   UNL     1       9.192  17.991  18.341  0.00  0.00    +0.000 A 
ATOM     13  C   UNL     1      10.179  17.280  17.694  0.00  0.00    +0.000 A 
ATOM     14  C   UNL     1      10.096  15.876  17.641  0.00  0.00    +0.000 A 
ATOM     15  C   UNL     1      11.243  15.160  16.975  0.00  0.00    +0.000 C 
ATOM     16  C   UNL     1       8.997  15.221  18.260  0.00  0.00    +0.000 A 
BRANCH  10  17
ATOM     17  O   UNL     1       7.102  15.480  19.688  0.00  0.00    +0.000 OA
BRANCH  17  19
ATOM     18  C   UNL     1       5.984  14.959  21.721  0.00  0.00    +0.000 C 
ATOM     19  C   UNL     1       6.981  15.879  21.047  0.00  0.00    +0.000 C 
ENDBRANCH  17  19
ENDBRANCH  10  17
ENDBRANCH   1  16
BRANCH   8  20
ATOM     20  C   UNL     1       9.158  13.005  22.121  0.00  0.00    +0.000 C 
BRANCH  20  21
ATOM     21  O   UNL     1       8.162  12.054  22.504  0.00  0.00    +0.000 OA
BRANCH  21  22
ATOM     22  C   UNL     1       7.796  12.184  23.831  0.00  0.00    +0.000 A 
ATOM     23  C   UNL     1       8.241  13.326  24.479  0.00  0.00    +0.000 A 
ATOM     24  C   UNL     1       7.891  13.495  25.813  0.00  0.00    +0.000 A 
ATOM     25  C   UNL     1       7.112  12.531  26.439  0.00  0.00    +0.000 A 
ATOM     26  C   UNL     1       6.711  11.425  25.705  0.00  0.00    +0.000 A 
ATOM     27  N   UNL     1       7.036  11.231  24.409  0.00  0.00    +0.000 NA
ENDBRANCH  21  22
ENDBRANCH  20  21
ENDBRANCH   8  20
TORSDOF 6
ENDMDL
