MODEL 1
REMARK VINA RESULT:      -7.8      0.000      0.000
REMARK  Name = 
REMARK  5 active torsions:
REMARK  status: ('A' for Active; 'I' for Inactive)
REMARK    1  A    between atoms: C_1  and  S_2
REMARK    2  A    between atoms: S_2  and  O_5
REMARK    3  A    between atoms: O_5  and  N_6
REMARK    4  A    between atoms: C_11  and  C_12
REMARK    5  A    between atoms: C_12  and  C_13
REMARK                            x       y       z     vdW  Elec       q    Type
REMARK                         _______ _______ _______ _____ _____    ______ ____
ROOT
ATOM      1  N   UNL     1       6.548   5.359  17.056  0.00  0.00    +0.000 N 
ATOM      2  C   UNL     1       7.218   4.519  17.921  0.00  0.00    +0.000 C 
ATOM      3  O   UNL     1       8.376   4.134  17.789  0.00  0.00    +0.000 OA
ATOM      4  N   UNL     1       6.509   4.193  19.051  0.00  0.00    +0.000 N 
ATOM      5  C   UNL     1       5.089   4.418  19.114  0.00  0.00    +0.000 C 
ATOM      6  C   UNL     1       4.725   5.821  18.637  0.00  0.00    +0.000 C 
ATOM      7  C   UNL     1       5.661   6.299  17.530  0.00  0.00    +0.000 C 
ATOM      8  O   UNL     1       5.619   7.466  17.132  0.00  0.00    +0.000 OA
ATOM      9  H   UNL     1       6.961   3.516  19.658  0.00  0.00    +0.000 HD
ENDROOT
BRANCH   1  10
ATOM     10  O   UNL     1       7.387   5.849  16.021  0.00  0.00    +0.000 OA
BRANCH  10  12
ATOM     11  C   UNL     1       6.425   3.737  14.931  0.00  0.00    +0.000 C 
ATOM     12  S   UNL     1       6.827   5.426  14.546  0.00  0.00    +0.000 S 
ATOM     13  O   UNL     1       7.926   5.443  13.601  0.00  0.00    +0.000 OA
ATOM     14  O   UNL     1       5.601   6.148  14.275  0.00  0.00    +0.000 OA
ENDBRANCH  10  12
ENDBRANCH   1  10
BRANCH   6  15
ATOM     15  C   UNL     1       3.284   5.890  18.109  0.00  0.00    +0.000 C 
BRANCH  15  16
ATOM     16  C   UNL     1       2.331   4.877  18.704  0.00  0.00    +0.000 A 
ATOM     17  C   UNL     1       1.894   3.774  17.956  0.00  0.00    +0.000 A 
ATOM     18  C   UNL     1       1.068   2.808  18.533  0.00  0.00    +0.000 A 
ATOM     19  C   UNL     1       0.670   2.929  19.863  0.00  0.00    +0.000 A 
ATOM     20  C   UNL     1       1.096   4.021  20.616  0.00  0.00    +0.000 A 
ATOM     21  C   UNL     1       1.921   4.988  20.040  0.00  0.00    +0.000 A 
ENDBRANCH  15  16
ENDBRANCH   6  15
TORSDOF 4
ENDMDL
MODEL 2
REMARK VINA RESULT:      -7.7      1.503      1.869
REMARK  Name = 
REMARK  5 active torsions:
REMARK  status: ('A' for Active; 'I' for Inactive)
REMARK    1  A    between atoms: C_1  and  S_2
REMARK    2  A    between atoms: S_2  and  O_5
REMARK    3  A    between atoms: O_5  and  N_6
REMARK    4  A    between atoms: C_11  and  C_12
REMARK    5  A    between atoms: C_12  and  C_13
REMARK                            x       y       z     vdW  Elec       q    Type
REMARK                         _______ _______ _______ _____ _____    ______ ____
ROOT
ATOM      1  N   UNL     1       6.231   5.702  16.797  0.00  0.00    +0.000 N 
ATOM      2  C   UNL     1       7.222   6.525  17.288  0.00  0.00    +0.000 C 
ATOM      3  O   UNL     1       7.901   7.301  16.621  0.00  0.00    +0.000 OA
ATOM      4  N   UNL     1       7.351   6.498  18.655  0.00  0.00    +0.000 N 
ATOM      5  C   UNL     1       6.756   5.437  19.424  0.00  0.00    +0.000 C 
ATOM      6  C   UNL     1       5.305   5.198  19.016  0.00  0.00    +0.000 C 
ATOM      7  C   UNL     1       5.090   5.456  17.528  0.00  0.00    +0.000 C 
ATOM      8  O   UNL     1       3.953   5.467  17.050  0.00  0.00    +0.000 OA
ATOM      9  H   UNL     1       8.126   7.041  19.021  0.00  0.00    +0.000 HD
ENDROOT
BRANCH   1  10
ATOM     10  O   UNL     1       5.978   5.922  15.418  0.00  0.00    +0.000 OA
BRANCH  10  12
ATOM     11  C   UNL     1       5.204   4.287  13.602  0.00  0.00    +0.000 C 
ATOM     12  S   UNL     1       6.667   4.769  14.490  0.00  0.00    +0.000 S 
ATOM     13  O   UNL     1       7.085   3.669  15.337  0.00  0.00    +0.000 OA
ATOM     14  O   UNL     1       7.593   5.388  13.565  0.00  0.00    +0.000 OA
ENDBRANCH  10  12
ENDBRANCH   1  10
BRANCH   6  15
ATOM     15  C   UNL     1       4.853   3.762  19.324  0.00  0.00    +0.000 C 
BRANCH  15  16
ATOM     16  C   UNL     1       3.364   3.582  19.513  0.00  0.00    +0.000 A 
ATOM     17  C   UNL     1       2.674   2.555  18.852  0.00  0.00    +0.000 A 
ATOM     18  C   UNL     1       1.311   2.353  19.083  0.00  0.00    +0.000 A 
ATOM     19  C   UNL     1       0.623   3.170  19.976  0.00  0.00    +0.000 A 
ATOM     20  C   UNL     1       1.296   4.195  20.638  0.00  0.00    +0.000 A 
ATOM     21  C   UNL     1       2.657   4.399  20.407  0.00  0.00    +0.000 A 
ENDBRANCH  15  16
ENDBRANCH   6  15
TORSDOF 4
ENDMDL
MODEL 3
REMARK VINA RESULT:      -7.7      1.519      2.165
REMARK  Name = 
REMARK  5 active torsions:
REMARK  status: ('A' for Active; 'I' for Inactive)
REMARK    1  A    between atoms: C_1  and  S_2
REMARK    2  A    between atoms: S_2  and  O_5
REMARK    3  A    between atoms: O_5  and  N_6
REMARK    4  A    between atoms: C_11  and  C_12
REMARK    5  A    between atoms: C_12  and  C_13
REMARK                            x       y       z     vdW  Elec       q    Type
REMARK                         _______ _______ _______ _____ _____    ______ ____
ROOT
ATOM      1  N   UNL     1       6.236   5.690  16.810  0.00  0.00    +0.000 N 
ATOM      2  C   UNL     1       7.203   6.538  17.306  0.00  0.00    +0.000 C 
ATOM      3  O   UNL     1       7.871   7.327  16.642  0.00  0.00    +0.000 OA
ATOM      4  N   UNL     1       7.321   6.519  18.674  0.00  0.00    +0.000 N 
ATOM      5  C   UNL     1       6.745   5.447  19.443  0.00  0.00    +0.000 C 
ATOM      6  C   UNL     1       5.303   5.173  19.024  0.00  0.00    +0.000 C 
ATOM      7  C   UNL     1       5.095   5.420  17.532  0.00  0.00    +0.000 C 
ATOM      8  O   UNL     1       3.962   5.404  17.045  0.00  0.00    +0.000 OA
ATOM      9  H   UNL     1       8.080   7.081  19.046  0.00  0.00    +0.000 HD
ENDROOT
BRANCH   1  10
ATOM     10  O   UNL     1       5.990   5.899  15.428  0.00  0.00    +0.000 OA
BRANCH  10  12
ATOM     11  C   UNL     1       5.333   4.351  13.494  0.00  0.00    +0.000 C 
ATOM     12  S   UNL     1       6.731   4.770  14.510  0.00  0.00    +0.000 S 
ATOM     13  O   UNL     1       7.065   3.631  15.341  0.00  0.00    +0.000 OA
ATOM     14  O   UNL     1       7.734   5.408  13.683  0.00  0.00    +0.000 OA
ENDBRANCH  10  12
ENDBRANCH   1  10
BRANCH   6  15
ATOM     15  C   UNL     1       4.882   3.728  19.333  0.00  0.00    +0.000 C 
BRANCH  15  16
ATOM     16  C   UNL     1       3.406   3.531  19.601  0.00  0.00    +0.000 A 
ATOM     17  C   UNL     1       2.701   4.415  20.429  0.00  0.00    +0.000 A 
ATOM     18  C   UNL     1       1.325   4.266  20.618  0.00  0.00    +0.000 A 
ATOM     19  C   UNL     1       0.638   3.235  19.981  0.00  0.00    +0.000 A 
ATOM     20  C   UNL     1       1.327   2.350  19.156  0.00  0.00    +0.000 A 
ATOM     21  C   UNL     1       2.703   2.497  18.967  0.00  0.00    +0.000 A 
ENDBRANCH  15  16
ENDBRANCH   6  15
TORSDOF 4
ENDMDL
MODEL 4
REMARK VINA RESULT:      -7.7      0.077      1.081
REMARK  Name = 
REMARK  5 active torsions:
REMARK  status: ('A' for Active; 'I' for Inactive)
REMARK    1  A    between atoms: C_1  and  S_2
REMARK    2  A    between atoms: S_2  and  O_5
REMARK    3  A    between atoms: O_5  and  N_6
REMARK    4  A    between atoms: C_11  and  C_12
REMARK    5  A    between atoms: C_12  and  C_13
REMARK                            x       y       z     vdW  Elec       q    Type
REMARK                         _______ _______ _______ _____ _____    ______ ____
ROOT
ATOM      1  N   UNL     1       6.572   5.359  17.073  0.00  0.00    +0.000 N 
ATOM      2  C   UNL     1       7.263   4.526  17.927  0.00  0.00    +0.000 C 
ATOM      3  O   UNL     1       8.418   4.139  17.769  0.00  0.00    +0.000 OA
ATOM      4  N   UNL     1       6.584   4.211  19.078  0.00  0.00    +0.000 N 
ATOM      5  C   UNL     1       5.166   4.437  19.175  0.00  0.00    +0.000 C 
ATOM      6  C   UNL     1       4.790   5.836  18.695  0.00  0.00    +0.000 C 
ATOM      7  C   UNL     1       5.697   6.304  17.561  0.00  0.00    +0.000 C 
ATOM      8  O   UNL     1       5.645   7.467  17.154  0.00  0.00    +0.000 OA
ATOM      9  H   UNL     1       7.050   3.539  19.679  0.00  0.00    +0.000 HD
ENDROOT
BRANCH   1  10
ATOM     10  O   UNL     1       7.384   5.840  16.012  0.00  0.00    +0.000 OA
BRANCH  10  12
ATOM     11  C   UNL     1       6.397   3.713  14.975  0.00  0.00    +0.000 C 
ATOM     12  S   UNL     1       6.792   5.396  14.556  0.00  0.00    +0.000 S 
ATOM     13  O   UNL     1       7.871   5.397  13.588  0.00  0.00    +0.000 OA
ATOM     14  O   UNL     1       5.562   6.115  14.300  0.00  0.00    +0.000 OA
ENDBRANCH  10  12
ENDBRANCH   1  10
BRANCH   6  15
ATOM     15  C   UNL     1       3.335   5.900  18.203  0.00  0.00    +0.000 C 
BRANCH  15  16
ATOM     16  C   UNL     1       2.418   4.838  18.765  0.00  0.00    +0.000 A 
ATOM     17  C   UNL     1       1.921   4.935  20.073  0.00  0.00    +0.000 A 
ATOM     18  C   UNL     1       1.020   3.986  20.562  0.00  0.00    +0.000 A 
ATOM     19  C   UNL     1       0.605   2.931  19.752  0.00  0.00    +0.000 A 
ATOM     20  C   UNL     1       1.092   2.823  18.452  0.00  0.00    +0.000 A 
ATOM     21  C   UNL     1       1.992   3.770  17.962  0.00  0.00    +0.000 A 
ENDBRANCH  15  16
ENDBRANCH   6  15
TORSDOF 4
ENDMDL
MODEL 5
REMARK VINA RESULT:      -7.6      1.673      1.991
REMARK  Name = 
REMARK  5 active torsions:
REMARK  status: ('A' for Active; 'I' for Inactive)
REMARK    1  A    between atoms: C_1  and  S_2
REMARK    2  A    between atoms: S_2  and  O_5
REMARK    3  A    between atoms: O_5  and  N_6
REMARK    4  A    between atoms: C_11  and  C_12
REMARK    5  A    between atoms: C_12  and  C_13
REMARK                            x       y       z     vdW  Elec       q    Type
REMARK                         _______ _______ _______ _____ _____    ______ ____
ROOT
ATOM      1  N   UNL     1       6.233   5.658  16.783  0.00  0.00    +0.000 N 
ATOM      2  C   UNL     1       7.239   6.471  17.259  0.00  0.00    +0.000 C 
ATOM      3  O   UNL     1       7.923   7.233  16.581  0.00  0.00    +0.000 OA
ATOM      4  N   UNL     1       7.381   6.450  18.625  0.00  0.00    +0.000 N 
ATOM      5  C   UNL     1       6.779   5.402  19.406  0.00  0.00    +0.000 C 
ATOM      6  C   UNL     1       5.321   5.181  19.014  0.00  0.00    +0.000 C 
ATOM      7  C   UNL     1       5.095   5.432  17.525  0.00  0.00    +0.000 C 
ATOM      8  O   UNL     1       3.954   5.456  17.058  0.00  0.00    +0.000 OA
ATOM      9  H   UNL     1       8.166   6.985  18.981  0.00  0.00    +0.000 HD
ENDROOT
BRANCH   1  10
ATOM     10  O   UNL     1       5.970   5.874  15.404  0.00  0.00    +0.000 OA
BRANCH  10  12
ATOM     11  C   UNL     1       7.567   5.149  13.535  0.00  0.00    +0.000 C 
ATOM     12  S   UNL     1       6.230   4.523  14.526  0.00  0.00    +0.000 S 
ATOM     13  O   UNL     1       5.083   4.287  13.671  0.00  0.00    +0.000 OA
ATOM     14  O   UNL     1       6.739   3.479  15.392  0.00  0.00    +0.000 OA
ENDBRANCH  10  12
ENDBRANCH   1  10
BRANCH   6  15
ATOM     15  C   UNL     1       4.852   3.753  19.334  0.00  0.00    +0.000 C 
BRANCH  15  16
ATOM     16  C   UNL     1       3.362   3.595  19.539  0.00  0.00    +0.000 A 
ATOM     17  C   UNL     1       2.663   2.536  18.942  0.00  0.00    +0.000 A 
ATOM     18  C   UNL     1       1.300   2.357  19.189  0.00  0.00    +0.000 A 
ATOM     19  C   UNL     1       0.621   3.230  20.036  0.00  0.00    +0.000 A 
ATOM     20  C   UNL     1       1.304   4.286  20.635  0.00  0.00    +0.000 A 
ATOM     21  C   UNL     1       2.666   4.467  20.388  0.00  0.00    +0.000 A 
ENDBRANCH  15  16
ENDBRANCH   6  15
TORSDOF 4
ENDMDL
MODEL 6
REMARK VINA RESULT:      -7.6      0.926      1.101
REMARK  Name = 
REMARK  5 active torsions:
REMARK  status: ('A' for Active; 'I' for Inactive)
REMARK    1  A    between atoms: C_1  and  S_2
REMARK    2  A    between atoms: S_2  and  O_5
REMARK    3  A    between atoms: O_5  and  N_6
REMARK    4  A    between atoms: C_11  and  C_12
REMARK    5  A    between atoms: C_12  and  C_13
REMARK                            x       y       z     vdW  Elec       q    Type
REMARK                         _______ _______ _______ _____ _____    ______ ____
ROOT
ATOM      1  N   UNL     1       6.540   5.322  16.881  0.00  0.00    +0.000 N 
ATOM      2  C   UNL     1       7.215   4.592  17.835  0.00  0.00    +0.000 C 
ATOM      3  O   UNL     1       8.330   4.096  17.698  0.00  0.00    +0.000 OA
ATOM      4  N   UNL     1       6.577   4.526  19.050  0.00  0.00    +0.000 N 
ATOM      5  C   UNL     1       5.186   4.873  19.164  0.00  0.00    +0.000 C 
ATOM      6  C   UNL     1       4.883   6.198  18.470  0.00  0.00    +0.000 C 
ATOM      7  C   UNL     1       5.759   6.400  17.237  0.00  0.00    +0.000 C 
ATOM      8  O   UNL     1       5.767   7.480  16.641  0.00  0.00    +0.000 OA
ATOM      9  H   UNL     1       7.027   3.929  19.736  0.00  0.00    +0.000 HD
ENDROOT
BRANCH   1  10
ATOM     10  O   UNL     1       7.326   5.556  15.722  0.00  0.00    +0.000 OA
BRANCH  10  12
ATOM     11  C   UNL     1       7.964   5.246  13.259  0.00  0.00    +0.000 C 
ATOM     12  S   UNL     1       6.628   4.924  14.388  0.00  0.00    +0.000 S 
ATOM     13  O   UNL     1       5.492   5.744  14.016  0.00  0.00    +0.000 OA
ATOM     14  O   UNL     1       6.491   3.492  14.552  0.00  0.00    +0.000 OA
ENDBRANCH  10  12
ENDBRANCH   1  10
BRANCH   6  15
ATOM     15  C   UNL     1       3.413   6.293  18.033  0.00  0.00    +0.000 C 
BRANCH  15  16
ATOM     16  C   UNL     1       2.491   5.264  18.649  0.00  0.00    +0.000 A 
ATOM     17  C   UNL     1       2.068   4.147  17.914  0.00  0.00    +0.000 A 
ATOM     18  C   UNL     1       1.271   3.166  18.510  0.00  0.00    +0.000 A 
ATOM     19  C   UNL     1       0.890   3.288  19.844  0.00  0.00    +0.000 A 
ATOM     20  C   UNL     1       1.303   4.394  20.584  0.00  0.00    +0.000 A 
ATOM     21  C   UNL     1       2.098   5.375  19.990  0.00  0.00    +0.000 A 
ENDBRANCH  15  16
ENDBRANCH   6  15
TORSDOF 4
ENDMDL
MODEL 7
REMARK VINA RESULT:      -7.6      0.937      1.554
REMARK  Name = 
REMARK  5 active torsions:
REMARK  status: ('A' for Active; 'I' for Inactive)
REMARK    1  A    between atoms: C_1  and  S_2
REMARK    2  A    between atoms: S_2  and  O_5
REMARK    3  A    between atoms: O_5  and  N_6
REMARK    4  A    between atoms: C_11  and  C_12
REMARK    5  A    between atoms: C_12  and  C_13
REMARK                            x       y       z     vdW  Elec       q    Type
REMARK                         _______ _______ _______ _____ _____    ______ ____
ROOT
ATOM      1  N   UNL     1       6.516   5.305  16.903  0.00  0.00    +0.000 N 
ATOM      2  C   UNL     1       7.231   4.609  17.854  0.00  0.00    +0.000 C 
ATOM      3  O   UNL     1       8.344   4.116  17.692  0.00  0.00    +0.000 OA
ATOM      4  N   UNL     1       6.637   4.576  19.092  0.00  0.00    +0.000 N 
ATOM      5  C   UNL     1       5.247   4.918  19.246  0.00  0.00    +0.000 C 
ATOM      6  C   UNL     1       4.910   6.219  18.523  0.00  0.00    +0.000 C 
ATOM      7  C   UNL     1       5.741   6.388  17.254  0.00  0.00    +0.000 C 
ATOM      8  O   UNL     1       5.719   7.450  16.626  0.00  0.00    +0.000 OA
ATOM      9  H   UNL     1       7.115   4.003  19.780  0.00  0.00    +0.000 HD
ENDROOT
BRANCH   1  10
ATOM     10  O   UNL     1       7.258   5.509  15.710  0.00  0.00    +0.000 OA
BRANCH  10  12
ATOM     11  C   UNL     1       7.819   5.129  13.238  0.00  0.00    +0.000 C 
ATOM     12  S   UNL     1       6.543   4.792  14.430  0.00  0.00    +0.000 S 
ATOM     13  O   UNL     1       5.355   5.542  14.071  0.00  0.00    +0.000 OA
ATOM     14  O   UNL     1       6.480   3.363  14.655  0.00  0.00    +0.000 OA
ENDBRANCH  10  12
ENDBRANCH   1  10
BRANCH   6  15
ATOM     15  C   UNL     1       3.425   6.291  18.137  0.00  0.00    +0.000 C 
BRANCH  15  16
ATOM     16  C   UNL     1       2.556   5.195  18.713  0.00  0.00    +0.000 A 
ATOM     17  C   UNL     1       2.077   5.275  20.028  0.00  0.00    +0.000 A 
ATOM     18  C   UNL     1       1.220   4.293  20.532  0.00  0.00    +0.000 A 
ATOM     19  C   UNL     1       0.831   3.223  19.729  0.00  0.00    +0.000 A 
ATOM     20  C   UNL     1       1.301   3.133  18.420  0.00  0.00    +0.000 A 
ATOM     21  C   UNL     1       2.158   4.112  17.916  0.00  0.00    +0.000 A 
ENDBRANCH  15  16
ENDBRANCH   6  15
TORSDOF 4
ENDMDL
MODEL 8
REMARK VINA RESULT:      -7.5      3.368      6.389
REMARK  Name = 
REMARK  5 active torsions:
REMARK  status: ('A' for Active; 'I' for Inactive)
REMARK    1  A    between atoms: C_1  and  S_2
REMARK    2  A    between atoms: S_2  and  O_5
REMARK    3  A    between atoms: O_5  and  N_6
REMARK    4  A    between atoms: C_11  and  C_12
REMARK    5  A    between atoms: C_12  and  C_13
REMARK                            x       y       z     vdW  Elec       q    Type
REMARK                         _______ _______ _______ _____ _____    ______ ____
ROOT
ATOM      1  N   UNL     1       3.676   5.111  18.307  0.00  0.00    +0.000 N 
ATOM      2  C   UNL     1       3.479   6.461  18.109  0.00  0.00    +0.000 C 
ATOM      3  O   UNL     1       2.748   7.183  18.782  0.00  0.00    +0.000 OA
ATOM      4  N   UNL     1       4.262   7.005  17.121  0.00  0.00    +0.000 N 
ATOM      5  C   UNL     1       4.928   6.159  16.167  0.00  0.00    +0.000 C 
ATOM      6  C   UNL     1       5.655   5.006  16.855  0.00  0.00    +0.000 C 
ATOM      7  C   UNL     1       4.912   4.539  18.103  0.00  0.00    +0.000 C 
ATOM      8  O   UNL     1       5.428   3.726  18.874  0.00  0.00    +0.000 OA
ATOM      9  H   UNL     1       4.073   7.981  16.915  0.00  0.00    +0.000 HD
ENDROOT
BRANCH   1  10
ATOM     10  O   UNL     1       3.021   4.634  19.473  0.00  0.00    +0.000 OA
BRANCH  10  12
ATOM     11  C   UNL     1       2.356   2.163  19.341  0.00  0.00    +0.000 C 
ATOM     12  S   UNL     1       1.675   3.788  19.102  0.00  0.00    +0.000 S 
ATOM     13  O   UNL     1       1.377   3.969  17.694  0.00  0.00    +0.000 OA
ATOM     14  O   UNL     1       0.666   4.026  20.112  0.00  0.00    +0.000 OA
ENDBRANCH  10  12
ENDBRANCH   1  10
BRANCH   6  15
ATOM     15  C   UNL     1       5.827   3.799  15.920  0.00  0.00    +0.000 C 
BRANCH  15  16
ATOM     16  C   UNL     1       6.328   4.126  14.531  0.00  0.00    +0.000 A 
ATOM     17  C   UNL     1       7.405   5.005  14.344  0.00  0.00    +0.000 A 
ATOM     18  C   UNL     1       7.905   5.251  13.063  0.00  0.00    +0.000 A 
ATOM     19  C   UNL     1       7.339   4.621  11.957  0.00  0.00    +0.000 A 
ATOM     20  C   UNL     1       6.270   3.746  12.130  0.00  0.00    +0.000 A 
ATOM     21  C   UNL     1       5.768   3.500  13.409  0.00  0.00    +0.000 A 
ENDBRANCH  15  16
ENDBRANCH   6  15
TORSDOF 4
ENDMDL
MODEL 9
REMARK VINA RESULT:      -7.4      2.984      6.092
REMARK  Name = 
REMARK  5 active torsions:
REMARK  status: ('A' for Active; 'I' for Inactive)
REMARK    1  A    between atoms: C_1  and  S_2
REMARK    2  A    between atoms: S_2  and  O_5
REMARK    3  A    between atoms: O_5  and  N_6
REMARK    4  A    between atoms: C_11  and  C_12
REMARK    5  A    between atoms: C_12  and  C_13
REMARK                            x       y       z     vdW  Elec       q    Type
REMARK                         _______ _______ _______ _____ _____    ______ ____
ROOT
ATOM      1  N   UNL     1       4.527   5.107  18.466  0.00  0.00    +0.000 N 
ATOM      2  C   UNL     1       3.697   6.115  18.025  0.00  0.00    +0.000 C 
ATOM      3  O   UNL     1       2.634   6.443  18.544  0.00  0.00    +0.000 OA
ATOM      4  N   UNL     1       4.198   6.835  16.968  0.00  0.00    +0.000 N 
ATOM      5  C   UNL     1       5.299   6.327  16.194  0.00  0.00    +0.000 C 
ATOM      6  C   UNL     1       6.430   5.831  17.091  0.00  0.00    +0.000 C 
ATOM      7  C   UNL     1       5.896   5.234  18.390  0.00  0.00    +0.000 C 
ATOM      8  O   UNL     1       6.667   4.928  19.304  0.00  0.00    +0.000 OA
ATOM      9  H   UNL     1       3.564   7.530  16.586  0.00  0.00    +0.000 HD
ENDROOT
BRANCH   1  10
ATOM     10  O   UNL     1       4.083   4.536  19.688  0.00  0.00    +0.000 OA
BRANCH  10  12
ATOM     11  C   UNL     1       2.332   2.850  20.499  0.00  0.00    +0.000 C 
ATOM     12  S   UNL     1       3.827   2.930  19.541  0.00  0.00    +0.000 S 
ATOM     13  O   UNL     1       4.875   2.218  20.246  0.00  0.00    +0.000 OA
ATOM     14  O   UNL     1       3.515   2.619  18.161  0.00  0.00    +0.000 OA
ENDBRANCH  10  12
ENDBRANCH   1  10
BRANCH   6  15
ATOM     15  C   UNL     1       7.290   4.766  16.392  0.00  0.00    +0.000 C 
BRANCH  15  16
ATOM     16  C   UNL     1       7.054   4.621  14.905  0.00  0.00    +0.000 A 
ATOM     17  C   UNL     1       7.846   5.318  13.981  0.00  0.00    +0.000 A 
ATOM     18  C   UNL     1       7.667   5.128  12.609  0.00  0.00    +0.000 A 
ATOM     19  C   UNL     1       6.698   4.241  12.144  0.00  0.00    +0.000 A 
ATOM     20  C   UNL     1       5.905   3.544  13.052  0.00  0.00    +0.000 A 
ATOM     21  C   UNL     1       6.082   3.733  14.424  0.00  0.00    +0.000 A 
ENDBRANCH  15  16
ENDBRANCH   6  15
TORSDOF 4
ENDMDL
