MODEL 1
REMARK VINA RESULT:      -9.1      0.000      0.000
REMARK  Name = 
REMARK  7 active torsions:
REMARK  status: ('A' for Active; 'I' for Inactive)
REMARK    1  A    between atoms: N_1  and  C_2
REMARK    2  A    between atoms: C_5  and  C_6
REMARK    3  A    between atoms: C_6  and  C_7
REMARK    4  A    between atoms: C_7  and  N_8
REMARK    5  A    between atoms: C_11  and  N_12
REMARK    6  A    between atoms: N_21  and  C_22
REMARK    7  A    between atoms: C_22  and  C_23
REMARK                            x       y       z     vdW  Elec       q    Type
REMARK                         _______ _______ _______ _____ _____    ______ ____
ROOT
ATOM      1  N   UNL     1       5.564   5.447  18.967  0.00  0.00    +0.000 N 
ATOM      2  C   UNL     1       4.486   4.621  18.975  0.00  0.00    +0.000 A 
ATOM      3  N   UNL     1       4.369   3.436  18.424  0.00  0.00    +0.000 NA
ATOM      4  C   UNL     1       3.076   3.035  18.639  0.00  0.00    +0.000 A 
ATOM      5  C   UNL     1       2.422   1.864  18.232  0.00  0.00    +0.000 A 
ATOM      6  C   UNL     1       1.063   1.710  18.531  0.00  0.00    +0.000 A 
ATOM      7  C   UNL     1       0.370   2.701  19.228  0.00  0.00    +0.000 A 
ATOM      8  C   UNL     1       1.013   3.863  19.669  0.00  0.00    +0.000 A 
ATOM      9  C   UNL     1       2.373   3.994  19.359  0.00  0.00    +0.000 A 
ATOM     10  N   UNL     1       3.313   4.968  19.616  0.00  0.00    +0.000 N 
ATOM     11  H   UNL     1       5.354   6.442  18.947  0.00  0.00    +0.000 HD
ENDROOT
BRANCH   1  15
ATOM     12  N   UNL     1       8.020   7.761  17.630  0.00  0.00    +0.000 NA
ATOM     13  C   UNL     1       8.134   7.056  18.921  0.00  0.00    +0.000 C 
ATOM     14  C   UNL     1       8.069   5.544  18.752  0.00  0.00    +0.000 C 
ATOM     15  C   UNL     1       6.740   5.120  18.136  0.00  0.00    +0.000 C 
ATOM     16  C   UNL     1       6.626   5.839  16.783  0.00  0.00    +0.000 C 
ATOM     17  C   UNL     1       6.791   7.359  16.919  0.00  0.00    +0.000 C 
BRANCH  12  18
ATOM     18  C   UNL     1       8.031   9.234  17.833  0.00  0.00    +0.000 C 
BRANCH  18  19
ATOM     19  C   UNL     1       8.992   9.696  18.945  0.00  0.00    +0.000 C 
BRANCH  19  23
ATOM     20  C   UNL     1      10.933  13.467  18.061  0.00  0.00    +0.000 A 
ATOM     21  C   UNL     1      11.585  12.485  18.809  0.00  0.00    +0.000 A 
ATOM     22  C   UNL     1      10.938  11.292  19.139  0.00  0.00    +0.000 A 
ATOM     23  C   UNL     1       9.639  11.034  18.680  0.00  0.00    +0.000 A 
ATOM     24  C   UNL     1       8.998  12.000  17.901  0.00  0.00    +0.000 A 
ATOM     25  C   UNL     1       9.652  13.193  17.577  0.00  0.00    +0.000 A 
BRANCH  20  26
ATOM     26  N   UNL     1      11.638  14.587  17.604  0.00  0.00    +0.000 N 
ATOM     27  H   UNL     1      11.469  14.808  16.628  0.00  0.00    +0.000 HD
ATOM     28  H   UNL     1      12.627  14.569  17.831  0.00  0.00    +0.000 HD
ENDBRANCH  20  26
ENDBRANCH  19  23
ENDBRANCH  18  19
ENDBRANCH  12  18
ENDBRANCH   1  15
BRANCH  10  29
ATOM     29  C   UNL     1       3.100   6.128  20.468  0.00  0.00    +0.000 C 
BRANCH  29  30
ATOM     30  C   UNL     1       2.401   7.271  19.764  0.00  0.00    +0.000 A 
ATOM     31  C   UNL     1       2.543   7.502  18.383  0.00  0.00    +0.000 A 
ATOM     32  C   UNL     1       1.912   8.589  17.778  0.00  0.00    +0.000 A 
ATOM     33  C   UNL     1       1.112   9.429  18.542  0.00  0.00    +0.000 A 
ATOM     34  F   UNL     1       0.528  10.485  17.965  0.00  0.00    +0.000 F 
ATOM     35  C   UNL     1       0.915   9.191  19.895  0.00  0.00    +0.000 A 
ATOM     36  C   UNL     1       1.553   8.111  20.506  0.00  0.00    +0.000 A 
ENDBRANCH  29  30
ENDBRANCH  10  29
TORSDOF 7
ENDMDL
MODEL 2
REMARK VINA RESULT:      -8.9      0.155      1.197
REMARK  Name = 
REMARK  7 active torsions:
REMARK  status: ('A' for Active; 'I' for Inactive)
REMARK    1  A    between atoms: N_1  and  C_2
REMARK    2  A    between atoms: C_5  and  C_6
REMARK    3  A    between atoms: C_6  and  C_7
REMARK    4  A    between atoms: C_7  and  N_8
REMARK    5  A    between atoms: C_11  and  N_12
REMARK    6  A    between atoms: N_21  and  C_22
REMARK    7  A    between atoms: C_22  and  C_23
REMARK                            x       y       z     vdW  Elec       q    Type
REMARK                         _______ _______ _______ _____ _____    ______ ____
ROOT
ATOM      1  N   UNL     1       5.554   5.409  18.991  0.00  0.00    +0.000 N 
ATOM      2  C   UNL     1       4.468   4.593  18.991  0.00  0.00    +0.000 A 
ATOM      3  N   UNL     1       4.341   3.413  18.430  0.00  0.00    +0.000 NA
ATOM      4  C   UNL     1       3.044   3.024  18.640  0.00  0.00    +0.000 A 
ATOM      5  C   UNL     1       2.379   1.862  18.223  0.00  0.00    +0.000 A 
ATOM      6  C   UNL     1       1.018   1.719  18.518  0.00  0.00    +0.000 A 
ATOM      7  C   UNL     1       0.333   2.710  19.223  0.00  0.00    +0.000 A 
ATOM      8  C   UNL     1       0.987   3.862  19.674  0.00  0.00    +0.000 A 
ATOM      9  C   UNL     1       2.349   3.983  19.367  0.00  0.00    +0.000 A 
ATOM     10  N   UNL     1       3.298   4.946  19.633  0.00  0.00    +0.000 N 
ATOM     11  H   UNL     1       5.354   6.406  18.979  0.00  0.00    +0.000 HD
ENDROOT
BRANCH   1  15
ATOM     12  N   UNL     1       7.991   7.718  17.612  0.00  0.00    +0.000 NA
ATOM     13  C   UNL     1       8.114   7.031  18.911  0.00  0.00    +0.000 C 
ATOM     14  C   UNL     1       8.057   5.517  18.763  0.00  0.00    +0.000 C 
ATOM     15  C   UNL     1       6.728   5.077  18.159  0.00  0.00    +0.000 C 
ATOM     16  C   UNL     1       6.603   5.777  16.797  0.00  0.00    +0.000 C 
ATOM     17  C   UNL     1       6.760   7.300  16.912  0.00  0.00    +0.000 C 
BRANCH  12  18
ATOM     18  C   UNL     1       7.993   9.193  17.794  0.00  0.00    +0.000 C 
BRANCH  18  19
ATOM     19  C   UNL     1       8.964   9.677  18.889  0.00  0.00    +0.000 C 
BRANCH  19  23
ATOM     20  C   UNL     1      10.758  13.550  18.148  0.00  0.00    +0.000 A 
ATOM     21  C   UNL     1       9.469  13.261  17.696  0.00  0.00    +0.000 A 
ATOM     22  C   UNL     1       8.913  11.993  17.889  0.00  0.00    +0.000 A 
ATOM     23  C   UNL     1       9.618  11.004  18.587  0.00  0.00    +0.000 A 
ATOM     24  C   UNL     1      10.894  11.303  19.072  0.00  0.00    +0.000 A 
ATOM     25  C   UNL     1      11.445  12.573  18.872  0.00  0.00    +0.000 A 
BRANCH  20  26
ATOM     26  N   UNL     1      11.246  14.862  18.090  0.00  0.00    +0.000 N 
ATOM     27  H   UNL     1      12.203  14.958  18.413  0.00  0.00    +0.000 HD
ATOM     28  H   UNL     1      10.626  15.547  18.508  0.00  0.00    +0.000 HD
ENDBRANCH  20  26
ENDBRANCH  19  23
ENDBRANCH  18  19
ENDBRANCH  12  18
ENDBRANCH   1  15
BRANCH  10  29
ATOM     29  C   UNL     1       3.094   6.101  20.495  0.00  0.00    +0.000 C 
BRANCH  29  30
ATOM     30  C   UNL     1       2.397   7.252  19.802  0.00  0.00    +0.000 A 
ATOM     31  C   UNL     1       1.567   8.154  20.492  0.00  0.00    +0.000 A 
ATOM     32  C   UNL     1       0.912   9.178  19.810  0.00  0.00    +0.000 A 
ATOM     33  C   UNL     1       1.109   9.327  18.443  0.00  0.00    +0.000 A 
ATOM     34  F   UNL     1       0.461  10.295  17.786  0.00  0.00    +0.000 F 
ATOM     35  C   UNL     1       1.964   8.481  17.749  0.00  0.00    +0.000 A 
ATOM     36  C   UNL     1       2.612   7.448  18.427  0.00  0.00    +0.000 A 
ENDBRANCH  29  30
ENDBRANCH  10  29
TORSDOF 7
ENDMDL
MODEL 3
REMARK VINA RESULT:      -8.7      3.761      7.849
REMARK  Name = 
REMARK  7 active torsions:
REMARK  status: ('A' for Active; 'I' for Inactive)
REMARK    1  A    between atoms: N_1  and  C_2
REMARK    2  A    between atoms: C_5  and  C_6
REMARK    3  A    between atoms: C_6  and  C_7
REMARK    4  A    between atoms: C_7  and  N_8
REMARK    5  A    between atoms: C_11  and  N_12
REMARK    6  A    between atoms: N_21  and  C_22
REMARK    7  A    between atoms: C_22  and  C_23
REMARK                            x       y       z     vdW  Elec       q    Type
REMARK                         _______ _______ _______ _____ _____    ______ ____
ROOT
ATOM      1  N   UNL     1       4.407   3.275  17.242  0.00  0.00    +0.000 N 
ATOM      2  C   UNL     1       5.368   4.179  17.567  0.00  0.00    +0.000 A 
ATOM      3  N   UNL     1       6.180   4.162  18.598  0.00  0.00    +0.000 NA
ATOM      4  C   UNL     1       6.911   5.320  18.532  0.00  0.00    +0.000 A 
ATOM      5  C   UNL     1       7.894   5.809  19.404  0.00  0.00    +0.000 A 
ATOM      6  C   UNL     1       8.461   7.063  19.148  0.00  0.00    +0.000 A 
ATOM      7  C   UNL     1       8.062   7.814  18.041  0.00  0.00    +0.000 A 
ATOM      8  C   UNL     1       7.104   7.329  17.143  0.00  0.00    +0.000 A 
ATOM      9  C   UNL     1       6.551   6.071  17.419  0.00  0.00    +0.000 A 
ATOM     10  N   UNL     1       5.609   5.291  16.785  0.00  0.00    +0.000 N 
ATOM     11  H   UNL     1       3.580   3.657  16.791  0.00  0.00    +0.000 HD
ENDROOT
BRANCH   1  15
ATOM     12  N   UNL     1       1.978   3.393  19.937  0.00  0.00    +0.000 NA
ATOM     13  C   UNL     1       1.697   2.941  18.562  0.00  0.00    +0.000 C 
ATOM     14  C   UNL     1       2.594   1.783  18.147  0.00  0.00    +0.000 C 
ATOM     15  C   UNL     1       4.064   2.191  18.184  0.00  0.00    +0.000 C 
ATOM     16  C   UNL     1       4.365   2.645  19.620  0.00  0.00    +0.000 C 
ATOM     17  C   UNL     1       3.403   3.745  20.094  0.00  0.00    +0.000 C 
BRANCH  12  18
ATOM     18  C   UNL     1       1.126   4.559  20.292  0.00  0.00    +0.000 C 
BRANCH  18  19
ATOM     19  C   UNL     1       1.925   5.766  20.822  0.00  0.00    +0.000 C 
BRANCH  19  23
ATOM     20  C   UNL     1       1.775   9.358  18.403  0.00  0.00    +0.000 A 
ATOM     21  C   UNL     1       1.224   9.336  19.686  0.00  0.00    +0.000 A 
ATOM     22  C   UNL     1       1.226   8.162  20.444  0.00  0.00    +0.000 A 
ATOM     23  C   UNL     1       1.828   6.996  19.951  0.00  0.00    +0.000 A 
ATOM     24  C   UNL     1       2.411   7.025  18.682  0.00  0.00    +0.000 A 
ATOM     25  C   UNL     1       2.404   8.204  17.929  0.00  0.00    +0.000 A 
BRANCH  20  26
ATOM     26  N   UNL     1       1.910  10.570  17.716  0.00  0.00    +0.000 N 
ATOM     27  H   UNL     1       2.831  10.988  17.798  0.00  0.00    +0.000 HD
ATOM     28  H   UNL     1       1.166  11.233  17.906  0.00  0.00    +0.000 HD
ENDBRANCH  20  26
ENDBRANCH  19  23
ENDBRANCH  18  19
ENDBRANCH  12  18
ENDBRANCH   1  15
BRANCH  10  29
ATOM     29  C   UNL     1       5.025   5.581  15.485  0.00  0.00    +0.000 C 
BRANCH  29  30
ATOM     30  C   UNL     1       5.747   4.908  14.338  0.00  0.00    +0.000 A 
ATOM     31  C   UNL     1       7.072   5.231  13.991  0.00  0.00    +0.000 A 
ATOM     32  C   UNL     1       7.690   4.614  12.903  0.00  0.00    +0.000 A 
ATOM     33  C   UNL     1       7.000   3.651  12.179  0.00  0.00    +0.000 A 
ATOM     34  F   UNL     1       7.585   3.079  11.120  0.00  0.00    +0.000 F 
ATOM     35  C   UNL     1       5.711   3.279  12.534  0.00  0.00    +0.000 A 
ATOM     36  C   UNL     1       5.086   3.901  13.615  0.00  0.00    +0.000 A 
ENDBRANCH  29  30
ENDBRANCH  10  29
TORSDOF 7
ENDMDL
MODEL 4
REMARK VINA RESULT:      -8.3      1.164      1.561
REMARK  Name = 
REMARK  7 active torsions:
REMARK  status: ('A' for Active; 'I' for Inactive)
REMARK    1  A    between atoms: N_1  and  C_2
REMARK    2  A    between atoms: C_5  and  C_6
REMARK    3  A    between atoms: C_6  and  C_7
REMARK    4  A    between atoms: C_7  and  N_8
REMARK    5  A    between atoms: C_11  and  N_12
REMARK    6  A    between atoms: N_21  and  C_22
REMARK    7  A    between atoms: C_22  and  C_23
REMARK                            x       y       z     vdW  Elec       q    Type
REMARK                         _______ _______ _______ _____ _____    ______ ____
ROOT
ATOM      1  N   UNL     1       5.112   5.188  17.547  0.00  0.00    +0.000 N 
ATOM      2  C   UNL     1       4.320   4.608  18.486  0.00  0.00    +0.000 A 
ATOM      3  N   UNL     1       4.666   3.764  19.429  0.00  0.00    +0.000 NA
ATOM      4  C   UNL     1       3.509   3.408  20.072  0.00  0.00    +0.000 A 
ATOM      5  C   UNL     1       3.313   2.512  21.132  0.00  0.00    +0.000 A 
ATOM      6  C   UNL     1       2.009   2.272  21.583  0.00  0.00    +0.000 A 
ATOM      7  C   UNL     1       0.921   2.918  20.994  0.00  0.00    +0.000 A 
ATOM      8  C   UNL     1       1.100   3.839  19.955  0.00  0.00    +0.000 A 
ATOM      9  C   UNL     1       2.414   4.063  19.522  0.00  0.00    +0.000 A 
ATOM     10  N   UNL     1       2.966   4.872  18.553  0.00  0.00    +0.000 N 
ATOM     11  H   UNL     1       4.673   5.355  16.645  0.00  0.00    +0.000 HD
ENDROOT
BRANCH   1  15
ATOM     12  N   UNL     1       8.067   7.296  17.590  0.00  0.00    +0.000 NA
ATOM     13  C   UNL     1       7.484   6.630  18.769  0.00  0.00    +0.000 C 
ATOM     14  C   UNL     1       7.402   5.120  18.589  0.00  0.00    +0.000 C 
ATOM     15  C   UNL     1       6.517   4.759  17.400  0.00  0.00    +0.000 C 
ATOM     16  C   UNL     1       7.132   5.437  16.165  0.00  0.00    +0.000 C 
ATOM     17  C   UNL     1       7.318   6.948  16.366  0.00  0.00    +0.000 C 
BRANCH  12  18
ATOM     18  C   UNL     1       8.082   8.771  17.773  0.00  0.00    +0.000 C 
BRANCH  18  19
ATOM     19  C   UNL     1       8.923   9.233  18.979  0.00  0.00    +0.000 C 
BRANCH  19  23
ATOM     20  C   UNL     1      10.289  13.337  18.709  0.00  0.00    +0.000 A 
ATOM     21  C   UNL     1      10.739  12.499  19.732  0.00  0.00    +0.000 A 
ATOM     22  C   UNL     1      10.256  11.192  19.848  0.00  0.00    +0.000 A 
ATOM     23  C   UNL     1       9.350  10.680  18.909  0.00  0.00    +0.000 A 
ATOM     24  C   UNL     1       8.926  11.506  17.865  0.00  0.00    +0.000 A 
ATOM     25  C   UNL     1       9.412  12.813  17.757  0.00  0.00    +0.000 A 
BRANCH  20  26
ATOM     26  N   UNL     1      10.890  14.585  18.507  0.00  0.00    +0.000 N 
ATOM     27  H   UNL     1      10.974  14.846  17.530  0.00  0.00    +0.000 HD
ATOM     28  H   UNL     1      11.759  14.708  19.017  0.00  0.00    +0.000 HD
ENDBRANCH  20  26
ENDBRANCH  19  23
ENDBRANCH  18  19
ENDBRANCH  12  18
ENDBRANCH   1  15
BRANCH  10  29
ATOM     29  C   UNL     1       2.236   5.868  17.783  0.00  0.00    +0.000 C 
BRANCH  29  30
ATOM     30  C   UNL     1       1.968   7.143  18.552  0.00  0.00    +0.000 A 
ATOM     31  C   UNL     1       1.914   7.177  19.957  0.00  0.00    +0.000 A 
ATOM     32  C   UNL     1       1.627   8.365  20.628  0.00  0.00    +0.000 A 
ATOM     33  C   UNL     1       1.425   9.530  19.900  0.00  0.00    +0.000 A 
ATOM     34  F   UNL     1       1.125  10.665  20.544  0.00  0.00    +0.000 F 
ATOM     35  C   UNL     1       1.524   9.533  18.516  0.00  0.00    +0.000 A 
ATOM     36  C   UNL     1       1.800   8.344  17.841  0.00  0.00    +0.000 A 
ENDBRANCH  29  30
ENDBRANCH  10  29
TORSDOF 7
ENDMDL
MODEL 5
REMARK VINA RESULT:      -8.3      4.877      8.636
REMARK  Name = 
REMARK  7 active torsions:
REMARK  status: ('A' for Active; 'I' for Inactive)
REMARK    1  A    between atoms: N_1  and  C_2
REMARK    2  A    between atoms: C_5  and  C_6
REMARK    3  A    between atoms: C_6  and  C_7
REMARK    4  A    between atoms: C_7  and  N_8
REMARK    5  A    between atoms: C_11  and  N_12
REMARK    6  A    between atoms: N_21  and  C_22
REMARK    7  A    between atoms: C_22  and  C_23
REMARK                            x       y       z     vdW  Elec       q    Type
REMARK                         _______ _______ _______ _____ _____    ______ ____
ROOT
ATOM      1  N   UNL     1       1.810   7.761  20.466  0.00  0.00    +0.000 N 
ATOM      2  C   UNL     1       1.767   6.439  20.155  0.00  0.00    +0.000 A 
ATOM      3  N   UNL     1       1.074   5.491  20.741  0.00  0.00    +0.000 NA
ATOM      4  C   UNL     1       1.419   4.320  20.119  0.00  0.00    +0.000 A 
ATOM      5  C   UNL     1       0.994   3.010  20.378  0.00  0.00    +0.000 A 
ATOM      6  C   UNL     1       1.544   1.960  19.632  0.00  0.00    +0.000 A 
ATOM      7  C   UNL     1       2.494   2.212  18.640  0.00  0.00    +0.000 A 
ATOM      8  C   UNL     1       2.908   3.516  18.346  0.00  0.00    +0.000 A 
ATOM      9  C   UNL     1       2.343   4.550  19.106  0.00  0.00    +0.000 A 
ATOM     10  N   UNL     1       2.501   5.919  19.108  0.00  0.00    +0.000 N 
ATOM     11  H   UNL     1       2.705   8.219  20.313  0.00  0.00    +0.000 HD
ENDROOT
BRANCH   1  15
ATOM     12  N   UNL     1      -0.270  10.717  20.795  0.00  0.00    +0.000 NA
ATOM     13  C   UNL     1      -0.766   9.361  20.494  0.00  0.00    +0.000 C 
ATOM     14  C   UNL     1      -0.371   8.358  21.569  0.00  0.00    +0.000 C 
ATOM     15  C   UNL     1       1.146   8.255  21.689  0.00  0.00    +0.000 C 
ATOM     16  C   UNL     1       1.665   9.663  22.020  0.00  0.00    +0.000 C 
ATOM     17  C   UNL     1       1.191  10.709  21.000  0.00  0.00    +0.000 C 
BRANCH  12  18
ATOM     18  C   UNL     1      -0.623  11.660  19.701  0.00  0.00    +0.000 C 
BRANCH  18  19
ATOM     19  C   UNL     1      -2.140  11.876  19.539  0.00  0.00    +0.000 C 
BRANCH  19  23
ATOM     20  C   UNL     1      -3.727  10.491  15.753  0.00  0.00    +0.000 A 
ATOM     21  C   UNL     1      -4.526  11.212  16.642  0.00  0.00    +0.000 A 
ATOM     22  C   UNL     1      -4.029  11.612  17.885  0.00  0.00    +0.000 A 
ATOM     23  C   UNL     1      -2.701  11.341  18.243  0.00  0.00    +0.000 A 
ATOM     24  C   UNL     1      -1.889  10.650  17.340  0.00  0.00    +0.000 A 
ATOM     25  C   UNL     1      -2.395  10.252  16.098  0.00  0.00    +0.000 A 
BRANCH  20  26
ATOM     26  N   UNL     1      -4.179  10.231  14.453  0.00  0.00    +0.000 N 
ATOM     27  H   UNL     1      -3.584  10.617  13.728  0.00  0.00    +0.000 HD
ATOM     28  H   UNL     1      -5.158  10.452  14.309  0.00  0.00    +0.000 HD
ENDBRANCH  20  26
ENDBRANCH  19  23
ENDBRANCH  18  19
ENDBRANCH  12  18
ENDBRANCH   1  15
BRANCH  10  29
ATOM     29  C   UNL     1       3.269   6.670  18.127  0.00  0.00    +0.000 C 
BRANCH  29  30
ATOM     30  C   UNL     1       4.606   6.041  17.801  0.00  0.00    +0.000 A 
ATOM     31  C   UNL     1       4.997   5.743  16.483  0.00  0.00    +0.000 A 
ATOM     32  C   UNL     1       6.222   5.128  16.228  0.00  0.00    +0.000 A 
ATOM     33  C   UNL     1       7.075   4.838  17.284  0.00  0.00    +0.000 A 
ATOM     34  F   UNL     1       8.240   4.226  17.041  0.00  0.00    +0.000 F 
ATOM     35  C   UNL     1       6.735   5.169  18.589  0.00  0.00    +0.000 A 
ATOM     36  C   UNL     1       5.505   5.774  18.848  0.00  0.00    +0.000 A 
ENDBRANCH  29  30
ENDBRANCH  10  29
TORSDOF 7
ENDMDL
MODEL 6
REMARK VINA RESULT:      -8.2      4.864      8.777
REMARK  Name = 
REMARK  7 active torsions:
REMARK  status: ('A' for Active; 'I' for Inactive)
REMARK    1  A    between atoms: N_1  and  C_2
REMARK    2  A    between atoms: C_5  and  C_6
REMARK    3  A    between atoms: C_6  and  C_7
REMARK    4  A    between atoms: C_7  and  N_8
REMARK    5  A    between atoms: C_11  and  N_12
REMARK    6  A    between atoms: N_21  and  C_22
REMARK    7  A    between atoms: C_22  and  C_23
REMARK                            x       y       z     vdW  Elec       q    Type
REMARK                         _______ _______ _______ _____ _____    ______ ____
ROOT
ATOM      1  N   UNL     1       1.870   7.768  20.453  0.00  0.00    +0.000 N 
ATOM      2  C   UNL     1       1.773   6.459  20.105  0.00  0.00    +0.000 A 
ATOM      3  N   UNL     1       1.028   5.528  20.652  0.00  0.00    +0.000 NA
ATOM      4  C   UNL     1       1.332   4.359  20.004  0.00  0.00    +0.000 A 
ATOM      5  C   UNL     1       0.843   3.063  20.219  0.00  0.00    +0.000 A 
ATOM      6  C   UNL     1       1.360   2.010  19.453  0.00  0.00    +0.000 A 
ATOM      7  C   UNL     1       2.339   2.245  18.486  0.00  0.00    +0.000 A 
ATOM      8  C   UNL     1       2.817   3.537  18.236  0.00  0.00    +0.000 A 
ATOM      9  C   UNL     1       2.285   4.574  19.015  0.00  0.00    +0.000 A 
ATOM     10  N   UNL     1       2.503   5.934  19.057  0.00  0.00    +0.000 N 
ATOM     11  H   UNL     1       2.787   8.189  20.329  0.00  0.00    +0.000 HD
ENDROOT
BRANCH   1  15
ATOM     12  N   UNL     1      -0.189  10.739  20.795  0.00  0.00    +0.000 NA
ATOM     13  C   UNL     1      -0.693   9.388  20.483  0.00  0.00    +0.000 C 
ATOM     14  C   UNL     1      -0.310   8.375  21.553  0.00  0.00    +0.000 C 
ATOM     15  C   UNL     1       1.205   8.258  21.677  0.00  0.00    +0.000 C 
ATOM     16  C   UNL     1       1.734   9.660  22.020  0.00  0.00    +0.000 C 
ATOM     17  C   UNL     1       1.272  10.717  21.006  0.00  0.00    +0.000 C 
BRANCH  12  18
ATOM     18  C   UNL     1      -0.529  11.692  19.707  0.00  0.00    +0.000 C 
BRANCH  18  19
ATOM     19  C   UNL     1      -0.949  11.003  18.394  0.00  0.00    +0.000 C 
BRANCH  19  23
ATOM     20  C   UNL     1      -5.096  11.700  17.352  0.00  0.00    +0.000 A 
ATOM     21  C   UNL     1      -4.613  12.028  18.620  0.00  0.00    +0.000 A 
ATOM     22  C   UNL     1      -3.288  11.753  18.972  0.00  0.00    +0.000 A 
ATOM     23  C   UNL     1      -2.405  11.191  18.041  0.00  0.00    +0.000 A 
ATOM     24  C   UNL     1      -2.878  10.895  16.760  0.00  0.00    +0.000 A 
ATOM     25  C   UNL     1      -4.205  11.171  16.416  0.00  0.00    +0.000 A 
BRANCH  20  26
ATOM     26  N   UNL     1      -6.373  12.119  16.956  0.00  0.00    +0.000 N 
ATOM     27  H   UNL     1      -6.716  12.926  17.466  0.00  0.00    +0.000 HD
ATOM     28  H   UNL     1      -7.054  11.368  16.914  0.00  0.00    +0.000 HD
ENDBRANCH  20  26
ENDBRANCH  19  23
ENDBRANCH  18  19
ENDBRANCH  12  18
ENDBRANCH   1  15
BRANCH  10  29
ATOM     29  C   UNL     1       3.323   6.676  18.111  0.00  0.00    +0.000 C 
BRANCH  29  30
ATOM     30  C   UNL     1       4.673   6.040  17.859  0.00  0.00    +0.000 A 
ATOM     31  C   UNL     1       5.124   5.718  16.566  0.00  0.00    +0.000 A 
ATOM     32  C   UNL     1       6.358   5.099  16.379  0.00  0.00    +0.000 A 
ATOM     33  C   UNL     1       7.162   4.827  17.478  0.00  0.00    +0.000 A 
ATOM     34  F   UNL     1       8.336   4.209  17.300  0.00  0.00    +0.000 F 
ATOM     35  C   UNL     1       6.762   5.181  18.760  0.00  0.00    +0.000 A 
ATOM     36  C   UNL     1       5.522   5.791  18.951  0.00  0.00    +0.000 A 
ENDBRANCH  29  30
ENDBRANCH  10  29
TORSDOF 7
ENDMDL
MODEL 7
REMARK VINA RESULT:      -8.1      4.862      8.644
REMARK  Name = 
REMARK  7 active torsions:
REMARK  status: ('A' for Active; 'I' for Inactive)
REMARK    1  A    between atoms: N_1  and  C_2
REMARK    2  A    between atoms: C_5  and  C_6
REMARK    3  A    between atoms: C_6  and  C_7
REMARK    4  A    between atoms: C_7  and  N_8
REMARK    5  A    between atoms: C_11  and  N_12
REMARK    6  A    between atoms: N_21  and  C_22
REMARK    7  A    between atoms: C_22  and  C_23
REMARK                            x       y       z     vdW  Elec       q    Type
REMARK                         _______ _______ _______ _____ _____    ______ ____
ROOT
ATOM      1  N   UNL     1       1.898   7.875  20.489  0.00  0.00    +0.000 N 
ATOM      2  C   UNL     1       1.795   6.561  20.161  0.00  0.00    +0.000 A 
ATOM      3  N   UNL     1       1.063   5.637  20.738  0.00  0.00    +0.000 NA
ATOM      4  C   UNL     1       1.353   4.460  20.100  0.00  0.00    +0.000 A 
ATOM      5  C   UNL     1       0.871   3.166  20.344  0.00  0.00    +0.000 A 
ATOM      6  C   UNL     1       1.371   2.103  19.582  0.00  0.00    +0.000 A 
ATOM      7  C   UNL     1       2.327   2.325  18.589  0.00  0.00    +0.000 A 
ATOM      8  C   UNL     1       2.797   3.613  18.310  0.00  0.00    +0.000 A 
ATOM      9  C   UNL     1       2.282   4.661  19.086  0.00  0.00    +0.000 A 
ATOM     10  N   UNL     1       2.501   6.021  19.104  0.00  0.00    +0.000 N 
ATOM     11  H   UNL     1       2.812   8.295  20.338  0.00  0.00    +0.000 HD
ENDROOT
BRANCH   1  15
ATOM     12  N   UNL     1      -0.281  10.761  20.808  0.00  0.00    +0.000 NA
ATOM     13  C   UNL     1      -0.734   9.379  20.567  0.00  0.00    +0.000 C 
ATOM     14  C   UNL     1      -0.262   8.425  21.656  0.00  0.00    +0.000 C 
ATOM     15  C   UNL     1       1.261   8.382  21.721  0.00  0.00    +0.000 C 
ATOM     16  C   UNL     1       1.738   9.818  21.990  0.00  0.00    +0.000 C 
ATOM     17  C   UNL     1       1.187  10.813  20.958  0.00  0.00    +0.000 C 
BRANCH  12  18
ATOM     18  C   UNL     1      -0.709  11.655  19.701  0.00  0.00    +0.000 C 
BRANCH  18  19
ATOM     19  C   UNL     1      -2.239  11.733  19.529  0.00  0.00    +0.000 C 
BRANCH  19  23
ATOM     20  C   UNL     1      -3.662  10.554  15.610  0.00  0.00    +0.000 A 
ATOM     21  C   UNL     1      -2.412  10.137  16.072  0.00  0.00    +0.000 A 
ATOM     22  C   UNL     1      -1.932  10.563  17.313  0.00  0.00    +0.000 A 
ATOM     23  C   UNL     1      -2.719  11.373  18.143  0.00  0.00    +0.000 A 
ATOM     24  C   UNL     1      -3.985  11.762  17.697  0.00  0.00    +0.000 A 
ATOM     25  C   UNL     1      -4.457  11.334  16.452  0.00  0.00    +0.000 A 
BRANCH  20  26
ATOM     26  N   UNL     1      -4.200  10.001  14.441  0.00  0.00    +0.000 N 
ATOM     27  H   UNL     1      -4.817  10.629  13.937  0.00  0.00    +0.000 HD
ATOM     28  H   UNL     1      -4.607   9.082  14.573  0.00  0.00    +0.000 HD
ENDBRANCH  20  26
ENDBRANCH  19  23
ENDBRANCH  18  19
ENDBRANCH  12  18
ENDBRANCH   1  15
BRANCH  10  29
ATOM     29  C   UNL     1       3.297   6.751  18.129  0.00  0.00    +0.000 C 
BRANCH  29  30
ATOM     30  C   UNL     1       4.618   6.082  17.813  0.00  0.00    +0.000 A 
ATOM     31  C   UNL     1       5.547   5.740  18.812  0.00  0.00    +0.000 A 
ATOM     32  C   UNL     1       6.769   5.160  18.476  0.00  0.00    +0.000 A 
ATOM     33  C   UNL     1       7.055   4.889  17.144  0.00  0.00    +0.000 A 
ATOM     34  F   UNL     1       8.239   4.355  16.821  0.00  0.00    +0.000 F 
ATOM     35  C   UNL     1       6.134   5.170  16.145  0.00  0.00    +0.000 A 
ATOM     36  C   UNL     1       4.914   5.761  16.477  0.00  0.00    +0.000 A 
ENDBRANCH  29  30
ENDBRANCH  10  29
TORSDOF 7
ENDMDL
MODEL 8
REMARK VINA RESULT:      -8.0      4.862      8.860
REMARK  Name = 
REMARK  7 active torsions:
REMARK  status: ('A' for Active; 'I' for Inactive)
REMARK    1  A    between atoms: N_1  and  C_2
REMARK    2  A    between atoms: C_5  and  C_6
REMARK    3  A    between atoms: C_6  and  C_7
REMARK    4  A    between atoms: C_7  and  N_8
REMARK    5  A    between atoms: C_11  and  N_12
REMARK    6  A    between atoms: N_21  and  C_22
REMARK    7  A    between atoms: C_22  and  C_23
REMARK                            x       y       z     vdW  Elec       q    Type
REMARK                         _______ _______ _______ _____ _____    ______ ____
ROOT
ATOM      1  N   UNL     1       1.837   7.822  20.480  0.00  0.00    +0.000 N 
ATOM      2  C   UNL     1       1.764   6.510  20.136  0.00  0.00    +0.000 A 
ATOM      3  N   UNL     1       1.026   5.570  20.678  0.00  0.00    +0.000 NA
ATOM      4  C   UNL     1       1.354   4.404  20.038  0.00  0.00    +0.000 A 
ATOM      5  C   UNL     1       0.883   3.101  20.253  0.00  0.00    +0.000 A 
ATOM      6  C   UNL     1       1.423   2.053  19.496  0.00  0.00    +0.000 A 
ATOM      7  C   UNL     1       2.409   2.300  18.539  0.00  0.00    +0.000 A 
ATOM      8  C   UNL     1       2.870   3.597  18.290  0.00  0.00    +0.000 A 
ATOM      9  C   UNL     1       2.314   4.629  19.058  0.00  0.00    +0.000 A 
ATOM     10  N   UNL     1       2.512   5.992  19.098  0.00  0.00    +0.000 N 
ATOM     11  H   UNL     1       2.750   8.256  20.365  0.00  0.00    +0.000 HD
ENDROOT
BRANCH   1  15
ATOM     12  N   UNL     1      -0.201  10.808  20.810  0.00  0.00    +0.000 NA
ATOM     13  C   UNL     1      -0.711   9.465  20.474  0.00  0.00    +0.000 C 
ATOM     14  C   UNL     1      -0.359   8.438  21.542  0.00  0.00    +0.000 C 
ATOM     15  C   UNL     1       1.152   8.306  21.695  0.00  0.00    +0.000 C 
ATOM     16  C   UNL     1       1.687   9.700  22.063  0.00  0.00    +0.000 C 
ATOM     17  C   UNL     1       1.255  10.771  21.050  0.00  0.00    +0.000 C 
BRANCH  12  18
ATOM     18  C   UNL     1      -0.511  11.775  19.724  0.00  0.00    +0.000 C 
BRANCH  18  19
ATOM     19  C   UNL     1      -1.009  11.106  18.428  0.00  0.00    +0.000 C 
BRANCH  19  23
ATOM     20  C   UNL     1      -5.182  11.816  17.501  0.00  0.00    +0.000 A 
ATOM     21  C   UNL     1      -4.314  11.296  16.539  0.00  0.00    +0.000 A 
ATOM     22  C   UNL     1      -2.957  11.118  16.823  0.00  0.00    +0.000 A 
ATOM     23  C   UNL     1      -2.451  11.409  18.097  0.00  0.00    +0.000 A 
ATOM     24  C   UNL     1      -3.325  11.896  19.072  0.00  0.00    +0.000 A 
ATOM     25  C   UNL     1      -4.681  12.074  18.780  0.00  0.00    +0.000 A 
BRANCH  20  26
ATOM     26  N   UNL     1      -6.562  11.845  17.262  0.00  0.00    +0.000 N 
ATOM     27  H   UNL     1      -6.867  11.192  16.549  0.00  0.00    +0.000 HD
ATOM     28  H   UNL     1      -6.932  12.778  17.119  0.00  0.00    +0.000 HD
ENDBRANCH  20  26
ENDBRANCH  19  23
ENDBRANCH  18  19
ENDBRANCH  12  18
ENDBRANCH   1  15
BRANCH  10  29
ATOM     29  C   UNL     1       3.331   6.743  18.158  0.00  0.00    +0.000 C 
BRANCH  29  30
ATOM     30  C   UNL     1       4.647   6.068  17.837  0.00  0.00    +0.000 A 
ATOM     31  C   UNL     1       5.589   5.743  18.830  0.00  0.00    +0.000 A 
ATOM     32  C   UNL     1       6.806   5.156  18.489  0.00  0.00    +0.000 A 
ATOM     33  C   UNL     1       7.076   4.862  17.159  0.00  0.00    +0.000 A 
ATOM     34  F   UNL     1       8.255   4.322  16.829  0.00  0.00    +0.000 F 
ATOM     35  C   UNL     1       6.142   5.126  16.166  0.00  0.00    +0.000 A 
ATOM     36  C   UNL     1       4.927   5.723  16.503  0.00  0.00    +0.000 A 
ENDBRANCH  29  30
ENDBRANCH  10  29
TORSDOF 7
ENDMDL
MODEL 9
REMARK VINA RESULT:      -8.0      1.110      1.371
REMARK  Name = 
REMARK  7 active torsions:
REMARK  status: ('A' for Active; 'I' for Inactive)
REMARK    1  A    between atoms: N_1  and  C_2
REMARK    2  A    between atoms: C_5  and  C_6
REMARK    3  A    between atoms: C_6  and  C_7
REMARK    4  A    between atoms: C_7  and  N_8
REMARK    5  A    between atoms: C_11  and  N_12
REMARK    6  A    between atoms: N_21  and  C_22
REMARK    7  A    between atoms: C_22  and  C_23
REMARK                            x       y       z     vdW  Elec       q    Type
REMARK                         _______ _______ _______ _____ _____    ______ ____
ROOT
ATOM      1  N   UNL     1       5.188   5.350  17.726  0.00  0.00    +0.000 N 
ATOM      2  C   UNL     1       4.341   4.742  18.596  0.00  0.00    +0.000 A 
ATOM      3  N   UNL     1       4.634   3.893  19.553  0.00  0.00    +0.000 NA
ATOM      4  C   UNL     1       3.440   3.505  20.104  0.00  0.00    +0.000 A 
ATOM      5  C   UNL     1       3.186   2.590  21.136  0.00  0.00    +0.000 A 
ATOM      6  C   UNL     1       1.857   2.317  21.484  0.00  0.00    +0.000 A 
ATOM      7  C   UNL     1       0.803   2.948  20.823  0.00  0.00    +0.000 A 
ATOM      8  C   UNL     1       1.038   3.886  19.811  0.00  0.00    +0.000 A 
ATOM      9  C   UNL     1       2.375   4.143  19.480  0.00  0.00    +0.000 A 
ATOM     10  N   UNL     1       2.980   4.976  18.564  0.00  0.00    +0.000 N 
ATOM     11  H   UNL     1       4.814   5.520  16.796  0.00  0.00    +0.000 HD
ENDROOT
BRANCH   1  15
ATOM     12  N   UNL     1       8.083   7.537  17.844  0.00  0.00    +0.000 NA
ATOM     13  C   UNL     1       7.448   6.907  19.017  0.00  0.00    +0.000 C 
ATOM     14  C   UNL     1       7.413   5.390  18.900  0.00  0.00    +0.000 C 
ATOM     15  C   UNL     1       6.609   4.954  17.679  0.00  0.00    +0.000 C 
ATOM     16  C   UNL     1       7.279   5.593  16.453  0.00  0.00    +0.000 C 
ATOM     17  C   UNL     1       7.416   7.116  16.597  0.00  0.00    +0.000 C 
BRANCH  12  18
ATOM     18  C   UNL     1       8.051   9.018  17.961  0.00  0.00    +0.000 C 
BRANCH  18  19
ATOM     19  C   UNL     1       9.218   9.596  18.786  0.00  0.00    +0.000 C 
BRANCH  19  23
ATOM     20  C   UNL     1      10.314  13.620  17.610  0.00  0.00    +0.000 A 
ATOM     21  C   UNL     1      11.265  12.745  18.138  0.00  0.00    +0.000 A 
ATOM     22  C   UNL     1      10.899  11.467  18.567  0.00  0.00    +0.000 A 
ATOM     23  C   UNL     1       9.579  11.018  18.425  0.00  0.00    +0.000 A 
ATOM     24  C   UNL     1       8.633  11.879  17.864  0.00  0.00    +0.000 A 
ATOM     25  C   UNL     1       9.006  13.158  17.440  0.00  0.00    +0.000 A 
BRANCH  20  26
ATOM     26  N   UNL     1      10.714  14.835  17.041  0.00  0.00    +0.000 N 
ATOM     27  H   UNL     1      10.986  15.536  17.722  0.00  0.00    +0.000 HD
ATOM     28  H   UNL     1      10.066  15.197  16.350  0.00  0.00    +0.000 HD
ENDBRANCH  20  26
ENDBRANCH  19  23
ENDBRANCH  18  19
ENDBRANCH  12  18
ENDBRANCH   1  15
BRANCH  10  29
ATOM     29  C   UNL     1       2.288   5.966  17.753  0.00  0.00    +0.000 C 
BRANCH  29  30
ATOM     30  C   UNL     1       1.960   7.236  18.507  0.00  0.00    +0.000 A 
ATOM     31  C   UNL     1       1.694   8.453  17.853  0.00  0.00    +0.000 A 
ATOM     32  C   UNL     1       1.433   9.610  18.585  0.00  0.00    +0.000 A 
ATOM     33  C   UNL     1       1.405   9.551  19.972  0.00  0.00    +0.000 A 
ATOM     34  F   UNL     1       1.178  10.668  20.674  0.00  0.00    +0.000 F 
ATOM     35  C   UNL     1       1.613   8.352  20.640  0.00  0.00    +0.000 A 
ATOM     36  C   UNL     1       1.885   7.195  19.910  0.00  0.00    +0.000 A 
ENDBRANCH  29  30
ENDBRANCH  10  29
TORSDOF 7
ENDMDL
