MODEL 1
REMARK VINA RESULT:      -8.7      0.000      0.000
REMARK  Name = 
REMARK  3 active torsions:
REMARK  status: ('A' for Active; 'I' for Inactive)
REMARK    1  A    between atoms: S_2  and  C_4
REMARK    2  A    between atoms: S_2  and  C_10
REMARK    3  A    between atoms: N_17  and  C_18
REMARK                            x       y       z     vdW  Elec       q    Type
REMARK                         _______ _______ _______ _____ _____    ______ ____
ROOT
ATOM      1  C   UNL     1       4.806   5.870  16.598  0.00  0.00    +0.000 A 
ATOM      2  N   UNL     1       4.959   6.909  15.711  0.00  0.00    +0.000 NA
ATOM      3  N   UNL     1       4.262   7.946  16.170  0.00  0.00    +0.000 NA
ATOM      4  N   UNL     1       3.664   7.557  17.314  0.00  0.00    +0.000 N 
ATOM      5  C   UNL     1       4.025   6.264  17.667  0.00  0.00    +0.000 A 
ATOM      6  N   UNL     1       3.566   5.640  18.803  0.00  0.00    +0.000 NA
ATOM      7  C   UNL     1       2.667   6.238  19.561  0.00  0.00    +0.000 A 
ATOM      8  N   UNL     1       2.170   5.578  20.666  0.00  0.00    +0.000 N 
ATOM      9  C   UNL     1       2.230   7.586  19.186  0.00  0.00    +0.000 A 
ATOM     10  S   UNL     1       1.080   8.510  20.020  0.00  0.00    +0.000 S 
ATOM     11  C   UNL     1       1.260   9.820  18.912  0.00  0.00    +0.000 A 
ATOM     12  C   UNL     1       2.182   9.550  17.917  0.00  0.00    +0.000 A 
ATOM     13  C   UNL     1       2.726   8.258  18.093  0.00  0.00    +0.000 A 
ATOM     14  H   UNL     1       1.273   5.900  21.008  0.00  0.00    +0.000 HD
ENDROOT
BRANCH   8  15
ATOM     15  C   UNL     1       2.570   4.224  21.055  0.00  0.00    +0.000 C 
ATOM     16  C   UNL     1       1.341   3.299  21.016  0.00  0.00    +0.000 C 
ATOM     17  C   UNL     1       0.847   2.848  19.642  0.00  0.00    +0.000 C 
ATOM     18  C   UNL     1       1.603   1.658  19.057  0.00  0.00    +0.000 C 
ATOM     19  C   UNL     1       3.064   1.919  18.720  0.00  0.00    +0.000 C 
ATOM     20  C   UNL     1       3.919   2.305  19.922  0.00  0.00    +0.000 C 
ATOM     21  C   UNL     1       3.808   3.788  20.260  0.00  0.00    +0.000 C 
ENDBRANCH   8  15
BRANCH   1  23
ATOM     22  O   UNL     1       4.340   3.405  16.441  0.00  0.00    +0.000 OA
ATOM     23  S   UNL     1       5.476   4.307  16.378  0.00  0.00    +0.000 S 
ATOM     24  O   UNL     1       6.577   4.232  17.323  0.00  0.00    +0.000 OA
BRANCH  23  25
ATOM     25  C   UNL     1       6.162   4.198  14.746  0.00  0.00    +0.000 A 
ATOM     26  C   UNL     1       7.296   4.952  14.422  0.00  0.00    +0.000 A 
ATOM     27  C   UNL     1       7.755   4.979  13.105  0.00  0.00    +0.000 A 
ATOM     28  C   UNL     1       7.084   4.258  12.118  0.00  0.00    +0.000 A 
ATOM     29  C   UNL     1       5.954   3.506  12.443  0.00  0.00    +0.000 A 
ATOM     30  C   UNL     1       5.484   3.478  13.758  0.00  0.00    +0.000 A 
ENDBRANCH  23  25
ENDBRANCH   1  23
TORSDOF 3
ENDMDL
MODEL 2
REMARK VINA RESULT:      -8.6      8.684     11.321
REMARK  Name = 
REMARK  3 active torsions:
REMARK  status: ('A' for Active; 'I' for Inactive)
REMARK    1  A    between atoms: S_2  and  C_4
REMARK    2  A    between atoms: S_2  and  C_10
REMARK    3  A    between atoms: N_17  and  C_18
REMARK                            x       y       z     vdW  Elec       q    Type
REMARK                         _______ _______ _______ _____ _____    ______ ____
ROOT
ATOM      1  C   UNL     1      -6.275  11.993  20.037  0.00  0.00    +0.000 A 
ATOM      2  N   UNL     1      -7.296  12.320  20.897  0.00  0.00    +0.000 NA
ATOM      3  N   UNL     1      -6.764  12.937  21.949  0.00  0.00    +0.000 NA
ATOM      4  N   UNL     1      -5.429  12.980  21.762  0.00  0.00    +0.000 N 
ATOM      5  C   UNL     1      -5.068  12.447  20.532  0.00  0.00    +0.000 A 
ATOM      6  N   UNL     1      -3.766  12.390  20.092  0.00  0.00    +0.000 NA
ATOM      7  C   UNL     1      -2.787  12.763  20.893  0.00  0.00    +0.000 A 
ATOM      8  N   UNL     1      -1.483  12.645  20.462  0.00  0.00    +0.000 N 
ATOM      9  C   UNL     1      -3.136  13.283  22.218  0.00  0.00    +0.000 A 
ATOM     10  S   UNL     1      -2.026  13.799  23.391  0.00  0.00    +0.000 S 
ATOM     11  C   UNL     1      -3.298  14.209  24.482  0.00  0.00    +0.000 A 
ATOM     12  C   UNL     1      -4.551  13.949  23.957  0.00  0.00    +0.000 A 
ATOM     13  C   UNL     1      -4.433  13.415  22.654  0.00  0.00    +0.000 A 
ATOM     14  H   UNL     1      -0.777  12.608  21.188  0.00  0.00    +0.000 HD
ENDROOT
BRANCH   8  15
ATOM     15  C   UNL     1      -1.100  12.109  19.154  0.00  0.00    +0.000 C 
ATOM     16  C   UNL     1      -0.466  13.228  18.309  0.00  0.00    +0.000 C 
ATOM     17  C   UNL     1       0.966  13.639  18.652  0.00  0.00    +0.000 C 
ATOM     18  C   UNL     1       2.043  12.744  18.045  0.00  0.00    +0.000 C 
ATOM     19  C   UNL     1       2.066  11.313  18.563  0.00  0.00    +0.000 C 
ATOM     20  C   UNL     1       0.785  10.533  18.290  0.00  0.00    +0.000 C 
ATOM     21  C   UNL     1      -0.297  10.813  19.327  0.00  0.00    +0.000 C 
ENDBRANCH   8  15
BRANCH   1  23
ATOM     22  O   UNL     1      -7.248  12.017  17.720  0.00  0.00    +0.000 OA
ATOM     23  S   UNL     1      -6.487  11.124  18.574  0.00  0.00    +0.000 S 
ATOM     24  O   UNL     1      -6.992   9.822  18.979  0.00  0.00    +0.000 OA
BRANCH  23  25
ATOM     25  C   UNL     1      -4.903  10.873  17.817  0.00  0.00    +0.000 A 
ATOM     26  C   UNL     1      -4.485  11.728  16.790  0.00  0.00    +0.000 A 
ATOM     27  C   UNL     1      -3.306  11.451  16.097  0.00  0.00    +0.000 A 
ATOM     28  C   UNL     1      -2.551  10.325  16.427  0.00  0.00    +0.000 A 
ATOM     29  C   UNL     1      -2.969   9.475  17.451  0.00  0.00    +0.000 A 
ATOM     30  C   UNL     1      -4.151   9.741  18.147  0.00  0.00    +0.000 A 
ENDBRANCH  23  25
ENDBRANCH   1  23
TORSDOF 3
ENDMDL
MODEL 3
REMARK VINA RESULT:      -8.6      7.946     11.527
REMARK  Name = 
REMARK  3 active torsions:
REMARK  status: ('A' for Active; 'I' for Inactive)
REMARK    1  A    between atoms: S_2  and  C_4
REMARK    2  A    between atoms: S_2  and  C_10
REMARK    3  A    between atoms: N_17  and  C_18
REMARK                            x       y       z     vdW  Elec       q    Type
REMARK                         _______ _______ _______ _____ _____    ______ ____
ROOT
ATOM      1  C   UNL     1      -0.202  10.582  19.904  0.00  0.00    +0.000 A 
ATOM      2  N   UNL     1       0.531   9.850  19.000  0.00  0.00    +0.000 NA
ATOM      3  N   UNL     1      -0.133   9.837  17.847  0.00  0.00    +0.000 NA
ATOM      4  N   UNL     1      -1.274  10.532  18.029  0.00  0.00    +0.000 N 
ATOM      5  C   UNL     1      -1.342  11.081  19.303  0.00  0.00    +0.000 A 
ATOM      6  N   UNL     1      -2.396  11.851  19.734  0.00  0.00    +0.000 NA
ATOM      7  C   UNL     1      -3.449  12.013  18.956  0.00  0.00    +0.000 A 
ATOM      8  N   UNL     1      -4.525  12.739  19.423  0.00  0.00    +0.000 N 
ATOM      9  C   UNL     1      -3.428  11.403  17.624  0.00  0.00    +0.000 A 
ATOM     10  S   UNL     1      -4.683  11.487  16.488  0.00  0.00    +0.000 S 
ATOM     11  C   UNL     1      -3.776  10.565  15.347  0.00  0.00    +0.000 A 
ATOM     12  C   UNL     1      -2.534  10.196  15.832  0.00  0.00    +0.000 A 
ATOM     13  C   UNL     1      -2.356  10.687  17.145  0.00  0.00    +0.000 A 
ATOM     14  H   UNL     1      -5.412  12.559  18.968  0.00  0.00    +0.000 HD
ENDROOT
BRANCH   8  15
ATOM     15  C   UNL     1      -4.587  13.342  20.756  0.00  0.00    +0.000 C 
ATOM     16  C   UNL     1      -4.611  14.874  20.622  0.00  0.00    +0.000 C 
ATOM     17  C   UNL     1      -5.925  15.518  20.180  0.00  0.00    +0.000 C 
ATOM     18  C   UNL     1      -6.938  15.727  21.302  0.00  0.00    +0.000 C 
ATOM     19  C   UNL     1      -7.485  14.452  21.927  0.00  0.00    +0.000 C 
ATOM     20  C   UNL     1      -6.425  13.577  22.587  0.00  0.00    +0.000 C 
ATOM     21  C   UNL     1      -5.702  12.686  21.583  0.00  0.00    +0.000 C 
ENDBRANCH   8  15
BRANCH   1  23
ATOM     22  O   UNL     1       1.563  11.403  21.492  0.00  0.00    +0.000 OA
ATOM     23  S   UNL     1       0.240  10.810  21.544  0.00  0.00    +0.000 S 
ATOM     24  O   UNL     1      -0.011   9.530  22.184  0.00  0.00    +0.000 OA
BRANCH  23  25
ATOM     25  C   UNL     1      -0.855  11.998  22.276  0.00  0.00    +0.000 A 
ATOM     26  C   UNL     1      -0.540  13.361  22.210  0.00  0.00    +0.000 A 
ATOM     27  C   UNL     1      -1.321  14.286  22.904  0.00  0.00    +0.000 A 
ATOM     28  C   UNL     1      -2.409  13.851  23.661  0.00  0.00    +0.000 A 
ATOM     29  C   UNL     1      -2.722  12.492  23.725  0.00  0.00    +0.000 A 
ATOM     30  C   UNL     1      -1.942  11.559  23.038  0.00  0.00    +0.000 A 
ENDBRANCH  23  25
ENDBRANCH   1  23
TORSDOF 3
ENDMDL
MODEL 4
REMARK VINA RESULT:      -8.5      7.802     11.386
REMARK  Name = 
REMARK  3 active torsions:
REMARK  status: ('A' for Active; 'I' for Inactive)
REMARK    1  A    between atoms: S_2  and  C_4
REMARK    2  A    between atoms: S_2  and  C_10
REMARK    3  A    between atoms: N_17  and  C_18
REMARK                            x       y       z     vdW  Elec       q    Type
REMARK                         _______ _______ _______ _____ _____    ______ ____
ROOT
ATOM      1  C   UNL     1      -1.743  11.142  18.240  0.00  0.00    +0.000 A 
ATOM      2  N   UNL     1      -2.174  10.507  17.100  0.00  0.00    +0.000 NA
ATOM      3  N   UNL     1      -3.474  10.756  16.957  0.00  0.00    +0.000 NA
ATOM      4  N   UNL     1      -3.857  11.518  18.001  0.00  0.00    +0.000 N 
ATOM      5  C   UNL     1      -2.783  11.846  18.818  0.00  0.00    +0.000 A 
ATOM      6  N   UNL     1      -2.904  12.631  19.940  0.00  0.00    +0.000 NA
ATOM      7  C   UNL     1      -4.099  13.025  20.336  0.00  0.00    +0.000 A 
ATOM      8  N   UNL     1      -4.214  13.763  21.496  0.00  0.00    +0.000 N 
ATOM      9  C   UNL     1      -5.258  12.653  19.521  0.00  0.00    +0.000 A 
ATOM     10  S   UNL     1      -6.869  13.051  19.869  0.00  0.00    +0.000 S 
ATOM     11  C   UNL     1      -7.423  12.254  18.443  0.00  0.00    +0.000 A 
ATOM     12  C   UNL     1      -6.391  11.687  17.718  0.00  0.00    +0.000 A 
ATOM     13  C   UNL     1      -5.154  11.927  18.358  0.00  0.00    +0.000 A 
ATOM     14  H   UNL     1      -5.123  13.751  21.941  0.00  0.00    +0.000 HD
ENDROOT
BRANCH   8  15
ATOM     15  C   UNL     1      -3.078  14.132  22.345  0.00  0.00    +0.000 C 
ATOM     16  C   UNL     1      -2.640  15.569  22.012  0.00  0.00    +0.000 C 
ATOM     17  C   UNL     1      -3.512  16.707  22.541  0.00  0.00    +0.000 C 
ATOM     18  C   UNL     1      -3.237  17.095  23.991  0.00  0.00    +0.000 C 
ATOM     19  C   UNL     1      -3.573  16.027  25.022  0.00  0.00    +0.000 C 
ATOM     20  C   UNL     1      -2.780  14.735  24.861  0.00  0.00    +0.000 C 
ATOM     21  C   UNL     1      -3.387  13.809  23.813  0.00  0.00    +0.000 C 
ENDBRANCH   8  15
BRANCH   1  23
ATOM     22  O   UNL     1       0.353  12.405  18.811  0.00  0.00    +0.000 OA
ATOM     23  S   UNL     1      -0.146  11.043  18.854  0.00  0.00    +0.000 S 
ATOM     24  O   UNL     1       0.480   9.965  18.107  0.00  0.00    +0.000 OA
BRANCH  23  25
ATOM     25  C   UNL     1      -0.212  10.547  20.556  0.00  0.00    +0.000 A 
ATOM     26  C   UNL     1      -0.129   9.188  20.882  0.00  0.00    +0.000 A 
ATOM     27  C   UNL     1      -0.322   8.781  22.203  0.00  0.00    +0.000 A 
ATOM     28  C   UNL     1      -0.598   9.727  23.190  0.00  0.00    +0.000 A 
ATOM     29  C   UNL     1      -0.679  11.081  22.863  0.00  0.00    +0.000 A 
ATOM     30  C   UNL     1      -0.493  11.497  21.542  0.00  0.00    +0.000 A 
ENDBRANCH  23  25
ENDBRANCH   1  23
TORSDOF 3
ENDMDL
MODEL 5
REMARK VINA RESULT:      -8.5      6.709     10.141
REMARK  Name = 
REMARK  3 active torsions:
REMARK  status: ('A' for Active; 'I' for Inactive)
REMARK    1  A    between atoms: S_2  and  C_4
REMARK    2  A    between atoms: S_2  and  C_10
REMARK    3  A    between atoms: N_17  and  C_18
REMARK                            x       y       z     vdW  Elec       q    Type
REMARK                         _______ _______ _______ _____ _____    ______ ____
ROOT
ATOM      1  C   UNL     1      -0.908  10.754  18.701  0.00  0.00    +0.000 A 
ATOM      2  N   UNL     1      -1.190  10.039  17.562  0.00  0.00    +0.000 NA
ATOM      3  N   UNL     1      -2.456  10.282  17.228  0.00  0.00    +0.000 NA
ATOM      4  N   UNL     1      -2.965  11.120  18.153  0.00  0.00    +0.000 N 
ATOM      5  C   UNL     1      -2.007  11.502  19.082  0.00  0.00    +0.000 A 
ATOM      6  N   UNL     1      -2.268  12.367  20.118  0.00  0.00    +0.000 NA
ATOM      7  C   UNL     1      -3.499  12.794  20.320  0.00  0.00    +0.000 A 
ATOM      8  N   UNL     1      -3.760  13.613  21.398  0.00  0.00    +0.000 N 
ATOM      9  C   UNL     1      -4.543  12.366  19.385  0.00  0.00    +0.000 A 
ATOM     10  S   UNL     1      -6.181  12.795  19.482  0.00  0.00    +0.000 S 
ATOM     11  C   UNL     1      -6.549  11.897  18.055  0.00  0.00    +0.000 A 
ATOM     12  C   UNL     1      -5.436  11.276  17.518  0.00  0.00    +0.000 A 
ATOM     13  C   UNL     1      -4.293  11.558  18.301  0.00  0.00    +0.000 A 
ATOM     14  H   UNL     1      -4.721  13.637  21.715  0.00  0.00    +0.000 HD
ENDROOT
BRANCH   8  15
ATOM     15  C   UNL     1      -2.744  14.040  22.363  0.00  0.00    +0.000 C 
ATOM     16  C   UNL     1      -2.316  15.484  22.049  0.00  0.00    +0.000 C 
ATOM     17  C   UNL     1      -3.280  16.602  22.444  0.00  0.00    +0.000 C 
ATOM     18  C   UNL     1      -3.190  17.029  23.906  0.00  0.00    +0.000 C 
ATOM     19  C   UNL     1      -3.610  15.972  24.917  0.00  0.00    +0.000 C 
ATOM     20  C   UNL     1      -2.762  14.705  24.882  0.00  0.00    +0.000 C 
ATOM     21  C   UNL     1      -3.212  13.737  23.793  0.00  0.00    +0.000 C 
ENDBRANCH   8  15
BRANCH   1  23
ATOM     22  O   UNL     1       0.233  10.638  20.937  0.00  0.00    +0.000 OA
ATOM     23  S   UNL     1       0.590  10.695  19.532  0.00  0.00    +0.000 S 
ATOM     24  O   UNL     1       1.374  11.785  18.975  0.00  0.00    +0.000 OA
BRANCH  23  25
ATOM     25  C   UNL     1       1.416   9.179  19.124  0.00  0.00    +0.000 A 
ATOM     26  C   UNL     1       1.502   8.161  20.080  0.00  0.00    +0.000 A 
ATOM     27  C   UNL     1       2.270   7.026  19.815  0.00  0.00    +0.000 A 
ATOM     28  C   UNL     1       2.950   6.912  18.603  0.00  0.00    +0.000 A 
ATOM     29  C   UNL     1       2.862   7.929  17.650  0.00  0.00    +0.000 A 
ATOM     30  C   UNL     1       2.101   9.071  17.909  0.00  0.00    +0.000 A 
ENDBRANCH  23  25
ENDBRANCH   1  23
TORSDOF 3
ENDMDL
MODEL 6
REMARK VINA RESULT:      -8.4      2.615      5.409
REMARK  Name = 
REMARK  3 active torsions:
REMARK  status: ('A' for Active; 'I' for Inactive)
REMARK    1  A    between atoms: S_2  and  C_4
REMARK    2  A    between atoms: S_2  and  C_10
REMARK    3  A    between atoms: N_17  and  C_18
REMARK                            x       y       z     vdW  Elec       q    Type
REMARK                         _______ _______ _______ _____ _____    ______ ____
ROOT
ATOM      1  C   UNL     1       4.932   4.834  16.475  0.00  0.00    +0.000 A 
ATOM      2  N   UNL     1       5.156   3.516  16.155  0.00  0.00    +0.000 NA
ATOM      3  N   UNL     1       4.301   2.773  16.853  0.00  0.00    +0.000 NA
ATOM      4  N   UNL     1       3.566   3.609  17.614  0.00  0.00    +0.000 N 
ATOM      5  C   UNL     1       3.883   4.938  17.369  0.00  0.00    +0.000 A 
ATOM      6  N   UNL     1       3.262   5.988  18.003  0.00  0.00    +0.000 NA
ATOM      7  C   UNL     1       2.389   5.749  18.962  0.00  0.00    +0.000 A 
ATOM      8  N   UNL     1       1.816   6.810  19.632  0.00  0.00    +0.000 N 
ATOM      9  C   UNL     1       2.070   4.354  19.278  0.00  0.00    +0.000 A 
ATOM     10  S   UNL     1       0.989   3.844  20.480  0.00  0.00    +0.000 S 
ATOM     11  C   UNL     1       1.265   2.186  20.091  0.00  0.00    +0.000 A 
ATOM     12  C   UNL     1       2.174   2.028  19.061  0.00  0.00    +0.000 A 
ATOM     13  C   UNL     1       2.627   3.288  18.610  0.00  0.00    +0.000 A 
ATOM     14  H   UNL     1       1.439   6.605  20.548  0.00  0.00    +0.000 HD
ENDROOT
BRANCH   8  15
ATOM     15  C   UNL     1       2.129   8.214  19.355  0.00  0.00    +0.000 C 
ATOM     16  C   UNL     1       1.774   8.538  17.894  0.00  0.00    +0.000 C 
ATOM     17  C   UNL     1       0.293   8.716  17.557  0.00  0.00    +0.000 C 
ATOM     18  C   UNL     1      -0.265  10.102  17.867  0.00  0.00    +0.000 C 
ATOM     19  C   UNL     1      -0.302  10.471  19.343  0.00  0.00    +0.000 C 
ATOM     20  C   UNL     1       1.068  10.501  20.011  0.00  0.00    +0.000 C 
ATOM     21  C   UNL     1       1.531   9.115  20.445  0.00  0.00    +0.000 C 
ENDBRANCH   8  15
BRANCH   1  23
ATOM     22  O   UNL     1       4.865   7.147  15.495  0.00  0.00    +0.000 OA
ATOM     23  S   UNL     1       5.850   6.146  15.861  0.00  0.00    +0.000 S 
ATOM     24  O   UNL     1       6.750   5.553  14.887  0.00  0.00    +0.000 OA
BRANCH  23  25
ATOM     25  C   UNL     1       6.843   6.817  17.169  0.00  0.00    +0.000 A 
ATOM     26  C   UNL     1       7.261   8.151  17.102  0.00  0.00    +0.000 A 
ATOM     27  C   UNL     1       8.156   8.644  18.052  0.00  0.00    +0.000 A 
ATOM     28  C   UNL     1       8.631   7.806  19.062  0.00  0.00    +0.000 A 
ATOM     29  C   UNL     1       8.212   6.477  19.127  0.00  0.00    +0.000 A 
ATOM     30  C   UNL     1       7.321   5.974  18.176  0.00  0.00    +0.000 A 
ENDBRANCH  23  25
ENDBRANCH   1  23
TORSDOF 3
ENDMDL
MODEL 7
REMARK VINA RESULT:      -8.4      6.974     10.404
REMARK  Name = 
REMARK  3 active torsions:
REMARK  status: ('A' for Active; 'I' for Inactive)
REMARK    1  A    between atoms: S_2  and  C_4
REMARK    2  A    between atoms: S_2  and  C_10
REMARK    3  A    between atoms: N_17  and  C_18
REMARK                            x       y       z     vdW  Elec       q    Type
REMARK                         _______ _______ _______ _____ _____    ______ ____
ROOT
ATOM      1  C   UNL     1      -1.199  11.078  18.731  0.00  0.00    +0.000 A 
ATOM      2  N   UNL     1      -1.529  10.147  17.776  0.00  0.00    +0.000 NA
ATOM      3  N   UNL     1      -2.840  10.225  17.562  0.00  0.00    +0.000 NA
ATOM      4  N   UNL     1      -3.329  11.175  18.385  0.00  0.00    +0.000 N 
ATOM      5  C   UNL     1      -2.319  11.794  19.109  0.00  0.00    +0.000 A 
ATOM      6  N   UNL     1      -2.552  12.810  20.006  0.00  0.00    +0.000 NA
ATOM      7  C   UNL     1      -3.791  13.169  20.280  0.00  0.00    +0.000 A 
ATOM      8  N   UNL     1      -4.015  14.149  21.225  0.00  0.00    +0.000 N 
ATOM      9  C   UNL     1      -4.882  12.498  19.568  0.00  0.00    +0.000 A 
ATOM     10  S   UNL     1      -6.534  12.807  19.790  0.00  0.00    +0.000 S 
ATOM     11  C   UNL     1      -6.962  11.638  18.595  0.00  0.00    +0.000 A 
ATOM     12  C   UNL     1      -5.856  11.019  18.041  0.00  0.00    +0.000 A 
ATOM     13  C   UNL     1      -4.670  11.527  18.617  0.00  0.00    +0.000 A 
ATOM     14  H   UNL     1      -4.935  14.155  21.649  0.00  0.00    +0.000 HD
ENDROOT
BRANCH   8  15
ATOM     15  C   UNL     1      -2.949  14.823  21.970  0.00  0.00    +0.000 C 
ATOM     16  C   UNL     1      -3.419  16.232  22.371  0.00  0.00    +0.000 C 
ATOM     17  C   UNL     1      -4.409  16.336  23.531  0.00  0.00    +0.000 C 
ATOM     18  C   UNL     1      -3.770  16.294  24.916  0.00  0.00    +0.000 C 
ATOM     19  C   UNL     1      -3.100  14.977  25.280  0.00  0.00    +0.000 C 
ATOM     20  C   UNL     1      -1.945  14.591  24.362  0.00  0.00    +0.000 C 
ATOM     21  C   UNL     1      -2.423  13.909  23.086  0.00  0.00    +0.000 C 
ENDBRANCH   8  15
BRANCH   1  23
ATOM     22  O   UNL     1       0.178  11.489  20.793  0.00  0.00    +0.000 OA
ATOM     23  S   UNL     1       0.378  11.289  19.369  0.00  0.00    +0.000 S 
ATOM     24  O   UNL     1       0.995  12.298  18.525  0.00  0.00    +0.000 OA
BRANCH  23  25
ATOM     25  C   UNL     1       1.292   9.783  19.159  0.00  0.00    +0.000 A 
ATOM     26  C   UNL     1       1.881   9.501  17.921  0.00  0.00    +0.000 A 
ATOM     27  C   UNL     1       2.479   8.258  17.707  0.00  0.00    +0.000 A 
ATOM     28  C   UNL     1       2.484   7.303  18.724  0.00  0.00    +0.000 A 
ATOM     29  C   UNL     1       1.896   7.587  19.958  0.00  0.00    +0.000 A 
ATOM     30  C   UNL     1       1.291   8.826  20.179  0.00  0.00    +0.000 A 
ENDBRANCH  23  25
ENDBRANCH   1  23
TORSDOF 3
ENDMDL
MODEL 8
REMARK VINA RESULT:      -8.2      7.993     11.453
REMARK  Name = 
REMARK  3 active torsions:
REMARK  status: ('A' for Active; 'I' for Inactive)
REMARK    1  A    between atoms: S_2  and  C_4
REMARK    2  A    between atoms: S_2  and  C_10
REMARK    3  A    between atoms: N_17  and  C_18
REMARK                            x       y       z     vdW  Elec       q    Type
REMARK                         _______ _______ _______ _____ _____    ______ ____
ROOT
ATOM      1  C   UNL     1      -0.332  10.585  20.083  0.00  0.00    +0.000 A 
ATOM      2  N   UNL     1       0.425   9.811  19.236  0.00  0.00    +0.000 NA
ATOM      3  N   UNL     1      -0.181   9.786  18.051  0.00  0.00    +0.000 NA
ATOM      4  N   UNL     1      -1.309  10.516  18.158  0.00  0.00    +0.000 N 
ATOM      5  C   UNL     1      -1.426  11.099  19.413  0.00  0.00    +0.000 A 
ATOM      6  N   UNL     1      -2.478  11.908  19.771  0.00  0.00    +0.000 NA
ATOM      7  C   UNL     1      -3.486  12.078  18.937  0.00  0.00    +0.000 A 
ATOM      8  N   UNL     1      -4.563  12.844  19.330  0.00  0.00    +0.000 N 
ATOM      9  C   UNL     1      -3.415  11.434  17.622  0.00  0.00    +0.000 A 
ATOM     10  S   UNL     1      -4.608  11.522  16.422  0.00  0.00    +0.000 S 
ATOM     11  C   UNL     1      -3.671  10.548  15.351  0.00  0.00    +0.000 A 
ATOM     12  C   UNL     1      -2.466  10.158  15.907  0.00  0.00    +0.000 A 
ATOM     13  C   UNL     1      -2.341  10.678  17.215  0.00  0.00    +0.000 A 
ATOM     14  H   UNL     1      -5.431  12.676  18.835  0.00  0.00    +0.000 HD
ENDROOT
BRANCH   8  15
ATOM     15  C   UNL     1      -4.675  13.482  20.644  0.00  0.00    +0.000 C 
ATOM     16  C   UNL     1      -5.309  14.875  20.482  0.00  0.00    +0.000 C 
ATOM     17  C   UNL     1      -6.816  14.934  20.233  0.00  0.00    +0.000 C 
ATOM     18  C   UNL     1      -7.670  14.831  21.493  0.00  0.00    +0.000 C 
ATOM     19  C   UNL     1      -7.593  13.497  22.222  0.00  0.00    +0.000 C 
ATOM     20  C   UNL     1      -6.198  13.147  22.730  0.00  0.00    +0.000 C 
ATOM     21  C   UNL     1      -5.328  12.520  21.646  0.00  0.00    +0.000 C 
ENDBRANCH   8  15
BRANCH   1  23
ATOM     22  O   UNL     1       1.472  10.680  21.830  0.00  0.00    +0.000 OA
ATOM     23  S   UNL     1       0.033  10.843  21.738  0.00  0.00    +0.000 S 
ATOM     24  O   UNL     1      -0.892   9.990  22.465  0.00  0.00    +0.000 OA
BRANCH  23  25
ATOM     25  C   UNL     1      -0.347  12.524  22.157  0.00  0.00    +0.000 A 
ATOM     26  C   UNL     1      -1.413  12.795  23.023  0.00  0.00    +0.000 A 
ATOM     27  C   UNL     1      -1.805  14.116  23.244  0.00  0.00    +0.000 A 
ATOM     28  C   UNL     1      -1.137  15.159  22.602  0.00  0.00    +0.000 A 
ATOM     29  C   UNL     1      -0.074  14.886  21.739  0.00  0.00    +0.000 A 
ATOM     30  C   UNL     1       0.321  13.566  21.507  0.00  0.00    +0.000 A 
ENDBRANCH  23  25
ENDBRANCH   1  23
TORSDOF 3
ENDMDL
MODEL 9
REMARK VINA RESULT:      -8.2     10.416     13.118
REMARK  Name = 
REMARK  3 active torsions:
REMARK  status: ('A' for Active; 'I' for Inactive)
REMARK    1  A    between atoms: S_2  and  C_4
REMARK    2  A    between atoms: S_2  and  C_10
REMARK    3  A    between atoms: N_17  and  C_18
REMARK                            x       y       z     vdW  Elec       q    Type
REMARK                         _______ _______ _______ _____ _____    ______ ____
ROOT
ATOM      1  C   UNL     1      -4.928  14.564  23.532  0.00  0.00    +0.000 A 
ATOM      2  N   UNL     1      -5.429  15.681  24.157  0.00  0.00    +0.000 NA
ATOM      3  N   UNL     1      -6.134  16.370  23.262  0.00  0.00    +0.000 NA
ATOM      4  N   UNL     1      -6.059  15.708  22.090  0.00  0.00    +0.000 N 
ATOM      5  C   UNL     1      -5.354  14.519  22.218  0.00  0.00    +0.000 A 
ATOM      6  N   UNL     1      -5.151  13.650  21.172  0.00  0.00    +0.000 NA
ATOM      7  C   UNL     1      -5.552  13.980  19.960  0.00  0.00    +0.000 A 
ATOM      8  N   UNL     1      -5.290  13.127  18.908  0.00  0.00    +0.000 N 
ATOM      9  C   UNL     1      -6.255  15.254  19.785  0.00  0.00    +0.000 A 
ATOM     10  S   UNL     1      -6.833  15.859  18.311  0.00  0.00    +0.000 S 
ATOM     11  C   UNL     1      -7.463  17.268  19.082  0.00  0.00    +0.000 A 
ATOM     12  C   UNL     1      -7.229  17.275  20.445  0.00  0.00    +0.000 A 
ATOM     13  C   UNL     1      -6.530  16.108  20.827  0.00  0.00    +0.000 A 
ATOM     14  H   UNL     1      -5.294  13.545  17.986  0.00  0.00    +0.000 HD
ENDROOT
BRANCH   8  15
ATOM     15  C   UNL     1      -4.571  11.858  19.046  0.00  0.00    +0.000 C 
ATOM     16  C   UNL     1      -4.986  10.910  17.908  0.00  0.00    +0.000 C 
ATOM     17  C   UNL     1      -4.406  11.184  16.521  0.00  0.00    +0.000 C 
ATOM     18  C   UNL     1      -3.002  10.628  16.301  0.00  0.00    +0.000 C 
ATOM     19  C   UNL     1      -1.912  11.261  17.153  0.00  0.00    +0.000 C 
ATOM     20  C   UNL     1      -2.115  11.083  18.654  0.00  0.00    +0.000 C 
ATOM     21  C   UNL     1      -3.070  12.119  19.237  0.00  0.00    +0.000 C 
ENDBRANCH   8  15
BRANCH   1  23
ATOM     22  O   UNL     1      -4.695  12.204  24.362  0.00  0.00    +0.000 OA
ATOM     23  S   UNL     1      -3.901  13.416  24.285  0.00  0.00    +0.000 S 
ATOM     24  O   UNL     1      -3.393  14.085  25.471  0.00  0.00    +0.000 OA
BRANCH  23  25
ATOM     25  C   UNL     1      -2.520  13.091  23.221  0.00  0.00    +0.000 A 
ATOM     26  C   UNL     1      -2.095  11.771  23.027  0.00  0.00    +0.000 A 
ATOM     27  C   UNL     1      -0.926  11.521  22.306  0.00  0.00    +0.000 A 
ATOM     28  C   UNL     1      -0.187  12.583  21.785  0.00  0.00    +0.000 A 
ATOM     29  C   UNL     1      -0.614  13.898  21.980  0.00  0.00    +0.000 A 
ATOM     30  C   UNL     1      -1.779  14.158  22.705  0.00  0.00    +0.000 A 
ENDBRANCH  23  25
ENDBRANCH   1  23
TORSDOF 3
ENDMDL
