MODEL 1
REMARK VINA RESULT:      -6.5      0.000      0.000
REMARK  Name = 
REMARK  3 active torsions:
REMARK  status: ('A' for Active; 'I' for Inactive)
REMARK    1  A    between atoms: C_5  and  C_6
REMARK    2  A    between atoms: C_6  and  S_7
REMARK    3  A    between atoms: S_7  and  C_8
REMARK                            x       y       z     vdW  Elec       q    Type
REMARK                         _______ _______ _______ _____ _____    ______ ____
ROOT
ATOM      1  C   UNL     1       5.387   4.948  19.065  0.00  0.00    +0.000 C 
ENDROOT
BRANCH   1   6
ATOM      2 CL   UNL     1       6.520   4.081  13.735  0.00  0.00    +0.000 Cl
ATOM      3  C   UNL     1       6.569   4.359  15.427  0.00  0.00    +0.000 A 
ATOM      4  N   UNL     1       7.692   4.485  16.089  0.00  0.00    +0.000 NA
ATOM      5  C   UNL     1       7.394   4.710  17.421  0.00  0.00    +0.000 A 
ATOM      6  C   UNL     1       6.047   4.736  17.742  0.00  0.00    +0.000 A 
ATOM      7  S   UNL     1       5.123   4.467  16.312  0.00  0.00    +0.000 S 
ENDBRANCH   1   6
BRANCH   1   8
ATOM      8  S   UNL     1       3.837   5.888  18.844  0.00  0.00    +0.000 S 
BRANCH   8   9
ATOM      9  C   UNL     1       2.578   4.708  19.310  0.00  0.00    +0.000 A 
ATOM     10  C   UNL     1       2.008   3.941  18.284  0.00  0.00    +0.000 A 
ATOM     11  C   UNL     1       1.062   2.954  18.566  0.00  0.00    +0.000 A 
ATOM     12  C   UNL     1       0.675   2.718  19.882  0.00  0.00    +0.000 A 
ATOM     13  C   UNL     1       1.238   3.469  20.913  0.00  0.00    +0.000 A 
ATOM     14  C   UNL     1       2.188   4.456  20.629  0.00  0.00    +0.000 A 
ENDBRANCH   8   9
ENDBRANCH   1   8
TORSDOF 3
ENDMDL
MODEL 2
REMARK VINA RESULT:      -6.3      0.558      1.400
REMARK  Name = 
REMARK  3 active torsions:
REMARK  status: ('A' for Active; 'I' for Inactive)
REMARK    1  A    between atoms: C_5  and  C_6
REMARK    2  A    between atoms: C_6  and  S_7
REMARK    3  A    between atoms: S_7  and  C_8
REMARK                            x       y       z     vdW  Elec       q    Type
REMARK                         _______ _______ _______ _____ _____    ______ ____
ROOT
ATOM      1  C   UNL     1       5.600   4.839  18.741  0.00  0.00    +0.000 C 
ENDROOT
BRANCH   1   6
ATOM      2 CL   UNL     1       6.493   4.033  13.356  0.00  0.00    +0.000 Cl
ATOM      3  C   UNL     1       6.523   4.542  14.994  0.00  0.00    +0.000 A 
ATOM      4  N   UNL     1       7.372   5.434  15.440  0.00  0.00    +0.000 NA
ATOM      5  C   UNL     1       7.132   5.632  16.788  0.00  0.00    +0.000 A 
ATOM      6  C   UNL     1       6.112   4.874  17.338  0.00  0.00    +0.000 A 
ATOM      7  S   UNL     1       5.431   3.874  16.110  0.00  0.00    +0.000 S 
ENDBRANCH   1   6
BRANCH   1   8
ATOM      8  S   UNL     1       4.094   5.860  18.881  0.00  0.00    +0.000 S 
BRANCH   8   9
ATOM      9  C   UNL     1       2.810   4.651  19.171  0.00  0.00    +0.000 A 
ATOM     10  C   UNL     1       2.293   4.565  20.471  0.00  0.00    +0.000 A 
ATOM     11  C   UNL     1       1.247   3.692  20.772  0.00  0.00    +0.000 A 
ATOM     12  C   UNL     1       0.699   2.893  19.773  0.00  0.00    +0.000 A 
ATOM     13  C   UNL     1       1.199   2.972  18.474  0.00  0.00    +0.000 A 
ATOM     14  C   UNL     1       2.246   3.850  18.173  0.00  0.00    +0.000 A 
ENDBRANCH   8   9
ENDBRANCH   1   8
TORSDOF 3
ENDMDL
MODEL 3
REMARK VINA RESULT:      -6.2      1.413      1.477
REMARK  Name = 
REMARK  3 active torsions:
REMARK  status: ('A' for Active; 'I' for Inactive)
REMARK    1  A    between atoms: C_5  and  C_6
REMARK    2  A    between atoms: C_6  and  S_7
REMARK    3  A    between atoms: S_7  and  C_8
REMARK                            x       y       z     vdW  Elec       q    Type
REMARK                         _______ _______ _______ _____ _____    ______ ____
ROOT
ATOM      1  C   UNL     1       4.450   3.968  16.723  0.00  0.00    +0.000 C 
ENDROOT
BRANCH   1   6
ATOM      2 CL   UNL     1       7.933   5.206  12.627  0.00  0.00    +0.000 Cl
ATOM      3  C   UNL     1       7.125   5.010  14.127  0.00  0.00    +0.000 A 
ATOM      4  N   UNL     1       7.605   5.474  15.254  0.00  0.00    +0.000 NA
ATOM      5  C   UNL     1       6.719   5.165  16.270  0.00  0.00    +0.000 A 
ATOM      6  C   UNL     1       5.590   4.458  15.892  0.00  0.00    +0.000 A 
ATOM      7  S   UNL     1       5.648   4.174  14.193  0.00  0.00    +0.000 S 
ENDBRANCH   1   6
BRANCH   1   8
ATOM      8  S   UNL     1       3.755   5.344  17.701  0.00  0.00    +0.000 S 
BRANCH   8   9
ATOM      9  C   UNL     1       2.654   4.516  18.841  0.00  0.00    +0.000 A 
ATOM     10  C   UNL     1       1.811   3.529  18.312  0.00  0.00    +0.000 A 
ATOM     11  C   UNL     1       0.963   2.791  19.140  0.00  0.00    +0.000 A 
ATOM     12  C   UNL     1       0.952   3.028  20.512  0.00  0.00    +0.000 A 
ATOM     13  C   UNL     1       1.789   4.003  21.051  0.00  0.00    +0.000 A 
ATOM     14  C   UNL     1       2.640   4.740  20.220  0.00  0.00    +0.000 A 
ENDBRANCH   8   9
ENDBRANCH   1   8
TORSDOF 3
ENDMDL
MODEL 4
REMARK VINA RESULT:      -6.1      1.401      1.910
REMARK  Name = 
REMARK  3 active torsions:
REMARK  status: ('A' for Active; 'I' for Inactive)
REMARK    1  A    between atoms: C_5  and  C_6
REMARK    2  A    between atoms: C_6  and  S_7
REMARK    3  A    between atoms: S_7  and  C_8
REMARK                            x       y       z     vdW  Elec       q    Type
REMARK                         _______ _______ _______ _____ _____    ______ ____
ROOT
ATOM      1  C   UNL     1       4.749   3.819  16.874  0.00  0.00    +0.000 C 
ENDROOT
BRANCH   1   6
ATOM      2 CL   UNL     1       7.870   5.234  12.549  0.00  0.00    +0.000 Cl
ATOM      3  C   UNL     1       7.159   5.027  14.096  0.00  0.00    +0.000 A 
ATOM      4  N   UNL     1       7.627   5.609  15.172  0.00  0.00    +0.000 NA
ATOM      5  C   UNL     1       6.832   5.253  16.246  0.00  0.00    +0.000 A 
ATOM      6  C   UNL     1       5.782   4.395  15.963  0.00  0.00    +0.000 A 
ATOM      7  S   UNL     1       5.800   4.025  14.279  0.00  0.00    +0.000 S 
ENDBRANCH   1   6
BRANCH   1   8
ATOM      8  S   UNL     1       4.075   5.126  17.956  0.00  0.00    +0.000 S 
BRANCH   8   9
ATOM      9  C   UNL     1       2.837   4.261  18.913  0.00  0.00    +0.000 A 
ATOM     10  C   UNL     1       2.748   4.576  20.276  0.00  0.00    +0.000 A 
ATOM     11  C   UNL     1       1.771   3.994  21.086  0.00  0.00    +0.000 A 
ATOM     12  C   UNL     1       0.865   3.089  20.539  0.00  0.00    +0.000 A 
ATOM     13  C   UNL     1       0.939   2.771  19.184  0.00  0.00    +0.000 A 
ATOM     14  C   UNL     1       1.918   3.357  18.374  0.00  0.00    +0.000 A 
ENDBRANCH   8   9
ENDBRANCH   1   8
TORSDOF 3
ENDMDL
MODEL 5
REMARK VINA RESULT:      -6.0      1.241      1.327
REMARK  Name = 
REMARK  3 active torsions:
REMARK  status: ('A' for Active; 'I' for Inactive)
REMARK    1  A    between atoms: C_5  and  C_6
REMARK    2  A    between atoms: C_6  and  S_7
REMARK    3  A    between atoms: S_7  and  C_8
REMARK                            x       y       z     vdW  Elec       q    Type
REMARK                         _______ _______ _______ _____ _____    ______ ____
ROOT
ATOM      1  C   UNL     1       4.689   5.728  18.566  0.00  0.00    +0.000 C 
ENDROOT
BRANCH   1   6
ATOM      2 CL   UNL     1       5.960   3.719  13.586  0.00  0.00    +0.000 Cl
ATOM      3  C   UNL     1       5.607   4.699  14.949  0.00  0.00    +0.000 A 
ATOM      4  N   UNL     1       5.594   6.008  14.893  0.00  0.00    +0.000 NA
ATOM      5  C   UNL     1       5.266   6.498  16.144  0.00  0.00    +0.000 A 
ATOM      6  C   UNL     1       5.050   5.547  17.128  0.00  0.00    +0.000 A 
ATOM      7  S   UNL     1       5.269   3.978  16.449  0.00  0.00    +0.000 S 
ENDBRANCH   1   6
BRANCH   1   8
ATOM      8  S   UNL     1       2.963   6.306  18.706  0.00  0.00    +0.000 S 
BRANCH   8   9
ATOM      9  C   UNL     1       2.078   4.829  19.187  0.00  0.00    +0.000 A 
ATOM     10  C   UNL     1       1.719   3.937  18.167  0.00  0.00    +0.000 A 
ATOM     11  C   UNL     1       1.081   2.731  18.460  0.00  0.00    +0.000 A 
ATOM     12  C   UNL     1       0.797   2.397  19.781  0.00  0.00    +0.000 A 
ATOM     13  C   UNL     1       1.154   3.272  20.806  0.00  0.00    +0.000 A 
ATOM     14  C   UNL     1       1.796   4.480  20.511  0.00  0.00    +0.000 A 
ENDBRANCH   8   9
ENDBRANCH   1   8
TORSDOF 3
ENDMDL
MODEL 6
REMARK VINA RESULT:      -6.0      1.640      1.813
REMARK  Name = 
REMARK  3 active torsions:
REMARK  status: ('A' for Active; 'I' for Inactive)
REMARK    1  A    between atoms: C_5  and  C_6
REMARK    2  A    between atoms: C_6  and  S_7
REMARK    3  A    between atoms: S_7  and  C_8
REMARK                            x       y       z     vdW  Elec       q    Type
REMARK                         _______ _______ _______ _____ _____    ______ ____
ROOT
ATOM      1  C   UNL     1       4.584   4.002  16.858  0.00  0.00    +0.000 C 
ENDROOT
BRANCH   1   6
ATOM      2 CL   UNL     1       7.944   5.239  12.660  0.00  0.00    +0.000 Cl
ATOM      3  C   UNL     1       7.159   5.077  14.177  0.00  0.00    +0.000 A 
ATOM      4  N   UNL     1       7.609   5.645  15.268  0.00  0.00    +0.000 NA
ATOM      5  C   UNL     1       6.754   5.335  16.310  0.00  0.00    +0.000 A 
ATOM      6  C   UNL     1       5.679   4.523  15.987  0.00  0.00    +0.000 A 
ATOM      7  S   UNL     1       5.750   4.139  14.309  0.00  0.00    +0.000 S 
ENDBRANCH   1   6
BRANCH   1   8
ATOM      8  S   UNL     1       5.061   4.148  18.614  0.00  0.00    +0.000 S 
BRANCH   8   9
ATOM      9  C   UNL     1       3.501   3.990  19.473  0.00  0.00    +0.000 A 
ATOM     10  C   UNL     1       3.067   2.692  19.775  0.00  0.00    +0.000 A 
ATOM     11  C   UNL     1       1.891   2.478  20.497  0.00  0.00    +0.000 A 
ATOM     12  C   UNL     1       1.135   3.563  20.931  0.00  0.00    +0.000 A 
ATOM     13  C   UNL     1       1.558   4.859  20.642  0.00  0.00    +0.000 A 
ATOM     14  C   UNL     1       2.738   5.072  19.921  0.00  0.00    +0.000 A 
ENDBRANCH   8   9
ENDBRANCH   1   8
TORSDOF 3
ENDMDL
MODEL 7
REMARK VINA RESULT:      -5.9      2.014      2.237
REMARK  Name = 
REMARK  3 active torsions:
REMARK  status: ('A' for Active; 'I' for Inactive)
REMARK    1  A    between atoms: C_5  and  C_6
REMARK    2  A    between atoms: C_6  and  S_7
REMARK    3  A    between atoms: S_7  and  C_8
REMARK                            x       y       z     vdW  Elec       q    Type
REMARK                         _______ _______ _______ _____ _____    ______ ____
ROOT
ATOM      1  C   UNL     1       4.023   4.310  17.100  0.00  0.00    +0.000 C 
ENDROOT
BRANCH   1   6
ATOM      2 CL   UNL     1       7.969   8.144  17.514  0.00  0.00    +0.000 Cl
ATOM      3  C   UNL     1       7.055   6.703  17.341  0.00  0.00    +0.000 A 
ATOM      4  N   UNL     1       7.613   5.529  17.173  0.00  0.00    +0.000 NA
ATOM      5  C   UNL     1       6.614   4.577  17.079  0.00  0.00    +0.000 A 
ATOM      6  C   UNL     1       5.317   5.053  17.165  0.00  0.00    +0.000 A 
ATOM      7  S   UNL     1       5.358   6.764  17.372  0.00  0.00    +0.000 S 
ENDBRANCH   1   6
BRANCH   1   8
ATOM      8  S   UNL     1       2.683   5.329  17.807  0.00  0.00    +0.000 S 
BRANCH   8   9
ATOM      9  C   UNL     1       2.164   4.385  19.233  0.00  0.00    +0.000 A 
ATOM     10  C   UNL     1       1.314   3.294  19.002  0.00  0.00    +0.000 A 
ATOM     11  C   UNL     1       0.909   2.465  20.051  0.00  0.00    +0.000 A 
ATOM     12  C   UNL     1       1.353   2.716  21.346  0.00  0.00    +0.000 A 
ATOM     13  C   UNL     1       2.203   3.794  21.588  0.00  0.00    +0.000 A 
ATOM     14  C   UNL     1       2.610   4.621  20.536  0.00  0.00    +0.000 A 
ENDBRANCH   8   9
ENDBRANCH   1   8
TORSDOF 3
ENDMDL
MODEL 8
REMARK VINA RESULT:      -5.9      2.044      2.544
REMARK  Name = 
REMARK  3 active torsions:
REMARK  status: ('A' for Active; 'I' for Inactive)
REMARK    1  A    between atoms: C_5  and  C_6
REMARK    2  A    between atoms: C_6  and  S_7
REMARK    3  A    between atoms: S_7  and  C_8
REMARK                            x       y       z     vdW  Elec       q    Type
REMARK                         _______ _______ _______ _____ _____    ______ ____
ROOT
ATOM      1  C   UNL     1       4.643   3.491  17.091  0.00  0.00    +0.000 C 
ENDROOT
BRANCH   1   6
ATOM      2 CL   UNL     1       7.881   7.920  17.677  0.00  0.00    +0.000 Cl
ATOM      3  C   UNL     1       7.091   6.488  17.159  0.00  0.00    +0.000 A 
ATOM      4  N   UNL     1       7.429   5.852  16.065  0.00  0.00    +0.000 NA
ATOM      5  C   UNL     1       6.616   4.740  15.935  0.00  0.00    +0.000 A 
ATOM      6  C   UNL     1       5.668   4.566  16.929  0.00  0.00    +0.000 A 
ATOM      7  S   UNL     1       5.806   5.851  18.069  0.00  0.00    +0.000 S 
ENDBRANCH   1   6
BRANCH   1   8
ATOM      8  S   UNL     1       2.986   4.233  17.277  0.00  0.00    +0.000 S 
BRANCH   8   9
ATOM      9  C   UNL     1       2.528   3.789  18.946  0.00  0.00    +0.000 A 
ATOM     10  C   UNL     1       2.588   4.799  19.916  0.00  0.00    +0.000 A 
ATOM     11  C   UNL     1       2.190   4.556  21.232  0.00  0.00    +0.000 A 
ATOM     12  C   UNL     1       1.721   3.297  21.595  0.00  0.00    +0.000 A 
ATOM     13  C   UNL     1       1.650   2.285  20.639  0.00  0.00    +0.000 A 
ATOM     14  C   UNL     1       2.047   2.531  19.320  0.00  0.00    +0.000 A 
ENDBRANCH   8   9
ENDBRANCH   1   8
TORSDOF 3
ENDMDL
MODEL 9
REMARK VINA RESULT:      -5.8      2.164      2.462
REMARK  Name = 
REMARK  3 active torsions:
REMARK  status: ('A' for Active; 'I' for Inactive)
REMARK    1  A    between atoms: C_5  and  C_6
REMARK    2  A    between atoms: C_6  and  S_7
REMARK    3  A    between atoms: S_7  and  C_8
REMARK                            x       y       z     vdW  Elec       q    Type
REMARK                         _______ _______ _______ _____ _____    ______ ____
ROOT
ATOM      1  C   UNL     1       4.069   4.153  16.975  0.00  0.00    +0.000 C 
ENDROOT
BRANCH   1   6
ATOM      2 CL   UNL     1       7.866   8.119  17.531  0.00  0.00    +0.000 Cl
ATOM      3  C   UNL     1       7.008   6.648  17.315  0.00  0.00    +0.000 A 
ATOM      4  N   UNL     1       7.611   5.500  17.135  0.00  0.00    +0.000 NA
ATOM      5  C   UNL     1       6.649   4.514  17.005  0.00  0.00    +0.000 A 
ATOM      6  C   UNL     1       5.334   4.941  17.077  0.00  0.00    +0.000 A 
ATOM      7  S   UNL     1       5.310   6.648  17.317  0.00  0.00    +0.000 S 
ENDBRANCH   1   6
BRANCH   1   8
ATOM      8  S   UNL     1       2.717   5.033  17.829  0.00  0.00    +0.000 S 
BRANCH   8   9
ATOM      9  C   UNL     1       2.415   4.015  19.267  0.00  0.00    +0.000 A 
ATOM     10  C   UNL     1       3.513   3.330  19.808  0.00  0.00    +0.000 A 
ATOM     11  C   UNL     1       3.380   2.561  20.965  0.00  0.00    +0.000 A 
ATOM     12  C   UNL     1       2.146   2.471  21.602  0.00  0.00    +0.000 A 
ATOM     13  C   UNL     1       1.048   3.152  21.079  0.00  0.00    +0.000 A 
ATOM     14  C   UNL     1       1.183   3.924  19.920  0.00  0.00    +0.000 A 
ENDBRANCH   8   9
ENDBRANCH   1   8
TORSDOF 3
ENDMDL
