MODEL 1
REMARK VINA RESULT:      -7.6      0.000      0.000
REMARK  Name = 
REMARK  8 active torsions:
REMARK  status: ('A' for Active; 'I' for Inactive)
REMARK    1  A    between atoms: C_1  and  C_2
REMARK    2  A    between atoms: C_6  and  O_7
REMARK    3  A    between atoms: O_7  and  C_8
REMARK    4  A    between atoms: C_8  and  C_9
REMARK    5  A    between atoms: C_9  and  C_10
REMARK    6  A    between atoms: C_10  and  O_12
REMARK    7  A    between atoms: O_12  and  C_13
REMARK    8  A    between atoms: C_13  and  C_14
REMARK                            x       y       z     vdW  Elec       q    Type
REMARK                         _______ _______ _______ _____ _____    ______ ____
ROOT
ATOM      1  O   UNL     1       3.186   1.956  20.495  0.00  0.00    +0.000 OA
ENDROOT
BRANCH   1   2
ATOM      2  C   UNL     1       2.397   2.792  21.232  0.00  0.00    +0.000 C 
ATOM      3  O   UNL     1       2.635   3.099  22.394  0.00  0.00    +0.000 OA
BRANCH   2   4
ATOM      4  C   UNL     1       1.172   3.253  20.458  0.00  0.00    +0.000 C 
BRANCH   4   5
ATOM      5  C   UNL     1       1.086   4.785  20.495  0.00  0.00    +0.000 C 
BRANCH   5   6
ATOM      6  O   UNL     1       2.335   5.404  20.148  0.00  0.00    +0.000 OA
BRANCH   6  12
ATOM      7  C   UNL     1       0.793  10.146  20.006  0.00  0.00    +0.000 C 
ATOM      8  C   UNL     1       1.536   8.985  19.409  0.00  0.00    +0.000 A 
ATOM      9  C   UNL     1       2.200   9.110  18.186  0.00  0.00    +0.000 A 
ATOM     10  C   UNL     1       2.879   8.017  17.650  0.00  0.00    +0.000 A 
ATOM     11  C   UNL     1       2.902   6.795  18.334  0.00  0.00    +0.000 A 
ATOM     12  C   UNL     1       2.246   6.649  19.561  0.00  0.00    +0.000 A 
ATOM     13  C   UNL     1       1.565   7.753  20.088  0.00  0.00    +0.000 A 
ENDBRANCH   6  12
ENDBRANCH   5   6
ENDBRANCH   4   5
ENDBRANCH   2   4
ENDBRANCH   1   2
BRANCH   1  14
ATOM     14  C   UNL     1       4.406   2.555  19.967  0.00  0.00    +0.000 C 
BRANCH  14  15
ATOM     15  C   UNL     1       4.161   2.859  18.490  0.00  0.00    +0.000 C 
ATOM     16  O   UNL     1       3.290   2.203  17.891  0.00  0.00    +0.000 OA
ATOM     17  N   UNL     1       4.851   3.832  17.794  0.00  0.00    +0.000 N 
ATOM     18  C   UNL     1       4.495   3.993  16.375  0.00  0.00    +0.000 C 
ATOM     19  C   UNL     1       5.381   5.069  15.766  0.00  0.00    +0.000 C 
ATOM     20  C   UNL     1       6.176   5.509  16.949  0.00  0.00    +0.000 A 
ATOM     21  C   UNL     1       7.137   6.509  16.932  0.00  0.00    +0.000 A 
ATOM     22  C   UNL     1       7.799   6.795  18.115  0.00  0.00    +0.000 A 
ATOM     23  C   UNL     1       7.492   6.077  19.282  0.00  0.00    +0.000 A 
ATOM     24  C   UNL     1       6.516   5.061  19.292  0.00  0.00    +0.000 A 
ATOM     25  C   UNL     1       5.854   4.772  18.103  0.00  0.00    +0.000 A 
ENDBRANCH  14  15
ENDBRANCH   1  14
TORSDOF 7
ENDMDL
MODEL 2
REMARK VINA RESULT:      -7.2      3.857      6.675
REMARK  Name = 
REMARK  8 active torsions:
REMARK  status: ('A' for Active; 'I' for Inactive)
REMARK    1  A    between atoms: C_1  and  C_2
REMARK    2  A    between atoms: C_6  and  O_7
REMARK    3  A    between atoms: O_7  and  C_8
REMARK    4  A    between atoms: C_8  and  C_9
REMARK    5  A    between atoms: C_9  and  C_10
REMARK    6  A    between atoms: C_10  and  O_12
REMARK    7  A    between atoms: O_12  and  C_13
REMARK    8  A    between atoms: C_13  and  C_14
REMARK                            x       y       z     vdW  Elec       q    Type
REMARK                         _______ _______ _______ _____ _____    ______ ____
ROOT
ATOM      1  O   UNL     1       6.358   6.773  16.362  0.00  0.00    +0.000 OA
ENDROOT
BRANCH   1   2
ATOM      2  C   UNL     1       7.251   5.998  17.047  0.00  0.00    +0.000 C 
ATOM      3  O   UNL     1       7.600   4.882  16.682  0.00  0.00    +0.000 OA
BRANCH   2   4
ATOM      4  C   UNL     1       7.716   6.664  18.332  0.00  0.00    +0.000 C 
BRANCH   4   5
ATOM      5  C   UNL     1       8.045   8.138  18.058  0.00  0.00    +0.000 C 
BRANCH   5   6
ATOM      6  O   UNL     1       8.971   8.672  19.017  0.00  0.00    +0.000 OA
BRANCH   6  12
ATOM      7  C   UNL     1       9.890  12.988  21.342  0.00  0.00    +0.000 C 
ATOM      8  C   UNL     1       9.500  12.210  20.118  0.00  0.00    +0.000 A 
ATOM      9  C   UNL     1       9.203  12.860  18.918  0.00  0.00    +0.000 A 
ATOM     10  C   UNL     1       8.839  12.115  17.797  0.00  0.00    +0.000 A 
ATOM     11  C   UNL     1       8.771  10.719  17.868  0.00  0.00    +0.000 A 
ATOM     12  C   UNL     1       9.066  10.047  19.060  0.00  0.00    +0.000 A 
ATOM     13  C   UNL     1       9.428  10.806  20.179  0.00  0.00    +0.000 A 
ENDBRANCH   6  12
ENDBRANCH   5   6
ENDBRANCH   4   5
ENDBRANCH   2   4
ENDBRANCH   1   2
BRANCH   1  14
ATOM     14  C   UNL     1       5.027   6.197  16.204  0.00  0.00    +0.000 C 
BRANCH  14  15
ATOM     15  C   UNL     1       4.178   6.689  17.373  0.00  0.00    +0.000 C 
ATOM     16  O   UNL     1       4.112   7.914  17.578  0.00  0.00    +0.000 OA
ATOM     17  N   UNL     1       3.473   5.842  18.205  0.00  0.00    +0.000 N 
ATOM     18  C   UNL     1       2.707   6.481  19.289  0.00  0.00    +0.000 C 
ATOM     19  C   UNL     1       2.037   5.398  20.121  0.00  0.00    +0.000 C 
ATOM     20  C   UNL     1       2.437   4.163  19.385  0.00  0.00    +0.000 A 
ATOM     21  C   UNL     1       2.059   2.875  19.734  0.00  0.00    +0.000 A 
ATOM     22  C   UNL     1       2.522   1.828  18.954  0.00  0.00    +0.000 A 
ATOM     23  C   UNL     1       3.353   2.088  17.852  0.00  0.00    +0.000 A 
ATOM     24  C   UNL     1       3.733   3.399  17.504  0.00  0.00    +0.000 A 
ATOM     25  C   UNL     1       3.271   4.450  18.289  0.00  0.00    +0.000 A 
ENDBRANCH  14  15
ENDBRANCH   1  14
TORSDOF 7
ENDMDL
MODEL 3
REMARK VINA RESULT:      -7.2      3.843      6.783
REMARK  Name = 
REMARK  8 active torsions:
REMARK  status: ('A' for Active; 'I' for Inactive)
REMARK    1  A    between atoms: C_1  and  C_2
REMARK    2  A    between atoms: C_6  and  O_7
REMARK    3  A    between atoms: O_7  and  C_8
REMARK    4  A    between atoms: C_8  and  C_9
REMARK    5  A    between atoms: C_9  and  C_10
REMARK    6  A    between atoms: C_10  and  O_12
REMARK    7  A    between atoms: O_12  and  C_13
REMARK    8  A    between atoms: C_13  and  C_14
REMARK                            x       y       z     vdW  Elec       q    Type
REMARK                         _______ _______ _______ _____ _____    ______ ____
ROOT
ATOM      1  O   UNL     1       6.065   6.257  18.621  0.00  0.00    +0.000 OA
ENDROOT
BRANCH   1   2
ATOM      2  C   UNL     1       7.408   6.408  18.427  0.00  0.00    +0.000 C 
ATOM      3  O   UNL     1       8.259   5.877  19.131  0.00  0.00    +0.000 OA
BRANCH   2   4
ATOM      4  C   UNL     1       7.717   7.348  17.273  0.00  0.00    +0.000 C 
BRANCH   4   5
ATOM      5  C   UNL     1       7.813   8.788  17.794  0.00  0.00    +0.000 C 
BRANCH   5   6
ATOM      6  O   UNL     1       8.749   8.910  18.876  0.00  0.00    +0.000 OA
BRANCH   6  12
ATOM      7  C   UNL     1      10.708  13.164  17.159  0.00  0.00    +0.000 C 
ATOM      8  C   UNL     1      10.284  12.273  18.292  0.00  0.00    +0.000 A 
ATOM      9  C   UNL     1      10.446  12.674  19.620  0.00  0.00    +0.000 A 
ATOM     10  C   UNL     1      10.050  11.827  20.654  0.00  0.00    +0.000 A 
ATOM     11  C   UNL     1       9.488  10.577  20.367  0.00  0.00    +0.000 A 
ATOM     12  C   UNL     1       9.314  10.157  19.044  0.00  0.00    +0.000 A 
ATOM     13  C   UNL     1       9.719  11.015  18.014  0.00  0.00    +0.000 A 
ENDBRANCH   6  12
ENDBRANCH   5   6
ENDBRANCH   4   5
ENDBRANCH   2   4
ENDBRANCH   1   2
BRANCH   1  14
ATOM     14  C   UNL     1       5.263   6.199  17.404  0.00  0.00    +0.000 C 
BRANCH  14  15
ATOM     15  C   UNL     1       4.992   4.726  17.108  0.00  0.00    +0.000 C 
ATOM     16  O   UNL     1       5.696   4.158  16.254  0.00  0.00    +0.000 OA
ATOM     17  N   UNL     1       4.012   3.994  17.749  0.00  0.00    +0.000 N 
ATOM     18  C   UNL     1       3.880   2.585  17.341  0.00  0.00    +0.000 C 
ATOM     19  C   UNL     1       2.732   1.956  18.115  0.00  0.00    +0.000 C 
ATOM     20  C   UNL     1       2.308   3.085  18.994  0.00  0.00    +0.000 A 
ATOM     21  C   UNL     1       1.285   3.021  19.929  0.00  0.00    +0.000 A 
ATOM     22  C   UNL     1       1.004   4.161  20.664  0.00  0.00    +0.000 A 
ATOM     23  C   UNL     1       1.743   5.336  20.447  0.00  0.00    +0.000 A 
ATOM     24  C   UNL     1       2.780   5.393  19.496  0.00  0.00    +0.000 A 
ATOM     25  C   UNL     1       3.060   4.249  18.756  0.00  0.00    +0.000 A 
ENDBRANCH  14  15
ENDBRANCH   1  14
TORSDOF 7
ENDMDL
MODEL 4
REMARK VINA RESULT:      -7.2      1.023      1.193
REMARK  Name = 
REMARK  8 active torsions:
REMARK  status: ('A' for Active; 'I' for Inactive)
REMARK    1  A    between atoms: C_1  and  C_2
REMARK    2  A    between atoms: C_6  and  O_7
REMARK    3  A    between atoms: O_7  and  C_8
REMARK    4  A    between atoms: C_8  and  C_9
REMARK    5  A    between atoms: C_9  and  C_10
REMARK    6  A    between atoms: C_10  and  O_12
REMARK    7  A    between atoms: O_12  and  C_13
REMARK    8  A    between atoms: C_13  and  C_14
REMARK                            x       y       z     vdW  Elec       q    Type
REMARK                         _______ _______ _______ _____ _____    ______ ____
ROOT
ATOM      1  O   UNL     1       3.398   3.339  20.033  0.00  0.00    +0.000 OA
ENDROOT
BRANCH   1   2
ATOM      2  C   UNL     1       2.056   3.090  20.043  0.00  0.00    +0.000 C 
ATOM      3  O   UNL     1       1.561   2.022  19.701  0.00  0.00    +0.000 OA
BRANCH   2   4
ATOM      4  C   UNL     1       1.252   4.305  20.477  0.00  0.00    +0.000 C 
BRANCH   4   5
ATOM      5  C   UNL     1       2.208   5.434  20.888  0.00  0.00    +0.000 C 
BRANCH   5   6
ATOM      6  O   UNL     1       1.527   6.689  21.042  0.00  0.00    +0.000 OA
BRANCH   6  12
ATOM      7  C   UNL     1       0.773  11.106  18.851  0.00  0.00    +0.000 C 
ATOM      8  C   UNL     1       1.396   9.740  18.877  0.00  0.00    +0.000 A 
ATOM      9  C   UNL     1       2.219   9.305  17.836  0.00  0.00    +0.000 A 
ATOM     10  C   UNL     1       2.782   8.031  17.881  0.00  0.00    +0.000 A 
ATOM     11  C   UNL     1       2.528   7.184  18.967  0.00  0.00    +0.000 A 
ATOM     12  C   UNL     1       1.708   7.600  20.022  0.00  0.00    +0.000 A 
ATOM     13  C   UNL     1       1.146   8.881  19.964  0.00  0.00    +0.000 A 
ENDBRANCH   6  12
ENDBRANCH   5   6
ENDBRANCH   4   5
ENDBRANCH   2   4
ENDBRANCH   1   2
BRANCH   1  14
ATOM     14  C   UNL     1       4.151   2.650  18.991  0.00  0.00    +0.000 C 
BRANCH  14  15
ATOM     15  C   UNL     1       3.980   3.451  17.702  0.00  0.00    +0.000 C 
ATOM     16  O   UNL     1       3.058   3.134  16.930  0.00  0.00    +0.000 OA
ATOM     17  N   UNL     1       4.793   4.513  17.359  0.00  0.00    +0.000 N 
ATOM     18  C   UNL     1       4.494   5.174  16.077  0.00  0.00    +0.000 C 
ATOM     19  C   UNL     1       5.511   6.282  15.848  0.00  0.00    +0.000 C 
ATOM     20  C   UNL     1       6.319   6.212  17.101  0.00  0.00    +0.000 A 
ATOM     21  C   UNL     1       7.386   7.045  17.404  0.00  0.00    +0.000 A 
ATOM     22  C   UNL     1       8.044   6.847  18.606  0.00  0.00    +0.000 A 
ATOM     23  C   UNL     1       7.629   5.823  19.473  0.00  0.00    +0.000 A 
ATOM     24  C   UNL     1       6.545   4.980  19.158  0.00  0.00    +0.000 A 
ATOM     25  C   UNL     1       5.886   5.178  17.949  0.00  0.00    +0.000 A 
ENDBRANCH  14  15
ENDBRANCH   1  14
TORSDOF 7
ENDMDL
MODEL 5
REMARK VINA RESULT:      -7.1      1.090      1.716
REMARK  Name = 
REMARK  8 active torsions:
REMARK  status: ('A' for Active; 'I' for Inactive)
REMARK    1  A    between atoms: C_1  and  C_2
REMARK    2  A    between atoms: C_6  and  O_7
REMARK    3  A    between atoms: O_7  and  C_8
REMARK    4  A    between atoms: C_8  and  C_9
REMARK    5  A    between atoms: C_9  and  C_10
REMARK    6  A    between atoms: C_10  and  O_12
REMARK    7  A    between atoms: O_12  and  C_13
REMARK    8  A    between atoms: C_13  and  C_14
REMARK                            x       y       z     vdW  Elec       q    Type
REMARK                         _______ _______ _______ _____ _____    ______ ____
ROOT
ATOM      1  O   UNL     1       3.430   3.525  20.518  0.00  0.00    +0.000 OA
ENDROOT
BRANCH   1   2
ATOM      2  C   UNL     1       2.065   3.476  20.527  0.00  0.00    +0.000 C 
ATOM      3  O   UNL     1       1.424   2.449  20.714  0.00  0.00    +0.000 OA
BRANCH   2   4
ATOM      4  C   UNL     1       1.443   4.831  20.231  0.00  0.00    +0.000 C 
BRANCH   4   5
ATOM      5  C   UNL     1       2.527   5.917  20.283  0.00  0.00    +0.000 C 
BRANCH   5   6
ATOM      6  O   UNL     1       2.255   6.996  19.375  0.00  0.00    +0.000 OA
BRANCH   6  12
ATOM      7  C   UNL     1       0.087   9.463  23.130  0.00  0.00    +0.000 C 
ATOM      8  C   UNL     1       0.542   9.376  21.701  0.00  0.00    +0.000 A 
ATOM      9  C   UNL     1       0.337  10.438  20.816  0.00  0.00    +0.000 A 
ATOM     10  C   UNL     1       0.764  10.332  19.493  0.00  0.00    +0.000 A 
ATOM     11  C   UNL     1       1.400   9.166  19.048  0.00  0.00    +0.000 A 
ATOM     12  C   UNL     1       1.618   8.092  19.917  0.00  0.00    +0.000 A 
ATOM     13  C   UNL     1       1.182   8.209  21.243  0.00  0.00    +0.000 A 
ENDBRANCH   6  12
ENDBRANCH   5   6
ENDBRANCH   4   5
ENDBRANCH   2   4
ENDBRANCH   1   2
BRANCH   1  14
ATOM     14  C   UNL     1       4.083   2.518  19.687  0.00  0.00    +0.000 C 
BRANCH  14  15
ATOM     15  C   UNL     1       3.927   2.960  18.233  0.00  0.00    +0.000 C 
ATOM     16  O   UNL     1       3.043   2.419  17.546  0.00  0.00    +0.000 OA
ATOM     17  N   UNL     1       4.714   3.934  17.651  0.00  0.00    +0.000 N 
ATOM     18  C   UNL     1       4.436   4.237  16.237  0.00  0.00    +0.000 C 
ATOM     19  C   UNL     1       5.420   5.293  15.759  0.00  0.00    +0.000 C 
ATOM     20  C   UNL     1       6.188   5.576  17.007  0.00  0.00    +0.000 A 
ATOM     21  C   UNL     1       7.214   6.503  17.114  0.00  0.00    +0.000 A 
ATOM     22  C   UNL     1       7.838   6.643  18.343  0.00  0.00    +0.000 A 
ATOM     23  C   UNL     1       7.430   5.855  19.431  0.00  0.00    +0.000 A 
ATOM     24  C   UNL     1       6.387   4.915  19.315  0.00  0.00    +0.000 A 
ATOM     25  C   UNL     1       5.763   4.772  18.080  0.00  0.00    +0.000 A 
ENDBRANCH  14  15
ENDBRANCH   1  14
TORSDOF 7
ENDMDL
MODEL 6
REMARK VINA RESULT:      -7.0      4.094      6.950
REMARK  Name = 
REMARK  8 active torsions:
REMARK  status: ('A' for Active; 'I' for Inactive)
REMARK    1  A    between atoms: C_1  and  C_2
REMARK    2  A    between atoms: C_6  and  O_7
REMARK    3  A    between atoms: O_7  and  C_8
REMARK    4  A    between atoms: C_8  and  C_9
REMARK    5  A    between atoms: C_9  and  C_10
REMARK    6  A    between atoms: C_10  and  O_12
REMARK    7  A    between atoms: O_12  and  C_13
REMARK    8  A    between atoms: C_13  and  C_14
REMARK                            x       y       z     vdW  Elec       q    Type
REMARK                         _______ _______ _______ _____ _____    ______ ____
ROOT
ATOM      1  O   UNL     1       6.221   6.532  17.808  0.00  0.00    +0.000 OA
ENDROOT
BRANCH   1   2
ATOM      2  C   UNL     1       7.424   6.913  17.286  0.00  0.00    +0.000 C 
ATOM      3  O   UNL     1       7.825   6.565  16.182  0.00  0.00    +0.000 OA
BRANCH   2   4
ATOM      4  C   UNL     1       8.220   7.772  18.255  0.00  0.00    +0.000 C 
BRANCH   4   5
ATOM      5  C   UNL     1       7.937   9.255  17.980  0.00  0.00    +0.000 C 
BRANCH   5   6
ATOM      6  O   UNL     1       9.137   9.988  17.685  0.00  0.00    +0.000 OA
BRANCH   6  12
ATOM      7  C   UNL     1       8.931  12.044  22.225  0.00  0.00    +0.000 C 
ATOM      8  C   UNL     1       9.662  11.746  20.948  0.00  0.00    +0.000 A 
ATOM      9  C   UNL     1      10.969  12.197  20.746  0.00  0.00    +0.000 A 
ATOM     10  C   UNL     1      11.625  11.912  19.549  0.00  0.00    +0.000 A 
ATOM     11  C   UNL     1      10.981  11.172  18.549  0.00  0.00    +0.000 A 
ATOM     12  C   UNL     1       9.673  10.709  18.732  0.00  0.00    +0.000 A 
ATOM     13  C   UNL     1       9.024  11.004  19.936  0.00  0.00    +0.000 A 
ENDBRANCH   6  12
ENDBRANCH   5   6
ENDBRANCH   4   5
ENDBRANCH   2   4
ENDBRANCH   1   2
BRANCH   1  14
ATOM     14  C   UNL     1       5.145   6.367  16.836  0.00  0.00    +0.000 C 
BRANCH  14  15
ATOM     15  C   UNL     1       4.873   4.870  16.711  0.00  0.00    +0.000 C 
ATOM     16  O   UNL     1       5.497   4.229  15.846  0.00  0.00    +0.000 OA
ATOM     17  N   UNL     1       3.976   4.194  17.515  0.00  0.00    +0.000 N 
ATOM     18  C   UNL     1       3.829   2.752  17.258  0.00  0.00    +0.000 C 
ATOM     19  C   UNL     1       2.777   2.191  18.202  0.00  0.00    +0.000 C 
ATOM     20  C   UNL     1       2.424   3.395  19.010  0.00  0.00    +0.000 A 
ATOM     21  C   UNL     1       1.503   3.412  20.047  0.00  0.00    +0.000 A 
ATOM     22  C   UNL     1       1.277   4.615  20.695  0.00  0.00    +0.000 A 
ATOM     23  C   UNL     1       1.969   5.770  20.294  0.00  0.00    +0.000 A 
ATOM     24  C   UNL     1       2.903   5.744  19.239  0.00  0.00    +0.000 A 
ATOM     25  C   UNL     1       3.127   4.537  18.586  0.00  0.00    +0.000 A 
ENDBRANCH  14  15
ENDBRANCH   1  14
TORSDOF 7
ENDMDL
MODEL 7
REMARK VINA RESULT:      -7.0      1.803      6.112
REMARK  Name = 
REMARK  8 active torsions:
REMARK  status: ('A' for Active; 'I' for Inactive)
REMARK    1  A    between atoms: C_1  and  C_2
REMARK    2  A    between atoms: C_6  and  O_7
REMARK    3  A    between atoms: O_7  and  C_8
REMARK    4  A    between atoms: C_8  and  C_9
REMARK    5  A    between atoms: C_9  and  C_10
REMARK    6  A    between atoms: C_10  and  O_12
REMARK    7  A    between atoms: O_12  and  C_13
REMARK    8  A    between atoms: C_13  and  C_14
REMARK                            x       y       z     vdW  Elec       q    Type
REMARK                         _______ _______ _______ _____ _____    ______ ____
ROOT
ATOM      1  O   UNL     1       1.475   5.045  19.917  0.00  0.00    +0.000 OA
ENDROOT
BRANCH   1   2
ATOM      2  C   UNL     1       1.794   3.746  20.190  0.00  0.00    +0.000 C 
ATOM      3  O   UNL     1       2.288   3.376  21.249  0.00  0.00    +0.000 OA
BRANCH   2   4
ATOM      4  C   UNL     1       1.512   2.828  19.011  0.00  0.00    +0.000 C 
BRANCH   4   5
ATOM      5  C   UNL     1       2.828   2.483  18.301  0.00  0.00    +0.000 C 
BRANCH   5   6
ATOM      6  O   UNL     1       3.075   3.338  17.174  0.00  0.00    +0.000 OA
BRANCH   6  12
ATOM      7  C   UNL     1       7.033   4.861  14.548  0.00  0.00    +0.000 C 
ATOM      8  C   UNL     1       6.343   4.598  15.856  0.00  0.00    +0.000 A 
ATOM      9  C   UNL     1       6.987   4.849  17.070  0.00  0.00    +0.000 A 
ATOM     10  C   UNL     1       6.328   4.593  18.272  0.00  0.00    +0.000 A 
ATOM     11  C   UNL     1       5.022   4.087  18.267  0.00  0.00    +0.000 A 
ATOM     12  C   UNL     1       4.358   3.831  17.063  0.00  0.00    +0.000 A 
ATOM     13  C   UNL     1       5.031   4.090  15.863  0.00  0.00    +0.000 A 
ENDBRANCH   6  12
ENDBRANCH   5   6
ENDBRANCH   4   5
ENDBRANCH   2   4
ENDBRANCH   1   2
BRANCH   1  14
ATOM     14  C   UNL     1       2.552   6.007  20.123  0.00  0.00    +0.000 C 
BRANCH  14  15
ATOM     15  C   UNL     1       2.406   7.088  19.054  0.00  0.00    +0.000 C 
ATOM     16  O   UNL     1       2.867   6.862  17.922  0.00  0.00    +0.000 OA
ATOM     17  N   UNL     1       1.779   8.297  19.283  0.00  0.00    +0.000 N 
ATOM     18  C   UNL     1       1.728   9.230  18.145  0.00  0.00    +0.000 C 
ATOM     19  C   UNL     1       1.046  10.513  18.593  0.00  0.00    +0.000 C 
ATOM     20  C   UNL     1       0.685  10.186  20.004  0.00  0.00    +0.000 A 
ATOM     21  C   UNL     1       0.011  11.036  20.868  0.00  0.00    +0.000 A 
ATOM     22  C   UNL     1      -0.243  10.588  22.154  0.00  0.00    +0.000 A 
ATOM     23  C   UNL     1       0.185   9.310  22.549  0.00  0.00    +0.000 A 
ATOM     24  C   UNL     1       0.870   8.452  21.666  0.00  0.00    +0.000 A 
ATOM     25  C   UNL     1       1.126   8.903  20.376  0.00  0.00    +0.000 A 
ENDBRANCH  14  15
ENDBRANCH   1  14
TORSDOF 7
ENDMDL
MODEL 8
REMARK VINA RESULT:      -6.9      1.778      5.840
REMARK  Name = 
REMARK  8 active torsions:
REMARK  status: ('A' for Active; 'I' for Inactive)
REMARK    1  A    between atoms: C_1  and  C_2
REMARK    2  A    between atoms: C_6  and  O_7
REMARK    3  A    between atoms: O_7  and  C_8
REMARK    4  A    between atoms: C_8  and  C_9
REMARK    5  A    between atoms: C_9  and  C_10
REMARK    6  A    between atoms: C_10  and  O_12
REMARK    7  A    between atoms: O_12  and  C_13
REMARK    8  A    between atoms: C_13  and  C_14
REMARK                            x       y       z     vdW  Elec       q    Type
REMARK                         _______ _______ _______ _____ _____    ______ ____
ROOT
ATOM      1  O   UNL     1       1.455   5.080  19.999  0.00  0.00    +0.000 OA
ENDROOT
BRANCH   1   2
ATOM      2  C   UNL     1       1.776   3.755  19.932  0.00  0.00    +0.000 C 
ATOM      3  O   UNL     1       1.750   3.001  20.898  0.00  0.00    +0.000 OA
BRANCH   2   4
ATOM      4  C   UNL     1       2.215   3.343  18.536  0.00  0.00    +0.000 C 
BRANCH   4   5
ATOM      5  C   UNL     1       3.568   2.622  18.615  0.00  0.00    +0.000 C 
BRANCH   5   6
ATOM      6  O   UNL     1       4.609   3.477  19.112  0.00  0.00    +0.000 OA
BRANCH   6  12
ATOM      7  C   UNL     1       7.514   7.276  17.693  0.00  0.00    +0.000 C 
ATOM      8  C   UNL     1       6.698   6.054  17.380  0.00  0.00    +0.000 A 
ATOM      9  C   UNL     1       6.572   5.592  16.067  0.00  0.00    +0.000 A 
ATOM     10  C   UNL     1       5.806   4.459  15.801  0.00  0.00    +0.000 A 
ATOM     11  C   UNL     1       5.164   3.779  16.843  0.00  0.00    +0.000 A 
ATOM     12  C   UNL     1       5.279   4.222  18.165  0.00  0.00    +0.000 A 
ATOM     13  C   UNL     1       6.049   5.364  18.420  0.00  0.00    +0.000 A 
ENDBRANCH   6  12
ENDBRANCH   5   6
ENDBRANCH   4   5
ENDBRANCH   2   4
ENDBRANCH   1   2
BRANCH   1  14
ATOM     14  C   UNL     1       2.586   5.988  20.157  0.00  0.00    +0.000 C 
BRANCH  14  15
ATOM     15  C   UNL     1       2.472   7.048  19.064  0.00  0.00    +0.000 C 
ATOM     16  O   UNL     1       2.947   6.791  17.943  0.00  0.00    +0.000 OA
ATOM     17  N   UNL     1       1.860   8.271  19.257  0.00  0.00    +0.000 N 
ATOM     18  C   UNL     1       1.842   9.180  18.100  0.00  0.00    +0.000 C 
ATOM     19  C   UNL     1       1.173  10.483  18.510  0.00  0.00    +0.000 C 
ATOM     20  C   UNL     1       0.785  10.191  19.921  0.00  0.00    +0.000 A 
ATOM     21  C   UNL     1       0.111  11.069  20.756  0.00  0.00    +0.000 A 
ATOM     22  C   UNL     1      -0.169  10.652  22.047  0.00  0.00    +0.000 A 
ATOM     23  C   UNL     1       0.232   9.376  22.476  0.00  0.00    +0.000 A 
ATOM     24  C   UNL     1       0.917   8.490  21.622  0.00  0.00    +0.000 A 
ATOM     25  C   UNL     1       1.201   8.910  20.326  0.00  0.00    +0.000 A 
ENDBRANCH  14  15
ENDBRANCH   1  14
TORSDOF 7
ENDMDL
MODEL 9
REMARK VINA RESULT:      -6.9      3.348      5.280
REMARK  Name = 
REMARK  8 active torsions:
REMARK  status: ('A' for Active; 'I' for Inactive)
REMARK    1  A    between atoms: C_1  and  C_2
REMARK    2  A    between atoms: C_6  and  O_7
REMARK    3  A    between atoms: O_7  and  C_8
REMARK    4  A    between atoms: C_8  and  C_9
REMARK    5  A    between atoms: C_9  and  C_10
REMARK    6  A    between atoms: C_10  and  O_12
REMARK    7  A    between atoms: O_12  and  C_13
REMARK    8  A    between atoms: C_13  and  C_14
REMARK                            x       y       z     vdW  Elec       q    Type
REMARK                         _______ _______ _______ _____ _____    ______ ____
ROOT
ATOM      1  O   UNL     1       1.279   7.625  21.111  0.00  0.00    +0.000 OA
ENDROOT
BRANCH   1   2
ATOM      2  C   UNL     1       1.231   8.955  21.418  0.00  0.00    +0.000 C 
ATOM      3  O   UNL     1       1.322   9.392  22.559  0.00  0.00    +0.000 OA
BRANCH   2   4
ATOM      4  C   UNL     1       1.001   9.817  20.187  0.00  0.00    +0.000 C 
BRANCH   4   5
ATOM      5  C   UNL     1      -0.492  10.150  20.064  0.00  0.00    +0.000 C 
BRANCH   5   6
ATOM      6  O   UNL     1      -0.728  11.260  19.183  0.00  0.00    +0.000 OA
BRANCH   6  12
ATOM      7  C   UNL     1      -3.083   9.795  15.037  0.00  0.00    +0.000 C 
ATOM      8  C   UNL     1      -3.075  10.479  16.375  0.00  0.00    +0.000 A 
ATOM      9  C   UNL     1      -4.233  11.068  16.887  0.00  0.00    +0.000 A 
ATOM     10  C   UNL     1      -4.200  11.700  18.129  0.00  0.00    +0.000 A 
ATOM     11  C   UNL     1      -3.011  11.746  18.867  0.00  0.00    +0.000 A 
ATOM     12  C   UNL     1      -1.840  11.160  18.374  0.00  0.00    +0.000 A 
ATOM     13  C   UNL     1      -1.885  10.530  17.124  0.00  0.00    +0.000 A 
ENDBRANCH   6  12
ENDBRANCH   5   6
ENDBRANCH   4   5
ENDBRANCH   2   4
ENDBRANCH   1   2
BRANCH   1  14
ATOM     14  C   UNL     1       2.083   7.284  19.943  0.00  0.00    +0.000 C 
BRANCH  14  15
ATOM     15  C   UNL     1       2.082   5.762  19.820  0.00  0.00    +0.000 C 
ATOM     16  O   UNL     1       1.371   5.109  20.604  0.00  0.00    +0.000 OA
ATOM     17  N   UNL     1       2.823   5.080  18.876  0.00  0.00    +0.000 N 
ATOM     18  C   UNL     1       2.712   3.612  18.897  0.00  0.00    +0.000 C 
ATOM     19  C   UNL     1       3.624   3.035  17.825  0.00  0.00    +0.000 C 
ATOM     20  C   UNL     1       4.172   4.273  17.198  0.00  0.00    +0.000 A 
ATOM     21  C   UNL     1       5.058   4.297  16.131  0.00  0.00    +0.000 A 
ATOM     22  C   UNL     1       5.484   5.531  15.668  0.00  0.00    +0.000 A 
ATOM     23  C   UNL     1       5.022   6.708  16.279  0.00  0.00    +0.000 A 
ATOM     24  C   UNL     1       4.122   6.676  17.362  0.00  0.00    +0.000 A 
ATOM     25  C   UNL     1       3.697   5.437  17.830  0.00  0.00    +0.000 A 
ENDBRANCH  14  15
ENDBRANCH   1  14
TORSDOF 7
ENDMDL
