MODEL 1
REMARK VINA RESULT:      -7.7      0.000      0.000
REMARK  Name = 
REMARK  5 active torsions:
REMARK  status: ('A' for Active; 'I' for Inactive)
REMARK    1  A    between atoms: C_1  and  C_2
REMARK    2  A    between atoms: C_5  and  C_6
REMARK    3  A    between atoms: N_8  and  C_9
REMARK    4  A    between atoms: C_9  and  C_10
REMARK    5  A    between atoms: C_10  and  C_11
REMARK                            x       y       z     vdW  Elec       q    Type
REMARK                         _______ _______ _______ _____ _____    ______ ____
ROOT
ATOM      1  C   UNL     1       5.597   6.989  17.035  0.00  0.00    +0.000 C 
ENDROOT
BRANCH   1   4
ATOM      2  C   UNL     1       6.776   5.457  15.497  0.00  0.00    +0.000 C 
ATOM      3  O   UNL     1       7.691   5.291  16.300  0.00  0.00    +0.000 OA
ATOM      4  N   UNL     1       5.732   6.318  15.758  0.00  0.00    +0.000 N 
ATOM      5  H   UNL     1       4.924   6.253  15.150  0.00  0.00    +0.000 HD
BRANCH   2  10
ATOM      6  C   UNL     1       5.403   2.386  11.373  0.00  0.00    +0.000 C 
ATOM      7  C   UNL     1       6.096   3.349  12.276  0.00  0.00    +0.000 A 
ATOM      8  C   UNL     1       7.208   4.120  12.021  0.00  0.00    +0.000 A 
ATOM      9  C   UNL     1       7.566   4.931  13.137  0.00  0.00    +0.000 A 
ATOM     10  C   UNL     1       6.714   4.762  14.215  0.00  0.00    +0.000 A 
ATOM     11  S   UNL     1       5.504   3.600  13.859  0.00  0.00    +0.000 S 
ENDBRANCH   2  10
ENDBRANCH   1   4
BRANCH   1  12
ATOM     12  C   UNL     1       4.319   6.604  17.786  0.00  0.00    +0.000 C 
BRANCH  12  13
ATOM     13  C   UNL     1       4.362   5.218  18.359  0.00  0.00    +0.000 A 
ATOM     14  C   UNL     1       5.476   4.596  18.890  0.00  0.00    +0.000 A 
ATOM     15  N   UNL     1       5.115   3.344  19.308  0.00  0.00    +0.000 N 
ATOM     16  C   UNL     1       3.782   3.126  19.058  0.00  0.00    +0.000 A 
ATOM     17  C   UNL     1       2.992   1.997  19.312  0.00  0.00    +0.000 A 
ATOM     18  C   UNL     1       1.644   2.054  18.948  0.00  0.00    +0.000 A 
ATOM     19  C   UNL     1       1.108   3.198  18.364  0.00  0.00    +0.000 A 
ATOM     20  C   UNL     1       1.909   4.322  18.127  0.00  0.00    +0.000 A 
ATOM     21  C   UNL     1       3.277   4.288  18.472  0.00  0.00    +0.000 A 
ATOM     22  H   UNL     1       5.734   2.672  19.738  0.00  0.00    +0.000 HD
ENDBRANCH  12  13
ENDBRANCH   1  12
TORSDOF 4
ENDMDL
MODEL 2
REMARK VINA RESULT:      -7.5      1.054      1.056
REMARK  Name = 
REMARK  5 active torsions:
REMARK  status: ('A' for Active; 'I' for Inactive)
REMARK    1  A    between atoms: C_1  and  C_2
REMARK    2  A    between atoms: C_5  and  C_6
REMARK    3  A    between atoms: N_8  and  C_9
REMARK    4  A    between atoms: C_9  and  C_10
REMARK    5  A    between atoms: C_10  and  C_11
REMARK                            x       y       z     vdW  Elec       q    Type
REMARK                         _______ _______ _______ _____ _____    ______ ____
ROOT
ATOM      1  C   UNL     1       6.043   6.638  17.368  0.00  0.00    +0.000 C 
ENDROOT
BRANCH   1   4
ATOM      2  C   UNL     1       6.950   5.131  15.632  0.00  0.00    +0.000 C 
ATOM      3  O   UNL     1       7.853   4.754  16.376  0.00  0.00    +0.000 OA
ATOM      4  N   UNL     1       6.047   6.096  16.024  0.00  0.00    +0.000 N 
ATOM      5  H   UNL     1       5.222   6.210  15.446  0.00  0.00    +0.000 HD
BRANCH   2  10
ATOM      6  C   UNL     1       5.085   2.668  11.299  0.00  0.00    +0.000 C 
ATOM      7  C   UNL     1       5.908   3.463  12.254  0.00  0.00    +0.000 A 
ATOM      8  C   UNL     1       7.067   4.168  12.011  0.00  0.00    +0.000 A 
ATOM      9  C   UNL     1       7.556   4.815  13.182  0.00  0.00    +0.000 A 
ATOM     10  C   UNL     1       6.756   4.594  14.290  0.00  0.00    +0.000 A 
ATOM     11  S   UNL     1       5.431   3.579  13.891  0.00  0.00    +0.000 S 
ENDBRANCH   2  10
ENDBRANCH   1   4
BRANCH   1  12
ATOM     12  C   UNL     1       4.692   6.490  18.073  0.00  0.00    +0.000 C 
BRANCH  12  13
ATOM     13  C   UNL     1       4.521   5.165  18.755  0.00  0.00    +0.000 A 
ATOM     14  C   UNL     1       5.458   4.150  18.800  0.00  0.00    +0.000 A 
ATOM     15  N   UNL     1       4.932   3.107  19.512  0.00  0.00    +0.000 N 
ATOM     16  C   UNL     1       3.661   3.412  19.935  0.00  0.00    +0.000 A 
ATOM     17  C   UNL     1       2.753   2.650  20.681  0.00  0.00    +0.000 A 
ATOM     18  C   UNL     1       1.512   3.220  20.971  0.00  0.00    +0.000 A 
ATOM     19  C   UNL     1       1.197   4.506  20.540  0.00  0.00    +0.000 A 
ATOM     20  C   UNL     1       2.119   5.259  19.804  0.00  0.00    +0.000 A 
ATOM     21  C   UNL     1       3.376   4.702  19.485  0.00  0.00    +0.000 A 
ATOM     22  H   UNL     1       5.404   2.234  19.703  0.00  0.00    +0.000 HD
ENDBRANCH  12  13
ENDBRANCH   1  12
TORSDOF 4
ENDMDL
MODEL 3
REMARK VINA RESULT:      -7.5      3.118      4.779
REMARK  Name = 
REMARK  5 active torsions:
REMARK  status: ('A' for Active; 'I' for Inactive)
REMARK    1  A    between atoms: C_1  and  C_2
REMARK    2  A    between atoms: C_5  and  C_6
REMARK    3  A    between atoms: N_8  and  C_9
REMARK    4  A    between atoms: C_9  and  C_10
REMARK    5  A    between atoms: C_10  and  C_11
REMARK                            x       y       z     vdW  Elec       q    Type
REMARK                         _______ _______ _______ _____ _____    ______ ____
ROOT
ATOM      1  C   UNL     1       3.727   2.225  17.706  0.00  0.00    +0.000 C 
ENDROOT
BRANCH   1   4
ATOM      2  C   UNL     1       5.257   4.031  17.000  0.00  0.00    +0.000 C 
ATOM      3  O   UNL     1       4.959   3.876  15.818  0.00  0.00    +0.000 OA
ATOM      4  N   UNL     1       4.736   3.225  17.989  0.00  0.00    +0.000 N 
ATOM      5  H   UNL     1       4.866   3.533  18.946  0.00  0.00    +0.000 HD
BRANCH   2  10
ATOM      6  C   UNL     1       7.930   8.578  17.708  0.00  0.00    +0.000 C 
ATOM      7  C   UNL     1       7.430   7.178  17.811  0.00  0.00    +0.000 A 
ATOM      8  C   UNL     1       7.809   6.192  18.696  0.00  0.00    +0.000 A 
ATOM      9  C   UNL     1       7.089   4.980  18.488  0.00  0.00    +0.000 A 
ATOM     10  C   UNL     1       6.173   5.072  17.454  0.00  0.00    +0.000 A 
ATOM     11  S   UNL     1       6.222   6.629  16.734  0.00  0.00    +0.000 S 
ENDBRANCH   2  10
ENDBRANCH   1   4
BRANCH   1  12
ATOM     12  C   UNL     1       2.304   2.791  17.694  0.00  0.00    +0.000 C 
BRANCH  12  13
ATOM     13  C   UNL     1       1.990   3.631  18.897  0.00  0.00    +0.000 A 
ATOM     14  C   UNL     1       1.546   3.162  20.118  0.00  0.00    +0.000 A 
ATOM     15  N   UNL     1       1.373   4.230  20.956  0.00  0.00    +0.000 N 
ATOM     16  C   UNL     1       1.691   5.399  20.307  0.00  0.00    +0.000 A 
ATOM     17  C   UNL     1       1.659   6.721  20.767  0.00  0.00    +0.000 A 
ATOM     18  C   UNL     1       2.042   7.728  19.877  0.00  0.00    +0.000 A 
ATOM     19  C   UNL     1       2.450   7.420  18.582  0.00  0.00    +0.000 A 
ATOM     20  C   UNL     1       2.487   6.092  18.141  0.00  0.00    +0.000 A 
ATOM     21  C   UNL     1       2.092   5.056  19.015  0.00  0.00    +0.000 A 
ATOM     22  H   UNL     1       1.057   4.176  21.913  0.00  0.00    +0.000 HD
ENDBRANCH  12  13
ENDBRANCH   1  12
TORSDOF 4
ENDMDL
MODEL 4
REMARK VINA RESULT:      -7.4      1.526      1.788
REMARK  Name = 
REMARK  5 active torsions:
REMARK  status: ('A' for Active; 'I' for Inactive)
REMARK    1  A    between atoms: C_1  and  C_2
REMARK    2  A    between atoms: C_5  and  C_6
REMARK    3  A    between atoms: N_8  and  C_9
REMARK    4  A    between atoms: C_9  and  C_10
REMARK    5  A    between atoms: C_10  and  C_11
REMARK                            x       y       z     vdW  Elec       q    Type
REMARK                         _______ _______ _______ _____ _____    ______ ____
ROOT
ATOM      1  C   UNL     1       5.123   6.187  17.554  0.00  0.00    +0.000 C 
ENDROOT
BRANCH   1   4
ATOM      2  C   UNL     1       6.507   5.605  15.592  0.00  0.00    +0.000 C 
ATOM      3  O   UNL     1       7.475   6.210  16.046  0.00  0.00    +0.000 OA
ATOM      4  N   UNL     1       5.293   5.588  16.246  0.00  0.00    +0.000 N 
ATOM      5  H   UNL     1       4.609   4.913  15.923  0.00  0.00    +0.000 HD
BRANCH   2  10
ATOM      6  C   UNL     1       5.514   2.342  11.507  0.00  0.00    +0.000 C 
ATOM      7  C   UNL     1       6.117   3.353  12.420  0.00  0.00    +0.000 A 
ATOM      8  C   UNL     1       7.234   4.135  12.221  0.00  0.00    +0.000 A 
ATOM      9  C   UNL     1       7.490   4.997  13.326  0.00  0.00    +0.000 A 
ATOM     10  C   UNL     1       6.558   4.857  14.340  0.00  0.00    +0.000 A 
ATOM     11  S   UNL     1       5.398   3.658  13.940  0.00  0.00    +0.000 S 
ENDBRANCH   2  10
ENDBRANCH   1   4
BRANCH   1  12
ATOM     12  C   UNL     1       3.782   6.908  17.718  0.00  0.00    +0.000 C 
BRANCH  12  13
ATOM     13  C   UNL     1       2.918   6.316  18.792  0.00  0.00    +0.000 A 
ATOM     14  C   UNL     1       2.545   6.941  19.967  0.00  0.00    +0.000 A 
ATOM     15  N   UNL     1       1.758   6.081  20.684  0.00  0.00    +0.000 N 
ATOM     16  C   UNL     1       1.609   4.896  20.006  0.00  0.00    +0.000 A 
ATOM     17  C   UNL     1       0.901   3.740  20.359  0.00  0.00    +0.000 A 
ATOM     18  C   UNL     1       0.922   2.668  19.464  0.00  0.00    +0.000 A 
ATOM     19  C   UNL     1       1.615   2.754  18.260  0.00  0.00    +0.000 A 
ATOM     20  C   UNL     1       2.309   3.920  17.917  0.00  0.00    +0.000 A 
ATOM     21  C   UNL     1       2.316   5.015  18.809  0.00  0.00    +0.000 A 
ATOM     22  H   UNL     1       1.345   6.281  21.584  0.00  0.00    +0.000 HD
ENDBRANCH  12  13
ENDBRANCH   1  12
TORSDOF 4
ENDMDL
MODEL 5
REMARK VINA RESULT:      -7.2      3.401      7.178
REMARK  Name = 
REMARK  5 active torsions:
REMARK  status: ('A' for Active; 'I' for Inactive)
REMARK    1  A    between atoms: C_1  and  C_2
REMARK    2  A    between atoms: C_5  and  C_6
REMARK    3  A    between atoms: N_8  and  C_9
REMARK    4  A    between atoms: C_9  and  C_10
REMARK    5  A    between atoms: C_10  and  C_11
REMARK                            x       y       z     vdW  Elec       q    Type
REMARK                         _______ _______ _______ _____ _____    ______ ____
ROOT
ATOM      1  C   UNL     1       4.518   4.478  18.065  0.00  0.00    +0.000 C 
ENDROOT
BRANCH   1   4
ATOM      2  C   UNL     1       3.011   6.082  19.187  0.00  0.00    +0.000 C 
ATOM      3  O   UNL     1       2.981   5.399  20.208  0.00  0.00    +0.000 OA
ATOM      4  N   UNL     1       3.702   5.674  18.065  0.00  0.00    +0.000 N 
ATOM      5  H   UNL     1       3.848   6.369  17.341  0.00  0.00    +0.000 HD
BRANCH   2  10
ATOM      6  C   UNL     1       0.350  10.592  20.136  0.00  0.00    +0.000 C 
ATOM      7  C   UNL     1       1.102   9.480  19.488  0.00  0.00    +0.000 A 
ATOM      8  C   UNL     1       1.524   9.373  18.181  0.00  0.00    +0.000 A 
ATOM      9  C   UNL     1       2.228   8.157  17.942  0.00  0.00    +0.000 A 
ATOM     10  C   UNL     1       2.331   7.368  19.075  0.00  0.00    +0.000 A 
ATOM     11  S   UNL     1       1.546   8.109  20.408  0.00  0.00    +0.000 S 
ENDBRANCH   2  10
ENDBRANCH   1   4
BRANCH   1  12
ATOM     12  C   UNL     1       4.680   3.858  16.673  0.00  0.00    +0.000 C 
BRANCH  12  13
ATOM     13  C   UNL     1       5.799   4.465  15.880  0.00  0.00    +0.000 A 
ATOM     14  C   UNL     1       6.751   5.343  16.363  0.00  0.00    +0.000 A 
ATOM     15  N   UNL     1       7.597   5.669  15.339  0.00  0.00    +0.000 N 
ATOM     16  C   UNL     1       7.219   5.026  14.185  0.00  0.00    +0.000 A 
ATOM     17  C   UNL     1       7.785   5.067  12.905  0.00  0.00    +0.000 A 
ATOM     18  C   UNL     1       7.184   4.299  11.905  0.00  0.00    +0.000 A 
ATOM     19  C   UNL     1       6.067   3.515  12.179  0.00  0.00    +0.000 A 
ATOM     20  C   UNL     1       5.520   3.477  13.467  0.00  0.00    +0.000 A 
ATOM     21  C   UNL     1       6.099   4.253  14.494  0.00  0.00    +0.000 A 
ATOM     22  H   UNL     1       8.388   6.294  15.413  0.00  0.00    +0.000 HD
ENDBRANCH  12  13
ENDBRANCH   1  12
TORSDOF 4
ENDMDL
MODEL 6
REMARK VINA RESULT:      -7.2      4.267      6.841
REMARK  Name = 
REMARK  5 active torsions:
REMARK  status: ('A' for Active; 'I' for Inactive)
REMARK    1  A    between atoms: C_1  and  C_2
REMARK    2  A    between atoms: C_5  and  C_6
REMARK    3  A    between atoms: N_8  and  C_9
REMARK    4  A    between atoms: C_9  and  C_10
REMARK    5  A    between atoms: C_10  and  C_11
REMARK                            x       y       z     vdW  Elec       q    Type
REMARK                         _______ _______ _______ _____ _____    ______ ____
ROOT
ATOM      1  C   UNL     1       3.911   6.826  17.637  0.00  0.00    +0.000 C 
ENDROOT
BRANCH   1   4
ATOM      2  C   UNL     1       2.234   8.531  18.258  0.00  0.00    +0.000 C 
ATOM      3  O   UNL     1       2.331   9.082  17.164  0.00  0.00    +0.000 OA
ATOM      4  N   UNL     1       3.015   7.445  18.593  0.00  0.00    +0.000 N 
ATOM      5  H   UNL     1       2.744   6.926  19.420  0.00  0.00    +0.000 HD
BRANCH   2  10
ATOM      6  C   UNL     1      -0.446   9.289  22.793  0.00  0.00    +0.000 C 
ATOM      7  C   UNL     1       0.031   9.349  21.382  0.00  0.00    +0.000 A 
ATOM      8  C   UNL     1      -0.428  10.139  20.351  0.00  0.00    +0.000 A 
ATOM      9  C   UNL     1       0.295   9.919  19.143  0.00  0.00    +0.000 A 
ATOM     10  C   UNL     1       1.293   8.970  19.283  0.00  0.00    +0.000 A 
ATOM     11  S   UNL     1       1.319   8.343  20.880  0.00  0.00    +0.000 S 
ENDBRANCH   2  10
ENDBRANCH   1   4
BRANCH   1  12
ATOM     12  C   UNL     1       3.509   5.393  17.275  0.00  0.00    +0.000 C 
BRANCH  12  13
ATOM     13  C   UNL     1       3.807   4.402  18.361  0.00  0.00    +0.000 A 
ATOM     14  C   UNL     1       5.016   3.766  18.568  0.00  0.00    +0.000 A 
ATOM     15  N   UNL     1       4.891   2.940  19.652  0.00  0.00    +0.000 N 
ATOM     16  C   UNL     1       3.617   3.015  20.163  0.00  0.00    +0.000 A 
ATOM     17  C   UNL     1       3.044   2.349  21.253  0.00  0.00    +0.000 A 
ATOM     18  C   UNL     1       1.707   2.622  21.551  0.00  0.00    +0.000 A 
ATOM     19  C   UNL     1       0.978   3.534  20.793  0.00  0.00    +0.000 A 
ATOM     20  C   UNL     1       1.568   4.200  19.713  0.00  0.00    +0.000 A 
ATOM     21  C   UNL     1       2.914   3.933  19.381  0.00  0.00    +0.000 A 
ATOM     22  H   UNL     1       5.624   2.356  20.028  0.00  0.00    +0.000 HD
ENDBRANCH  12  13
ENDBRANCH   1  12
TORSDOF 4
ENDMDL
MODEL 7
REMARK VINA RESULT:      -7.1      4.602      7.220
REMARK  Name = 
REMARK  5 active torsions:
REMARK  status: ('A' for Active; 'I' for Inactive)
REMARK    1  A    between atoms: C_1  and  C_2
REMARK    2  A    between atoms: C_5  and  C_6
REMARK    3  A    between atoms: N_8  and  C_9
REMARK    4  A    between atoms: C_9  and  C_10
REMARK    5  A    between atoms: C_10  and  C_11
REMARK                            x       y       z     vdW  Elec       q    Type
REMARK                         _______ _______ _______ _____ _____    ______ ____
ROOT
ATOM      1  C   UNL     1       3.350   7.233  17.489  0.00  0.00    +0.000 C 
ENDROOT
BRANCH   1   4
ATOM      2  C   UNL     1       1.903   9.005  18.420  0.00  0.00    +0.000 C 
ATOM      3  O   UNL     1       2.016   9.686  17.404  0.00  0.00    +0.000 OA
ATOM      4  N   UNL     1       2.570   7.807  18.566  0.00  0.00    +0.000 N 
ATOM      5  H   UNL     1       2.278   7.212  19.332  0.00  0.00    +0.000 HD
BRANCH   2  10
ATOM      6  C   UNL     1      -0.357   9.552  23.207  0.00  0.00    +0.000 C 
ATOM      7  C   UNL     1      -0.006   9.679  21.764  0.00  0.00    +0.000 A 
ATOM      8  C   UNL     1      -0.547  10.522  20.818  0.00  0.00    +0.000 A 
ATOM      9  C   UNL     1       0.064  10.358  19.542  0.00  0.00    +0.000 A 
ATOM     10  C   UNL     1       1.061   9.398  19.546  0.00  0.00    +0.000 A 
ATOM     11  S   UNL     1       1.221   8.692  21.101  0.00  0.00    +0.000 S 
ENDBRANCH   2  10
ENDBRANCH   1   4
BRANCH   1  12
ATOM     12  C   UNL     1       4.267   6.096  17.948  0.00  0.00    +0.000 C 
BRANCH  12  13
ATOM     13  C   UNL     1       3.566   4.773  18.050  0.00  0.00    +0.000 A 
ATOM     14  C   UNL     1       3.491   3.817  17.055  0.00  0.00    +0.000 A 
ATOM     15  N   UNL     1       2.771   2.755  17.529  0.00  0.00    +0.000 N 
ATOM     16  C   UNL     1       2.364   2.993  18.819  0.00  0.00    +0.000 A 
ATOM     17  C   UNL     1       1.608   2.195  19.686  0.00  0.00    +0.000 A 
ATOM     18  C   UNL     1       1.340   2.697  20.962  0.00  0.00    +0.000 A 
ATOM     19  C   UNL     1       1.818   3.943  21.356  0.00  0.00    +0.000 A 
ATOM     20  C   UNL     1       2.581   4.724  20.480  0.00  0.00    +0.000 A 
ATOM     21  C   UNL     1       2.856   4.248  19.180  0.00  0.00    +0.000 A 
ATOM     22  H   UNL     1       2.563   1.913  17.010  0.00  0.00    +0.000 HD
ENDBRANCH  12  13
ENDBRANCH   1  12
TORSDOF 4
ENDMDL
MODEL 8
REMARK VINA RESULT:      -7.1      1.150      1.716
REMARK  Name = 
REMARK  5 active torsions:
REMARK  status: ('A' for Active; 'I' for Inactive)
REMARK    1  A    between atoms: C_1  and  C_2
REMARK    2  A    between atoms: C_5  and  C_6
REMARK    3  A    between atoms: N_8  and  C_9
REMARK    4  A    between atoms: C_9  and  C_10
REMARK    5  A    between atoms: C_10  and  C_11
REMARK                            x       y       z     vdW  Elec       q    Type
REMARK                         _______ _______ _______ _____ _____    ______ ____
ROOT
ATOM      1  C   UNL     1       6.665   6.502  17.869  0.00  0.00    +0.000 C 
ENDROOT
BRANCH   1   4
ATOM      2  C   UNL     1       7.212   4.985  15.998  0.00  0.00    +0.000 C 
ATOM      3  O   UNL     1       8.041   4.383  16.676  0.00  0.00    +0.000 OA
ATOM      4  N   UNL     1       6.528   6.076  16.491  0.00  0.00    +0.000 N 
ATOM      5  H   UNL     1       5.728   6.393  15.957  0.00  0.00    +0.000 HD
BRANCH   2  10
ATOM      6  C   UNL     1       4.878   3.069  11.615  0.00  0.00    +0.000 C 
ATOM      7  C   UNL     1       5.815   3.726  12.570  0.00  0.00    +0.000 A 
ATOM      8  C   UNL     1       6.981   4.408  12.300  0.00  0.00    +0.000 A 
ATOM      9  C   UNL     1       7.597   4.908  13.484  0.00  0.00    +0.000 A 
ATOM     10  C   UNL     1       6.881   4.601  14.629  0.00  0.00    +0.000 A 
ATOM     11  S   UNL     1       5.482   3.686  14.246  0.00  0.00    +0.000 S 
ENDBRANCH   2  10
ENDBRANCH   1   4
BRANCH   1  12
ATOM     12  C   UNL     1       5.959   5.574  18.861  0.00  0.00    +0.000 C 
BRANCH  12  13
ATOM     13  C   UNL     1       4.488   5.436  18.600  0.00  0.00    +0.000 A 
ATOM     14  C   UNL     1       3.614   6.470  18.326  0.00  0.00    +0.000 A 
ATOM     15  N   UNL     1       2.363   5.944  18.147  0.00  0.00    +0.000 N 
ATOM     16  C   UNL     1       2.395   4.579  18.304  0.00  0.00    +0.000 A 
ATOM     17  C   UNL     1       1.360   3.640  18.217  0.00  0.00    +0.000 A 
ATOM     18  C   UNL     1       1.684   2.297  18.425  0.00  0.00    +0.000 A 
ATOM     19  C   UNL     1       2.993   1.911  18.699  0.00  0.00    +0.000 A 
ATOM     20  C   UNL     1       4.018   2.861  18.771  0.00  0.00    +0.000 A 
ATOM     21  C   UNL     1       3.717   4.227  18.579  0.00  0.00    +0.000 A 
ATOM     22  H   UNL     1       1.532   6.476  17.931  0.00  0.00    +0.000 HD
ENDBRANCH  12  13
ENDBRANCH   1  12
TORSDOF 4
ENDMDL
MODEL 9
REMARK VINA RESULT:      -7.0      5.601      8.491
REMARK  Name = 
REMARK  5 active torsions:
REMARK  status: ('A' for Active; 'I' for Inactive)
REMARK    1  A    between atoms: C_1  and  C_2
REMARK    2  A    between atoms: C_5  and  C_6
REMARK    3  A    between atoms: N_8  and  C_9
REMARK    4  A    between atoms: C_9  and  C_10
REMARK    5  A    between atoms: C_10  and  C_11
REMARK                            x       y       z     vdW  Elec       q    Type
REMARK                         _______ _______ _______ _____ _____    ______ ____
ROOT
ATOM      1  C   UNL     1       8.627   8.047  18.588  0.00  0.00    +0.000 C 
ENDROOT
BRANCH   1   4
ATOM      2  C   UNL     1       7.259   5.990  18.604  0.00  0.00    +0.000 C 
ATOM      3  O   UNL     1       7.925   5.507  19.517  0.00  0.00    +0.000 OA
ATOM      4  N   UNL     1       7.570   7.214  18.051  0.00  0.00    +0.000 N 
ATOM      5  H   UNL     1       6.870   7.635  17.450  0.00  0.00    +0.000 HD
BRANCH   2  10
ATOM      6  C   UNL     1       2.376   4.118  17.615  0.00  0.00    +0.000 C 
ATOM      7  C   UNL     1       3.830   4.440  17.545  0.00  0.00    +0.000 A 
ATOM      8  C   UNL     1       4.739   4.107  16.564  0.00  0.00    +0.000 A 
ATOM      9  C   UNL     1       6.042   4.610  16.848  0.00  0.00    +0.000 A 
ATOM     10  C   UNL     1       6.094   5.320  18.035  0.00  0.00    +0.000 A 
ATOM     11  S   UNL     1       4.559   5.342  18.800  0.00  0.00    +0.000 S 
ENDBRANCH   2  10
ENDBRANCH   1   4
BRANCH   1  12
ATOM     12  C   UNL     1       8.445   9.534  18.267  0.00  0.00    +0.000 C 
BRANCH  12  13
ATOM     13  C   UNL     1       9.253  10.435  19.153  0.00  0.00    +0.000 A 
ATOM     14  C   UNL     1       9.145  10.528  20.527  0.00  0.00    +0.000 A 
ATOM     15  N   UNL     1      10.048  11.457  20.970  0.00  0.00    +0.000 N 
ATOM     16  C   UNL     1      10.747  11.983  19.911  0.00  0.00    +0.000 A 
ATOM     17  C   UNL     1      11.754  12.956  19.892  0.00  0.00    +0.000 A 
ATOM     18  C   UNL     1      12.297  13.304  18.653  0.00  0.00    +0.000 A 
ATOM     19  C   UNL     1      11.855  12.695  17.482  0.00  0.00    +0.000 A 
ATOM     20  C   UNL     1      10.855  11.717  17.519  0.00  0.00    +0.000 A 
ATOM     21  C   UNL     1      10.279  11.355  18.756  0.00  0.00    +0.000 A 
ATOM     22  H   UNL     1      10.185  11.723  21.935  0.00  0.00    +0.000 HD
ENDBRANCH  12  13
ENDBRANCH   1  12
TORSDOF 4
ENDMDL
