MODEL 1
REMARK VINA RESULT:      -5.8      0.000      0.000
REMARK  Name = 
REMARK  2 active torsions:
REMARK  status: ('A' for Active; 'I' for Inactive)
REMARK    1  A    between atoms: C_1  and  C_2
REMARK    2  A    between atoms: C_2  and  N_3
REMARK                            x       y       z     vdW  Elec       q    Type
REMARK                         _______ _______ _______ _____ _____    ______ ____
ROOT
ATOM      1  N   UNL     1       1.450   4.171  18.940  0.00  0.00    +0.000 NA
ATOM      2  C   UNL     1       1.763   3.128  17.947  0.00  0.00    +0.000 C 
ATOM      3  C   UNL     1       3.257   2.862  17.720  0.00  0.00    +0.000 C 
ATOM      4  C   UNL     1       3.892   4.149  17.276  0.00  0.00    +0.000 A 
ATOM      5  C   UNL     1       4.856   4.201  16.265  0.00  0.00    +0.000 A 
ATOM      6  C   UNL     1       5.375   5.432  15.870  0.00  0.00    +0.000 A 
ATOM      7  C   UNL     1       4.947   6.605  16.492  0.00  0.00    +0.000 A 
ATOM      8  C   UNL     1       4.001   6.554  17.519  0.00  0.00    +0.000 A 
ATOM      9  C   UNL     1       3.460   5.326  17.911  0.00  0.00    +0.000 A 
ATOM     10  C   UNL     1       2.500   5.208  19.075  0.00  0.00    +0.000 C 
ENDROOT
BRANCH   1  12
ATOM     11  C   UNL     1       2.132   3.928  21.344  0.00  0.00    +0.000 C 
ATOM     12  C   UNL     1       1.092   3.644  20.265  0.00  0.00    +0.000 C 
ENDBRANCH   1  12
TORSDOF 1
ENDMDL
MODEL 2
REMARK VINA RESULT:      -5.8      2.129      4.566
REMARK  Name = 
REMARK  2 active torsions:
REMARK  status: ('A' for Active; 'I' for Inactive)
REMARK    1  A    between atoms: C_1  and  C_2
REMARK    2  A    between atoms: C_2  and  N_3
REMARK                            x       y       z     vdW  Elec       q    Type
REMARK                         _______ _______ _______ _____ _____    ______ ____
ROOT
ATOM      1  N   UNL     1       6.093   5.757  16.864  0.00  0.00    +0.000 NA
ATOM      2  C   UNL     1       4.963   6.680  16.654  0.00  0.00    +0.000 C 
ATOM      3  C   UNL     1       3.868   6.634  17.727  0.00  0.00    +0.000 C 
ATOM      4  C   UNL     1       3.333   5.231  17.782  0.00  0.00    +0.000 A 
ATOM      5  C   UNL     1       1.971   4.950  17.921  0.00  0.00    +0.000 A 
ATOM      6  C   UNL     1       1.537   3.627  17.921  0.00  0.00    +0.000 A 
ATOM      7  C   UNL     1       2.458   2.586  17.799  0.00  0.00    +0.000 A 
ATOM      8  C   UNL     1       3.822   2.863  17.683  0.00  0.00    +0.000 A 
ATOM      9  C   UNL     1       4.268   4.188  17.663  0.00  0.00    +0.000 A 
ATOM     10  C   UNL     1       5.741   4.537  17.628  0.00  0.00    +0.000 C 
ENDROOT
BRANCH   1  12
ATOM     11  C   UNL     1       7.658   5.841  18.825  0.00  0.00    +0.000 C 
ATOM     12  C   UNL     1       7.280   6.393  17.454  0.00  0.00    +0.000 C 
ENDBRANCH   1  12
TORSDOF 1
ENDMDL
MODEL 3
REMARK VINA RESULT:      -5.8      1.356      4.427
REMARK  Name = 
REMARK  2 active torsions:
REMARK  status: ('A' for Active; 'I' for Inactive)
REMARK    1  A    between atoms: C_1  and  C_2
REMARK    2  A    between atoms: C_2  and  N_3
REMARK                            x       y       z     vdW  Elec       q    Type
REMARK                         _______ _______ _______ _____ _____    ______ ____
ROOT
ATOM      1  N   UNL     1       4.702   5.341  17.428  0.00  0.00    +0.000 NA
ATOM      2  C   UNL     1       4.550   3.913  17.097  0.00  0.00    +0.000 C 
ATOM      3  C   UNL     1       3.105   3.430  16.916  0.00  0.00    +0.000 C 
ATOM      4  C   UNL     1       2.363   3.705  18.193  0.00  0.00    +0.000 A 
ATOM      5  C   UNL     1       1.452   2.799  18.742  0.00  0.00    +0.000 A 
ATOM      6  C   UNL     1       0.829   3.096  19.952  0.00  0.00    +0.000 A 
ATOM      7  C   UNL     1       1.101   4.299  20.604  0.00  0.00    +0.000 A 
ATOM      8  C   UNL     1       1.993   5.217  20.046  0.00  0.00    +0.000 A 
ATOM      9  C   UNL     1       2.638   4.922  18.841  0.00  0.00    +0.000 A 
ATOM     10  C   UNL     1       3.546   5.919  18.152  0.00  0.00    +0.000 C 
ENDROOT
BRANCH   1  12
ATOM     11  C   UNL     1       5.653   5.420  15.105  0.00  0.00    +0.000 C 
ATOM     12  C   UNL     1       5.046   6.187  16.275  0.00  0.00    +0.000 C 
ENDBRANCH   1  12
TORSDOF 1
ENDMDL
MODEL 4
REMARK VINA RESULT:      -5.7      1.476      4.812
REMARK  Name = 
REMARK  2 active torsions:
REMARK  status: ('A' for Active; 'I' for Inactive)
REMARK    1  A    between atoms: C_1  and  C_2
REMARK    2  A    between atoms: C_2  and  N_3
REMARK                            x       y       z     vdW  Elec       q    Type
REMARK                         _______ _______ _______ _____ _____    ______ ____
ROOT
ATOM      1  N   UNL     1       4.419   4.818  16.843  0.00  0.00    +0.000 NA
ATOM      2  C   UNL     1       4.441   5.848  17.896  0.00  0.00    +0.000 C 
ATOM      3  C   UNL     1       4.384   5.320  19.335  0.00  0.00    +0.000 C 
ATOM      4  C   UNL     1       3.123   4.517  19.482  0.00  0.00    +0.000 A 
ATOM      5  C   UNL     1       2.319   4.581  20.623  0.00  0.00    +0.000 A 
ATOM      6  C   UNL     1       1.139   3.843  20.679  0.00  0.00    +0.000 A 
ATOM      7  C   UNL     1       0.770   3.030  19.607  0.00  0.00    +0.000 A 
ATOM      8  C   UNL     1       1.583   2.945  18.474  0.00  0.00    +0.000 A 
ATOM      9  C   UNL     1       2.760   3.696  18.400  0.00  0.00    +0.000 A 
ATOM     10  C   UNL     1       3.718   3.572  17.234  0.00  0.00    +0.000 C 
ENDROOT
BRANCH   1  12
ATOM     11  C   UNL     1       5.752   4.276  14.785  0.00  0.00    +0.000 C 
ATOM     12  C   UNL     1       5.744   4.496  16.294  0.00  0.00    +0.000 C 
ENDBRANCH   1  12
TORSDOF 1
ENDMDL
MODEL 5
REMARK VINA RESULT:      -5.7      0.938      2.155
REMARK  Name = 
REMARK  2 active torsions:
REMARK  status: ('A' for Active; 'I' for Inactive)
REMARK    1  A    between atoms: C_1  and  C_2
REMARK    2  A    between atoms: C_2  and  N_3
REMARK                            x       y       z     vdW  Elec       q    Type
REMARK                         _______ _______ _______ _____ _____    ______ ____
ROOT
ATOM      1  N   UNL     1       3.072   3.223  19.412  0.00  0.00    +0.000 NA
ATOM      2  C   UNL     1       3.155   4.591  19.953  0.00  0.00    +0.000 C 
ATOM      3  C   UNL     1       2.784   5.710  18.971  0.00  0.00    +0.000 C 
ATOM      4  C   UNL     1       3.702   5.609  17.787  0.00  0.00    +0.000 A 
ATOM      5  C   UNL     1       4.260   6.733  17.171  0.00  0.00    +0.000 A 
ATOM      6  C   UNL     1       5.140   6.568  16.103  0.00  0.00    +0.000 A 
ATOM      7  C   UNL     1       5.449   5.289  15.640  0.00  0.00    +0.000 A 
ATOM      8  C   UNL     1       4.874   4.165  16.239  0.00  0.00    +0.000 A 
ATOM      9  C   UNL     1       4.005   4.317  17.323  0.00  0.00    +0.000 A 
ATOM     10  C   UNL     1       3.290   3.139  17.949  0.00  0.00    +0.000 C 
ENDROOT
BRANCH   1  12
ATOM     11  C   UNL     1       1.310   2.862  21.164  0.00  0.00    +0.000 C 
ATOM     12  C   UNL     1       1.839   2.511  19.777  0.00  0.00    +0.000 C 
ENDBRANCH   1  12
TORSDOF 1
ENDMDL
MODEL 6
REMARK VINA RESULT:      -5.7      1.577      4.371
REMARK  Name = 
REMARK  2 active torsions:
REMARK  status: ('A' for Active; 'I' for Inactive)
REMARK    1  A    between atoms: C_1  and  C_2
REMARK    2  A    between atoms: C_2  and  N_3
REMARK                            x       y       z     vdW  Elec       q    Type
REMARK                         _______ _______ _______ _____ _____    ______ ____
ROOT
ATOM      1  N   UNL     1       5.067   5.536  18.185  0.00  0.00    +0.000 NA
ATOM      2  C   UNL     1       5.040   4.180  17.609  0.00  0.00    +0.000 C 
ATOM      3  C   UNL     1       3.682   3.725  17.059  0.00  0.00    +0.000 C 
ATOM      4  C   UNL     1       2.686   3.786  18.181  0.00  0.00    +0.000 A 
ATOM      5  C   UNL     1       1.717   2.798  18.381  0.00  0.00    +0.000 A 
ATOM      6  C   UNL     1       0.851   2.892  19.467  0.00  0.00    +0.000 A 
ATOM      7  C   UNL     1       0.938   3.975  20.342  0.00  0.00    +0.000 A 
ATOM      8  C   UNL     1       1.889   4.975  20.132  0.00  0.00    +0.000 A 
ATOM      9  C   UNL     1       2.777   4.883  19.056  0.00  0.00    +0.000 A 
ATOM     10  C   UNL     1       3.766   5.983  18.735  0.00  0.00    +0.000 C 
ENDROOT
BRANCH   1  12
ATOM     11  C   UNL     1       7.100   6.811  17.445  0.00  0.00    +0.000 C 
ATOM     12  C   UNL     1       5.605   6.559  17.276  0.00  0.00    +0.000 C 
ENDBRANCH   1  12
TORSDOF 1
ENDMDL
MODEL 7
REMARK VINA RESULT:      -5.7      1.398      1.474
REMARK  Name = 
REMARK  2 active torsions:
REMARK  status: ('A' for Active; 'I' for Inactive)
REMARK    1  A    between atoms: C_1  and  C_2
REMARK    2  A    between atoms: C_2  and  N_3
REMARK                            x       y       z     vdW  Elec       q    Type
REMARK                         _______ _______ _______ _____ _____    ______ ____
ROOT
ATOM      1  N   UNL     1       1.865   4.688  19.380  0.00  0.00    +0.000 NA
ATOM      2  C   UNL     1       1.686   4.458  17.936  0.00  0.00    +0.000 C 
ATOM      3  C   UNL     1       2.667   3.464  17.301  0.00  0.00    +0.000 C 
ATOM      4  C   UNL     1       4.059   3.978  17.532  0.00  0.00    +0.000 A 
ATOM      5  C   UNL     1       5.054   3.920  16.552  0.00  0.00    +0.000 A 
ATOM      6  C   UNL     1       6.313   4.454  16.815  0.00  0.00    +0.000 A 
ATOM      7  C   UNL     1       6.585   5.028  18.057  0.00  0.00    +0.000 A 
ATOM      8  C   UNL     1       5.601   5.065  19.047  0.00  0.00    +0.000 A 
ATOM      9  C   UNL     1       4.327   4.549  18.788  0.00  0.00    +0.000 A 
ATOM     10  C   UNL     1       3.255   4.487  19.854  0.00  0.00    +0.000 C 
ENDROOT
BRANCH   1  12
ATOM     11  C   UNL     1       1.618   3.045  21.263  0.00  0.00    +0.000 C 
ATOM     12  C   UNL     1       0.933   3.928  20.225  0.00  0.00    +0.000 C 
ENDBRANCH   1  12
TORSDOF 1
ENDMDL
MODEL 8
REMARK VINA RESULT:      -5.6      1.746      4.677
REMARK  Name = 
REMARK  2 active torsions:
REMARK  status: ('A' for Active; 'I' for Inactive)
REMARK    1  A    between atoms: C_1  and  C_2
REMARK    2  A    between atoms: C_2  and  N_3
REMARK                            x       y       z     vdW  Elec       q    Type
REMARK                         _______ _______ _______ _____ _____    ______ ____
ROOT
ATOM      1  N   UNL     1       5.286   5.104  16.044  0.00  0.00    +0.000 NA
ATOM      2  C   UNL     1       4.680   6.295  16.664  0.00  0.00    +0.000 C 
ATOM      3  C   UNL     1       4.295   6.144  18.142  0.00  0.00    +0.000 C 
ATOM      4  C   UNL     1       3.324   5.003  18.251  0.00  0.00    +0.000 A 
ATOM      5  C   UNL     1       2.202   5.049  19.084  0.00  0.00    +0.000 A 
ATOM      6  C   UNL     1       1.316   3.974  19.107  0.00  0.00    +0.000 A 
ATOM      7  C   UNL     1       1.557   2.851  18.316  0.00  0.00    +0.000 A 
ATOM      8  C   UNL     1       2.689   2.792  17.500  0.00  0.00    +0.000 A 
ATOM      9  C   UNL     1       3.576   3.873  17.455  0.00  0.00    +0.000 A 
ATOM     10  C   UNL     1       4.861   3.823  16.656  0.00  0.00    +0.000 C 
ENDROOT
BRANCH   1  12
ATOM     11  C   UNL     1       7.463   4.559  17.172  0.00  0.00    +0.000 C 
ATOM     12  C   UNL     1       6.753   5.156  15.961  0.00  0.00    +0.000 C 
ENDBRANCH   1  12
TORSDOF 1
ENDMDL
MODEL 9
REMARK VINA RESULT:      -5.6      1.009      1.234
REMARK  Name = 
REMARK  2 active torsions:
REMARK  status: ('A' for Active; 'I' for Inactive)
REMARK    1  A    between atoms: C_1  and  C_2
REMARK    2  A    between atoms: C_2  and  N_3
REMARK                            x       y       z     vdW  Elec       q    Type
REMARK                         _______ _______ _______ _____ _____    ______ ____
ROOT
ATOM      1  N   UNL     1       1.443   3.204  18.615  0.00  0.00    +0.000 NA
ATOM      2  C   UNL     1       2.374   2.673  17.603  0.00  0.00    +0.000 C 
ATOM      3  C   UNL     1       3.824   3.159  17.723  0.00  0.00    +0.000 C 
ATOM      4  C   UNL     1       3.818   4.658  17.625  0.00  0.00    +0.000 A 
ATOM      5  C   UNL     1       4.781   5.368  16.903  0.00  0.00    +0.000 A 
ATOM      6  C   UNL     1       4.694   6.756  16.816  0.00  0.00    +0.000 A 
ATOM      7  C   UNL     1       3.660   7.434  17.461  0.00  0.00    +0.000 A 
ATOM      8  C   UNL     1       2.710   6.730  18.203  0.00  0.00    +0.000 A 
ATOM      9  C   UNL     1       2.776   5.335  18.282  0.00  0.00    +0.000 A 
ATOM     10  C   UNL     1       1.824   4.535  19.144  0.00  0.00    +0.000 C 
ENDROOT
BRANCH   1  12
ATOM     11  C   UNL     1       1.357   2.905  21.107  0.00  0.00    +0.000 C 
ATOM     12  C   UNL     1       1.182   2.279  19.727  0.00  0.00    +0.000 C 
ENDBRANCH   1  12
TORSDOF 1
ENDMDL
